MODEL 1
REMARK VINA RESULT:     -11.3      0.000      0.000
REMARK  Name = 449087
REMARK  3 active torsions:
REMARK  status: ('A' for Active; 'I' for Inactive)
REMARK    1  A    between atoms: C_5  and  C_11
REMARK    2  A    between atoms: C_8  and  C_14
REMARK    3  A    between atoms: C_14  and  C_15
REMARK                            x       y       z     vdW  Elec       q    Type
REMARK                         _______ _______ _______ _____ _____    ______ ____
ROOT
ATOM      1  O   UNL     1      34.139 -20.153 -21.297  0.00  0.00    -0.274 OA
ATOM      2  N   UNL     1      35.857 -22.735 -17.527  0.00  0.00    -0.239 N 
ATOM      3  N   UNL     1      36.609 -21.859 -18.214  0.00  0.00    -0.166 NA
ATOM      4  N   UNL     1      36.124 -20.444 -20.075  0.00  0.00    -0.268 N 
ATOM      5  C   UNL     1      34.575 -22.836 -17.981  0.00  0.00    +0.045 C 
ATOM      6  C   UNL     1      34.481 -21.964 -19.037  0.00  0.00    +0.048 C 
ATOM      7  C   UNL     1      35.758 -21.404 -19.122  0.00  0.00    +0.152 C 
ATOM      8  C   UNL     1      35.316 -19.898 -21.069  0.00  0.00    +0.232 C 
ATOM      9  H   UNL     1      36.201 -23.258 -16.767  0.00  0.00    +0.174 HD
ATOM     10  H   UNL     1      37.053 -20.120 -20.037  0.00  0.00    +0.156 HD
ENDROOT
BRANCH   5  11
ATOM     11  C   UNL     1      33.479 -23.733 -17.423  0.00  0.00    +0.037 C 
ATOM     12  C   UNL     1      33.214 -23.734 -15.938  0.00  0.00    +0.006 C 
ATOM     13  C   UNL     1      32.223 -23.105 -16.874  0.00  0.00    +0.006 C 
ENDBRANCH   5  11
BRANCH   8  14
ATOM     14  C   UNL     1      36.094 -18.881 -21.901  0.00  0.00    +0.112 C 
BRANCH  14  15
ATOM     15  C   UNL     1      35.345 -17.618 -22.169  0.00  0.00    -0.013 C 
ATOM     16  C   UNL     1      34.079 -15.711 -21.346  0.00  0.00    -0.000 C 
ATOM     17  C   UNL     1      34.787 -16.901 -21.110  0.00  0.00    -0.004 C 
ATOM     18  C   UNL     1      33.938 -15.241 -22.673  0.00  0.00    -0.000 C 
ATOM     19  C   UNL     1      35.207 -17.155 -23.474  0.00  0.00    -0.004 C 
ATOM     20  C   UNL     1      34.508 -15.975 -23.726  0.00  0.00    -0.000 C 
ATOM     21  C   UNL     1      33.509 -14.977 -20.292  0.00  0.00    -0.000 C 
ATOM     22  C   UNL     1      33.231 -14.050 -22.908  0.00  0.00    -0.000 C 
ATOM     23  C   UNL     1      32.810 -13.796 -20.545  0.00  0.00    -0.000 C 
ATOM     24  C   UNL     1      32.671 -13.334 -21.850  0.00  0.00    -0.000 C 
ENDBRANCH  14  15
ENDBRANCH   8  14
TORSDOF 3
ENDMDL
MODEL 2
REMARK VINA RESULT:     -11.2      2.933      8.432
REMARK  Name = 449087
REMARK  3 active torsions:
REMARK  status: ('A' for Active; 'I' for Inactive)
REMARK    1  A    between atoms: C_5  and  C_11
REMARK    2  A    between atoms: C_8  and  C_14
REMARK    3  A    between atoms: C_14  and  C_15
REMARK                            x       y       z     vdW  Elec       q    Type
REMARK                         _______ _______ _______ _____ _____    ______ ____
ROOT
ATOM      1  O   UNL     1      35.328 -17.130 -21.291  0.00  0.00    -0.274 OA
ATOM      2  N   UNL     1      33.938 -15.564 -25.702  0.00  0.00    -0.239 N 
ATOM      3  N   UNL     1      34.489 -16.773 -25.497  0.00  0.00    -0.166 NA
ATOM      4  N   UNL     1      35.276 -17.861 -23.523  0.00  0.00    -0.268 N 
ATOM      5  C   UNL     1      33.806 -14.819 -24.567  0.00  0.00    +0.045 C 
ATOM      6  C   UNL     1      34.303 -15.594 -23.548  0.00  0.00    +0.048 C 
ATOM      7  C   UNL     1      34.702 -16.771 -24.189  0.00  0.00    +0.152 C 
ATOM      8  C   UNL     1      35.543 -17.967 -22.161  0.00  0.00    +0.232 C 
ATOM      9  H   UNL     1      33.657 -15.245 -26.590  0.00  0.00    +0.174 HD
ATOM     10  H   UNL     1      35.516 -18.638 -24.079  0.00  0.00    +0.156 HD
ENDROOT
BRANCH   5  11
ATOM     11  C   UNL     1      33.222 -13.417 -24.461  0.00  0.00    +0.037 C 
ATOM     12  C   UNL     1      34.075 -12.305 -23.901  0.00  0.00    +0.006 C 
ATOM     13  C   UNL     1      33.747 -12.331 -25.366  0.00  0.00    +0.006 C 
ENDBRANCH   5  11
BRANCH   8  14
ATOM     14  C   UNL     1      36.171 -19.320 -21.835  0.00  0.00    +0.112 C 
BRANCH  14  15
ATOM     15  C   UNL     1      35.365 -20.151 -20.894  0.00  0.00    -0.013 C 
ATOM     16  C   UNL     1      35.255 -21.661 -18.990  0.00  0.00    -0.000 C 
ATOM     17  C   UNL     1      36.000 -20.874 -19.884  0.00  0.00    -0.004 C 
ATOM     18  C   UNL     1      33.847 -21.713 -19.121  0.00  0.00    -0.000 C 
ATOM     19  C   UNL     1      33.980 -20.203 -21.023  0.00  0.00    -0.004 C 
ATOM     20  C   UNL     1      33.225 -20.978 -20.144  0.00  0.00    -0.000 C 
ATOM     21  C   UNL     1      35.878 -22.396 -17.968  0.00  0.00    -0.000 C 
ATOM     22  C   UNL     1      33.103 -22.500 -18.226  0.00  0.00    -0.000 C 
ATOM     23  C   UNL     1      35.122 -23.173 -17.088  0.00  0.00    -0.000 C 
ATOM     24  C   UNL     1      33.738 -23.224 -17.217  0.00  0.00    -0.000 C 
ENDBRANCH  14  15
ENDBRANCH   8  14
TORSDOF 3
ENDMDL
MODEL 3
REMARK VINA RESULT:     -11.2      0.914      1.993
REMARK  Name = 449087
REMARK  3 active torsions:
REMARK  status: ('A' for Active; 'I' for Inactive)
REMARK    1  A    between atoms: C_5  and  C_11
REMARK    2  A    between atoms: C_8  and  C_14
REMARK    3  A    between atoms: C_14  and  C_15
REMARK                            x       y       z     vdW  Elec       q    Type
REMARK                         _______ _______ _______ _____ _____    ______ ____
ROOT
ATOM      1  O   UNL     1      34.135 -20.328 -21.039  0.00  0.00    -0.274 OA
ATOM      2  N   UNL     1      35.631 -22.976 -17.220  0.00  0.00    -0.239 N 
ATOM      3  N   UNL     1      36.452 -22.174 -17.918  0.00  0.00    -0.166 NA
ATOM      4  N   UNL     1      36.087 -20.756 -19.804  0.00  0.00    -0.268 N 
ATOM      5  C   UNL     1      34.346 -22.982 -17.678  0.00  0.00    +0.045 C 
ATOM      6  C   UNL     1      34.324 -22.122 -18.749  0.00  0.00    +0.048 C 
ATOM      7  C   UNL     1      35.643 -21.667 -18.838  0.00  0.00    +0.152 C 
ATOM      8  C   UNL     1      35.328 -20.164 -20.811  0.00  0.00    +0.232 C 
ATOM      9  H   UNL     1      35.929 -23.511 -16.450  0.00  0.00    +0.174 HD
ATOM     10  H   UNL     1      37.039 -20.507 -19.768  0.00  0.00    +0.156 HD
ENDROOT
BRANCH   5  11
ATOM     11  C   UNL     1      33.180 -23.779 -17.110  0.00  0.00    +0.037 C 
ATOM     12  C   UNL     1      32.851 -23.657 -15.642  0.00  0.00    +0.006 C 
ATOM     13  C   UNL     1      31.937 -23.050 -16.666  0.00  0.00    +0.006 C 
ENDBRANCH   5  11
BRANCH   8  14
ATOM     14  C   UNL     1      36.187 -19.227 -21.656  0.00  0.00    +0.112 C 
BRANCH  14  15
ATOM     15  C   UNL     1      35.496 -17.965 -22.054  0.00  0.00    -0.013 C 
ATOM     16  C   UNL     1      34.554 -16.541 -23.786  0.00  0.00    -0.000 C 
ATOM     17  C   UNL     1      35.205 -17.724 -23.396  0.00  0.00    -0.004 C 
ATOM     18  C   UNL     1      34.193 -15.593 -22.801  0.00  0.00    -0.000 C 
ATOM     19  C   UNL     1      35.141 -17.032 -21.084  0.00  0.00    -0.004 C 
ATOM     20  C   UNL     1      34.494 -15.853 -21.454  0.00  0.00    -0.000 C 
ATOM     21  C   UNL     1      34.254 -16.281 -25.134  0.00  0.00    -0.000 C 
ATOM     22  C   UNL     1      33.542 -14.410 -23.191  0.00  0.00    -0.000 C 
ATOM     23  C   UNL     1      33.608 -15.101 -25.503  0.00  0.00    -0.000 C 
ATOM     24  C   UNL     1      33.252 -14.168 -24.534  0.00  0.00    -0.000 C 
ENDBRANCH  14  15
ENDBRANCH   8  14
TORSDOF 3
ENDMDL
MODEL 4
REMARK VINA RESULT:     -10.9      3.313      8.216
REMARK  Name = 449087
REMARK  3 active torsions:
REMARK  status: ('A' for Active; 'I' for Inactive)
REMARK    1  A    between atoms: C_5  and  C_11
REMARK    2  A    between atoms: C_8  and  C_14
REMARK    3  A    between atoms: C_14  and  C_15
REMARK                            x       y       z     vdW  Elec       q    Type
REMARK                         _______ _______ _______ _____ _____    ______ ____
ROOT
ATOM      1  O   UNL     1      34.371 -16.348 -20.781  0.00  0.00    -0.274 OA
ATOM      2  N   UNL     1      33.106 -12.290 -23.183  0.00  0.00    -0.239 N 
ATOM      3  N   UNL     1      33.791 -13.294 -23.757  0.00  0.00    -0.166 NA
ATOM      4  N   UNL     1      34.570 -15.388 -22.916  0.00  0.00    -0.268 N 
ATOM      5  C   UNL     1      32.800 -12.510 -21.872  0.00  0.00    +0.045 C 
ATOM      6  C   UNL     1      33.319 -13.744 -21.567  0.00  0.00    +0.048 C 
ATOM      7  C   UNL     1      33.909 -14.162 -22.762  0.00  0.00    +0.152 C 
ATOM      8  C   UNL     1      34.752 -16.370 -21.946  0.00  0.00    +0.232 C 
ATOM      9  H   UNL     1      32.849 -11.471 -23.664  0.00  0.00    +0.174 HD
ATOM     10  H   UNL     1      34.945 -15.575 -23.806  0.00  0.00    +0.156 HD
ENDROOT
BRANCH   5  11
ATOM     11  C   UNL     1      32.035 -11.574 -20.946  0.00  0.00    +0.037 C 
ATOM     12  C   UNL     1      30.564 -11.811 -20.710  0.00  0.00    +0.006 C 
ATOM     13  C   UNL     1      31.551 -12.091 -19.614  0.00  0.00    +0.006 C 
ENDBRANCH   5  11
BRANCH   8  14
ATOM     14  C   UNL     1      35.524 -17.558 -22.516  0.00  0.00    +0.112 C 
BRANCH  14  15
ATOM     15  C   UNL     1      35.618 -18.721 -21.586  0.00  0.00    -0.013 C 
ATOM     16  C   UNL     1      34.534 -20.481 -20.305  0.00  0.00    -0.000 C 
ATOM     17  C   UNL     1      34.461 -19.385 -21.180  0.00  0.00    -0.004 C 
ATOM     18  C   UNL     1      35.798 -20.911 -19.837  0.00  0.00    -0.000 C 
ATOM     19  C   UNL     1      36.862 -19.144 -21.126  0.00  0.00    -0.004 C 
ATOM     20  C   UNL     1      36.953 -20.231 -20.257  0.00  0.00    -0.000 C 
ATOM     21  C   UNL     1      33.378 -21.161 -19.885  0.00  0.00    -0.000 C 
ATOM     22  C   UNL     1      35.870 -22.008 -18.963  0.00  0.00    -0.000 C 
ATOM     23  C   UNL     1      33.469 -22.248 -19.015  0.00  0.00    -0.000 C 
ATOM     24  C   UNL     1      34.712 -22.671 -18.555  0.00  0.00    -0.000 C 
ENDBRANCH  14  15
ENDBRANCH   8  14
TORSDOF 3
ENDMDL
MODEL 5
REMARK VINA RESULT:     -10.4      1.660      2.698
REMARK  Name = 449087
REMARK  3 active torsions:
REMARK  status: ('A' for Active; 'I' for Inactive)
REMARK    1  A    between atoms: C_5  and  C_11
REMARK    2  A    between atoms: C_8  and  C_14
REMARK    3  A    between atoms: C_14  and  C_15
REMARK                            x       y       z     vdW  Elec       q    Type
REMARK                         _______ _______ _______ _____ _____    ______ ____
ROOT
ATOM      1  O   UNL     1      34.304 -18.854 -23.332  0.00  0.00    -0.274 OA
ATOM      2  N   UNL     1      37.150 -20.143 -19.580  0.00  0.00    -0.239 N 
ATOM      3  N   UNL     1      37.320 -18.999 -20.266  0.00  0.00    -0.166 NA
ATOM      4  N   UNL     1      36.149 -18.053 -22.118  0.00  0.00    -0.268 N 
ATOM      5  C   UNL     1      36.113 -20.906 -20.031  0.00  0.00    +0.045 C 
ATOM      6  C   UNL     1      35.565 -20.214 -21.082  0.00  0.00    +0.048 C 
ATOM      7  C   UNL     1      36.351 -19.062 -21.169  0.00  0.00    +0.152 C 
ATOM      8  C   UNL     1      35.169 -18.014 -23.107  0.00  0.00    +0.232 C 
ATOM      9  H   UNL     1      37.721 -20.406 -18.824  0.00  0.00    +0.174 HD
ATOM     10  H   UNL     1      36.765 -17.286 -22.082  0.00  0.00    +0.156 HD
ENDROOT
BRANCH   5  11
ATOM     11  C   UNL     1      35.661 -22.249 -19.473  0.00  0.00    +0.037 C 
ATOM     12  C   UNL     1      35.398 -22.380 -17.993  0.00  0.00    +0.006 C 
ATOM     13  C   UNL     1      34.250 -22.396 -18.960  0.00  0.00    +0.006 C 
ENDBRANCH   5  11
BRANCH   8  14
ATOM     14  C   UNL     1      35.286 -16.738 -23.937  0.00  0.00    +0.112 C 
BRANCH  14  15
ATOM     15  C   UNL     1      34.462 -15.605 -23.424  0.00  0.00    -0.013 C 
ATOM     16  C   UNL     1      33.251 -14.543 -21.601  0.00  0.00    -0.000 C 
ATOM     17  C   UNL     1      34.028 -15.602 -22.099  0.00  0.00    -0.004 C 
ATOM     18  C   UNL     1      32.912 -13.471 -22.460  0.00  0.00    -0.000 C 
ATOM     19  C   UNL     1      34.128 -14.550 -24.269  0.00  0.00    -0.004 C 
ATOM     20  C   UNL     1      33.358 -13.490 -23.791  0.00  0.00    -0.000 C 
ATOM     21  C   UNL     1      32.805 -14.525 -20.269  0.00  0.00    -0.000 C 
ATOM     22  C   UNL     1      32.136 -12.411 -21.961  0.00  0.00    -0.000 C 
ATOM     23  C   UNL     1      32.034 -13.464 -19.791  0.00  0.00    -0.000 C 
ATOM     24  C   UNL     1      31.701 -12.410 -20.636  0.00  0.00    -0.000 C 
ENDBRANCH  14  15
ENDBRANCH   8  14
TORSDOF 3
ENDMDL
MODEL 6
REMARK VINA RESULT:     -10.4      3.811      6.393
REMARK  Name = 449087
REMARK  3 active torsions:
REMARK  status: ('A' for Active; 'I' for Inactive)
REMARK    1  A    between atoms: C_5  and  C_11
REMARK    2  A    between atoms: C_8  and  C_14
REMARK    3  A    between atoms: C_14  and  C_15
REMARK                            x       y       z     vdW  Elec       q    Type
REMARK                         _______ _______ _______ _____ _____    ______ ____
ROOT
ATOM      1  O   UNL     1      33.918 -22.757 -15.514  0.00  0.00    -0.274 OA
ATOM      2  N   UNL     1      36.672 -26.240 -13.483  0.00  0.00    -0.239 N 
ATOM      3  N   UNL     1      36.120 -26.365 -14.702  0.00  0.00    -0.166 NA
ATOM      4  N   UNL     1      34.744 -24.904 -15.994  0.00  0.00    -0.268 N 
ATOM      5  C   UNL     1      36.391 -25.055 -12.869  0.00  0.00    +0.045 C 
ATOM      6  C   UNL     1      35.601 -24.354 -13.748  0.00  0.00    +0.048 C 
ATOM      7  C   UNL     1      35.477 -25.214 -14.842  0.00  0.00    +0.152 C 
ATOM      8  C   UNL     1      34.034 -23.733 -16.248  0.00  0.00    +0.232 C 
ATOM      9  H   UNL     1      37.228 -26.940 -13.071  0.00  0.00    +0.174 HD
ATOM     10  H   UNL     1      34.729 -25.588 -16.703  0.00  0.00    +0.156 HD
ENDROOT
BRANCH   5  11
ATOM     11  C   UNL     1      36.863 -24.607 -11.493  0.00  0.00    +0.037 C 
ATOM     12  C   UNL     1      38.283 -24.127 -11.322  0.00  0.00    +0.006 C 
ATOM     13  C   UNL     1      37.149 -23.146 -11.252  0.00  0.00    +0.006 C 
ENDBRANCH   5  11
BRANCH   8  14
ATOM     14  C   UNL     1      33.373 -23.787 -17.623  0.00  0.00    +0.112 C 
BRANCH  14  15
ATOM     15  C   UNL     1      33.735 -22.646 -18.515  0.00  0.00    -0.013 C 
ATOM     16  C   UNL     1      35.434 -21.265 -19.574  0.00  0.00    -0.000 C 
ATOM     17  C   UNL     1      35.077 -22.336 -18.738  0.00  0.00    -0.004 C 
ATOM     18  C   UNL     1      34.417 -20.501 -20.194  0.00  0.00    -0.000 C 
ATOM     19  C   UNL     1      32.735 -21.895 -19.124  0.00  0.00    -0.004 C 
ATOM     20  C   UNL     1      33.072 -20.829 -19.958  0.00  0.00    -0.000 C 
ATOM     21  C   UNL     1      36.780 -20.938 -19.809  0.00  0.00    -0.000 C 
ATOM     22  C   UNL     1      34.776 -19.431 -21.031  0.00  0.00    -0.000 C 
ATOM     23  C   UNL     1      37.117 -19.871 -20.644  0.00  0.00    -0.000 C 
ATOM     24  C   UNL     1      36.117 -19.120 -21.253  0.00  0.00    -0.000 C 
ENDBRANCH  14  15
ENDBRANCH   8  14
TORSDOF 3
ENDMDL
MODEL 7
REMARK VINA RESULT:     -10.1      5.266      8.203
REMARK  Name = 449087
REMARK  3 active torsions:
REMARK  status: ('A' for Active; 'I' for Inactive)
REMARK    1  A    between atoms: C_5  and  C_11
REMARK    2  A    between atoms: C_8  and  C_14
REMARK    3  A    between atoms: C_14  and  C_15
REMARK                            x       y       z     vdW  Elec       q    Type
REMARK                         _______ _______ _______ _____ _____    ______ ____
ROOT
ATOM      1  O   UNL     1      32.135 -12.699 -22.450  0.00  0.00    -0.274 OA
ATOM      2  N   UNL     1      34.795 -16.531 -21.009  0.00  0.00    -0.239 N 
ATOM      3  N   UNL     1      34.104 -15.759 -20.153  0.00  0.00    -0.166 NA
ATOM      4  N   UNL     1      32.719 -13.843 -20.483  0.00  0.00    -0.268 N 
ATOM      5  C   UNL     1      34.685 -16.143 -22.312  0.00  0.00    +0.045 C 
ATOM      6  C   UNL     1      33.863 -15.043 -22.309  0.00  0.00    +0.048 C 
ATOM      7  C   UNL     1      33.548 -14.866 -20.959  0.00  0.00    +0.152 C 
ATOM      8  C   UNL     1      32.085 -12.857 -21.235  0.00  0.00    +0.232 C 
ATOM      9  H   UNL     1      35.332 -17.304 -20.722  0.00  0.00    +0.174 HD
ATOM     10  H   UNL     1      32.566 -13.819 -19.511  0.00  0.00    +0.156 HD
ENDROOT
BRANCH   5  11
ATOM     11  C   UNL     1      35.341 -16.804 -23.517  0.00  0.00    +0.037 C 
ATOM     12  C   UNL     1      34.668 -17.990 -24.162  0.00  0.00    +0.006 C 
ATOM     13  C   UNL     1      34.694 -16.668 -24.873  0.00  0.00    +0.006 C 
ENDBRANCH   5  11
BRANCH   8  14
ATOM     14  C   UNL     1      31.268 -11.931 -20.337  0.00  0.00    +0.112 C 
BRANCH  14  15
ATOM     15  C   UNL     1      31.546 -10.481 -20.550  0.00  0.00    -0.013 C 
ATOM     16  C   UNL     1      31.624  -8.551 -22.029  0.00  0.00    -0.000 C 
ATOM     17  C   UNL     1      31.367  -9.915 -21.813  0.00  0.00    -0.004 C 
ATOM     18  C   UNL     1      32.066  -7.750 -20.950  0.00  0.00    -0.000 C 
ATOM     19  C   UNL     1      31.981  -9.693 -19.489  0.00  0.00    -0.004 C 
ATOM     20  C   UNL     1      32.240  -8.337 -19.686  0.00  0.00    -0.000 C 
ATOM     21  C   UNL     1      31.451  -7.966 -23.295  0.00  0.00    -0.000 C 
ATOM     22  C   UNL     1      32.323  -6.386 -21.167  0.00  0.00    -0.000 C 
ATOM     23  C   UNL     1      31.711  -6.609 -23.492  0.00  0.00    -0.000 C 
ATOM     24  C   UNL     1      32.146  -5.821 -22.431  0.00  0.00    -0.000 C 
ENDBRANCH  14  15
ENDBRANCH   8  14
TORSDOF 3
ENDMDL
MODEL 8
REMARK VINA RESULT:     -10.0      1.295      2.197
REMARK  Name = 449087
REMARK  3 active torsions:
REMARK  status: ('A' for Active; 'I' for Inactive)
REMARK    1  A    between atoms: C_5  and  C_11
REMARK    2  A    between atoms: C_8  and  C_14
REMARK    3  A    between atoms: C_14  and  C_15
REMARK                            x       y       z     vdW  Elec       q    Type
REMARK                         _______ _______ _______ _____ _____    ______ ____
ROOT
ATOM      1  O   UNL     1      33.674 -21.036 -20.105  0.00  0.00    -0.274 OA
ATOM      2  N   UNL     1      34.044 -23.772 -16.078  0.00  0.00    -0.239 N 
ATOM      3  N   UNL     1      35.112 -23.263 -16.715  0.00  0.00    -0.166 NA
ATOM      4  N   UNL     1      35.317 -21.908 -18.670  0.00  0.00    -0.268 N 
ATOM      5  C   UNL     1      32.852 -23.455 -16.661  0.00  0.00    +0.045 C 
ATOM      6  C   UNL     1      33.161 -22.683 -17.754  0.00  0.00    +0.048 C 
ATOM      7  C   UNL     1      34.557 -22.608 -17.725  0.00  0.00    +0.152 C 
ATOM      8  C   UNL     1      34.841 -21.189 -19.764  0.00  0.00    +0.232 C 
ATOM      9  H   UNL     1      34.115 -24.324 -15.266  0.00  0.00    +0.174 HD
ATOM     10  H   UNL     1      36.293 -21.924 -18.546  0.00  0.00    +0.156 HD
ENDROOT
BRANCH   5  11
ATOM     11  C   UNL     1      31.467 -23.872 -16.187  0.00  0.00    +0.037 C 
ATOM     12  C   UNL     1      30.916 -23.282 -14.913  0.00  0.00    +0.006 C 
ATOM     13  C   UNL     1      30.339 -22.872 -16.237  0.00  0.00    +0.006 C 
ENDBRANCH   5  11
BRANCH   8  14
ATOM     14  C   UNL     1      35.996 -20.569 -20.548  0.00  0.00    +0.112 C 
BRANCH  14  15
ATOM     15  C   UNL     1      35.596 -19.409 -21.398  0.00  0.00    -0.013 C 
ATOM     16  C   UNL     1      35.007 -17.058 -21.603  0.00  0.00    -0.000 C 
ATOM     17  C   UNL     1      35.383 -18.159 -20.816  0.00  0.00    -0.004 C 
ATOM     18  C   UNL     1      34.846 -17.227 -22.998  0.00  0.00    -0.000 C 
ATOM     19  C   UNL     1      35.438 -19.575 -22.770  0.00  0.00    -0.004 C 
ATOM     20  C   UNL     1      35.065 -18.493 -23.566  0.00  0.00    -0.000 C 
ATOM     21  C   UNL     1      34.788 -15.793 -21.034  0.00  0.00    -0.000 C 
ATOM     22  C   UNL     1      34.470 -16.125 -23.785  0.00  0.00    -0.000 C 
ATOM     23  C   UNL     1      34.414 -14.710 -21.830  0.00  0.00    -0.000 C 
ATOM     24  C   UNL     1      34.256 -14.876 -23.203  0.00  0.00    -0.000 C 
ENDBRANCH  14  15
ENDBRANCH   8  14
TORSDOF 3
ENDMDL
MODEL 9
REMARK VINA RESULT:     -10.0      6.262     11.021
REMARK  Name = 449087
REMARK  3 active torsions:
REMARK  status: ('A' for Active; 'I' for Inactive)
REMARK    1  A    between atoms: C_5  and  C_11
REMARK    2  A    between atoms: C_8  and  C_14
REMARK    3  A    between atoms: C_14  and  C_15
REMARK                            x       y       z     vdW  Elec       q    Type
REMARK                         _______ _______ _______ _____ _____    ______ ____
ROOT
ATOM      1  O   UNL     1      30.780 -10.988 -21.748  0.00  0.00    -0.274 OA
ATOM      2  N   UNL     1      32.707  -6.885 -19.933  0.00  0.00    -0.239 N 
ATOM      3  N   UNL     1      32.882  -8.089 -19.361  0.00  0.00    -0.166 NA
ATOM      4  N   UNL     1      32.111 -10.270 -19.950  0.00  0.00    -0.268 N 
ATOM      5  C   UNL     1      31.942  -6.918 -21.062  0.00  0.00    +0.045 C 
ATOM      6  C   UNL     1      31.595  -8.234 -21.243  0.00  0.00    +0.048 C 
ATOM      7  C   UNL     1      32.201  -8.890 -20.169  0.00  0.00    +0.152 C 
ATOM      8  C   UNL     1      31.428 -11.200 -20.729  0.00  0.00    +0.232 C 
ATOM      9  H   UNL     1      33.094  -6.056 -19.569  0.00  0.00    +0.174 HD
ATOM     10  H   UNL     1      32.582 -10.621 -19.159  0.00  0.00    +0.156 HD
ENDROOT
BRANCH   5  11
ATOM     11  C   UNL     1      31.561  -5.732 -21.938  0.00  0.00    +0.037 C 
ATOM     12  C   UNL     1      32.376  -5.438 -23.174  0.00  0.00    +0.006 C 
ATOM     13  C   UNL     1      30.984  -5.985 -23.309  0.00  0.00    +0.006 C 
ENDBRANCH   5  11
BRANCH   8  14
ATOM     14  C   UNL     1      31.577 -12.605 -20.150  0.00  0.00    +0.112 C 
BRANCH  14  15
ATOM     15  C   UNL     1      32.420 -13.515 -20.980  0.00  0.00    -0.013 C 
ATOM     16  C   UNL     1      33.828 -15.490 -21.163  0.00  0.00    -0.000 C 
ATOM     17  C   UNL     1      33.031 -14.624 -20.396  0.00  0.00    -0.004 C 
ATOM     18  C   UNL     1      34.004 -15.229 -22.542  0.00  0.00    -0.000 C 
ATOM     19  C   UNL     1      32.593 -13.258 -22.337  0.00  0.00    -0.004 C 
ATOM     20  C   UNL     1      33.379 -14.108 -23.114  0.00  0.00    -0.000 C 
ATOM     21  C   UNL     1      34.452 -16.611 -20.591  0.00  0.00    -0.000 C 
ATOM     22  C   UNL     1      34.800 -16.096 -23.310  0.00  0.00    -0.000 C 
ATOM     23  C   UNL     1      35.240 -17.461 -21.369  0.00  0.00    -0.000 C 
ATOM     24  C   UNL     1      35.413 -17.204 -22.725  0.00  0.00    -0.000 C 
ENDBRANCH  14  15
ENDBRANCH   8  14
TORSDOF 3
ENDMDL
