MODEL 1
REMARK VINA RESULT:     -11.3      0.000      0.000
REMARK  Name = 456199
REMARK  5 active torsions:
REMARK  status: ('A' for Active; 'I' for Inactive)
REMARK    1  A    between atoms: O_1  and  C_5
REMARK    2  A    between atoms: O_1  and  C_14
REMARK    3  A    between atoms: C_14  and  C_15
REMARK    4  A    between atoms: C_20  and  O_21
REMARK    5  A    between atoms: O_21  and  C_25
REMARK                            x       y       z     vdW  Elec       q    Type
REMARK                         _______ _______ _______ _____ _____    ______ ____
ROOT
ATOM      1  O   UNL     1      33.205 -23.091 -17.251  0.00  0.00    -0.346 OA
ENDROOT
BRANCH   1   5
ATOM      2  O   UNL     1      32.414 -24.389 -13.892  0.00  0.00    -0.438 OA
ATOM      3  N   UNL     1      34.757 -23.990 -14.065  0.00  0.00    -0.242 N 
ATOM      4  N   UNL     1      33.950 -24.819 -12.174  0.00  0.00    -0.333 NA
ATOM      5  C   UNL     1      33.411 -23.879 -16.088  0.00  0.00    +0.179 C 
ATOM      6  C   UNL     1      34.734 -23.506 -15.426  0.00  0.00    +0.130 C 
ATOM      7  C   UNL     1      32.261 -23.645 -15.107  0.00  0.00    +0.241 C 
ATOM      8  C   UNL     1      33.643 -24.390 -13.377  0.00  0.00    +0.345 C 
ATOM      9  C   UNL     1      35.838 -24.151 -13.255  0.00  0.00    +0.181 C 
ATOM     10  C   UNL     1      35.315 -24.664 -12.088  0.00  0.00    +0.274 C 
ATOM     11  O   UNL     1      37.237 -24.860 -10.836  0.00  0.00    -0.124 OA
ATOM     12  O   UNL     1      35.329 -25.471  -9.932  0.00  0.00    -0.124 OA
ATOM     13  N   UNL     1      35.986 -25.012 -10.908  0.00  0.00    +0.085 N 
ENDBRANCH   1   5
BRANCH   1  14
ATOM     14  C   UNL     1      34.164 -23.391 -18.254  0.00  0.00    +0.169 C 
BRANCH  14  15
ATOM     15  C   UNL     1      34.353 -22.186 -19.127  0.00  0.00    +0.007 C 
ATOM     16  C   UNL     1      33.241 -21.504 -19.608  0.00  0.00    +0.001 C 
ATOM     17  C   UNL     1      35.638 -21.762 -19.446  0.00  0.00    +0.001 C 
ATOM     18  C   UNL     1      33.417 -20.382 -20.420  0.00  0.00    +0.037 C 
ATOM     19  C   UNL     1      35.814 -20.641 -20.257  0.00  0.00    +0.037 C 
ATOM     20  C   UNL     1      34.703 -19.951 -20.744  0.00  0.00    +0.147 C 
BRANCH  20  21
ATOM     21  O   UNL     1      34.874 -18.857 -21.536  0.00  0.00    -0.404 OA
BRANCH  21  25
ATOM     22  F   UNL     1      36.755 -18.998 -22.828  0.00  0.00    -0.133 F 
ATOM     23  F   UNL     1      34.961 -18.055 -23.644  0.00  0.00    -0.133 F 
ATOM     24  F   UNL     1      34.997 -20.223 -23.367  0.00  0.00    -0.133 F 
ATOM     25  C   UNL     1      35.407 -19.048 -22.841  0.00  0.00    +0.575 C 
ENDBRANCH  21  25
ENDBRANCH  20  21
ENDBRANCH  14  15
ENDBRANCH   1  14
TORSDOF 5
ENDMDL
MODEL 2
REMARK VINA RESULT:     -10.7      1.224      1.811
REMARK  Name = 456199
REMARK  5 active torsions:
REMARK  status: ('A' for Active; 'I' for Inactive)
REMARK    1  A    between atoms: O_1  and  C_5
REMARK    2  A    between atoms: O_1  and  C_14
REMARK    3  A    between atoms: C_14  and  C_15
REMARK    4  A    between atoms: C_20  and  O_21
REMARK    5  A    between atoms: O_21  and  C_25
REMARK                            x       y       z     vdW  Elec       q    Type
REMARK                         _______ _______ _______ _____ _____    ______ ____
ROOT
ATOM      1  O   UNL     1      35.556 -22.798 -17.012  0.00  0.00    -0.346 OA
ENDROOT
BRANCH   1   5
ATOM      2  O   UNL     1      33.930 -24.814 -14.388  0.00  0.00    -0.438 OA
ATOM      3  N   UNL     1      35.778 -23.629 -13.459  0.00  0.00    -0.242 N 
ATOM      4  N   UNL     1      34.603 -24.977 -12.147  0.00  0.00    -0.333 NA
ATOM      5  C   UNL     1      35.513 -23.649 -15.877  0.00  0.00    +0.179 C 
ATOM      6  C   UNL     1      36.170 -22.967 -14.681  0.00  0.00    +0.130 C 
ATOM      7  C   UNL     1      34.056 -23.978 -15.545  0.00  0.00    +0.241 C 
ATOM      8  C   UNL     1      34.715 -24.486 -13.361  0.00  0.00    +0.345 C 
ATOM      9  C   UNL     1      36.372 -23.548 -12.237  0.00  0.00    +0.181 C 
ATOM     10  C   UNL     1      35.627 -24.389 -11.440  0.00  0.00    +0.274 C 
ATOM     11  O   UNL     1      36.731 -24.128  -9.437  0.00  0.00    -0.124 OA
ATOM     12  O   UNL     1      35.003 -25.483  -9.514  0.00  0.00    -0.124 OA
ATOM     13  N   UNL     1      35.794 -24.678 -10.080  0.00  0.00    +0.085 N 
ENDBRANCH   1   5
BRANCH   1  14
ATOM     14  C   UNL     1      34.349 -22.870 -17.757  0.00  0.00    +0.169 C 
BRANCH  14  15
ATOM     15  C   UNL     1      34.435 -21.924 -18.919  0.00  0.00    +0.007 C 
ATOM     16  C   UNL     1      35.675 -21.613 -19.463  0.00  0.00    +0.001 C 
ATOM     17  C   UNL     1      33.273 -21.367 -19.440  0.00  0.00    +0.001 C 
ATOM     18  C   UNL     1      35.755 -20.734 -20.543  0.00  0.00    +0.037 C 
ATOM     19  C   UNL     1      33.351 -20.488 -20.519  0.00  0.00    +0.037 C 
ATOM     20  C   UNL     1      34.593 -20.171 -21.071  0.00  0.00    +0.147 C 
BRANCH  20  21
ATOM     21  O   UNL     1      34.671 -19.313 -22.125  0.00  0.00    -0.404 OA
BRANCH  21  25
ATOM     22  F   UNL     1      34.867 -17.146 -22.830  0.00  0.00    -0.133 F 
ATOM     23  F   UNL     1      36.625 -18.185 -22.051  0.00  0.00    -0.133 F 
ATOM     24  F   UNL     1      35.040 -17.585 -20.671  0.00  0.00    -0.133 F 
ATOM     25  C   UNL     1      35.286 -18.047 -21.917  0.00  0.00    +0.575 C 
ENDBRANCH  21  25
ENDBRANCH  20  21
ENDBRANCH  14  15
ENDBRANCH   1  14
TORSDOF 5
ENDMDL
MODEL 3
REMARK VINA RESULT:     -10.5      1.481      2.272
REMARK  Name = 456199
REMARK  5 active torsions:
REMARK  status: ('A' for Active; 'I' for Inactive)
REMARK    1  A    between atoms: O_1  and  C_5
REMARK    2  A    between atoms: O_1  and  C_14
REMARK    3  A    between atoms: C_14  and  C_15
REMARK    4  A    between atoms: C_20  and  O_21
REMARK    5  A    between atoms: O_21  and  C_25
REMARK                            x       y       z     vdW  Elec       q    Type
REMARK                         _______ _______ _______ _____ _____    ______ ____
ROOT
ATOM      1  O   UNL     1      34.432 -23.638 -17.226  0.00  0.00    -0.346 OA
ENDROOT
BRANCH   1   5
ATOM      2  O   UNL     1      36.658 -22.696 -14.442  0.00  0.00    -0.438 OA
ATOM      3  N   UNL     1      35.065 -24.299 -13.686  0.00  0.00    -0.242 N 
ATOM      4  N   UNL     1      36.534 -23.488 -12.238  0.00  0.00    -0.333 NA
ATOM      5  C   UNL     1      34.754 -23.304 -15.884  0.00  0.00    +0.179 C 
ATOM      6  C   UNL     1      34.387 -24.455 -14.952  0.00  0.00    +0.130 C 
ATOM      7  C   UNL     1      36.252 -23.015 -15.778  0.00  0.00    +0.241 C 
ATOM      8  C   UNL     1      36.133 -23.466 -13.489  0.00  0.00    +0.345 C 
ATOM      9  C   UNL     1      34.774 -24.905 -12.503  0.00  0.00    +0.181 C 
ATOM     10  C   UNL     1      35.698 -24.389 -11.621  0.00  0.00    +0.274 C 
ATOM     11  O   UNL     1      35.093 -25.509  -9.703  0.00  0.00    -0.124 OA
ATOM     12  O   UNL     1      36.773 -24.097  -9.607  0.00  0.00    -0.124 OA
ATOM     13  N   UNL     1      35.860 -24.676 -10.259  0.00  0.00    +0.085 N 
ENDBRANCH   1   5
BRANCH   1  14
ATOM     14  C   UNL     1      33.369 -22.835 -17.717  0.00  0.00    +0.169 C 
BRANCH  14  15
ATOM     15  C   UNL     1      33.881 -21.979 -18.838  0.00  0.00    +0.007 C 
ATOM     16  C   UNL     1      35.240 -21.968 -19.130  0.00  0.00    +0.001 C 
ATOM     17  C   UNL     1      32.991 -21.204 -19.573  0.00  0.00    +0.001 C 
ATOM     18  C   UNL     1      35.716 -21.172 -20.173  0.00  0.00    +0.037 C 
ATOM     19  C   UNL     1      33.466 -20.407 -20.615  0.00  0.00    +0.037 C 
ATOM     20  C   UNL     1      34.829 -20.392 -20.914  0.00  0.00    +0.147 C 
BRANCH  20  21
ATOM     21  O   UNL     1      35.293 -19.614 -21.931  0.00  0.00    -0.404 OA
BRANCH  21  25
ATOM     22  F   UNL     1      35.877 -17.517 -22.633  0.00  0.00    -0.133 F 
ATOM     23  F   UNL     1      37.233 -18.629 -21.328  0.00  0.00    -0.133 F 
ATOM     24  F   UNL     1      35.374 -17.829 -20.503  0.00  0.00    -0.133 F 
ATOM     25  C   UNL     1      35.931 -18.386 -21.601  0.00  0.00    +0.575 C 
ENDBRANCH  21  25
ENDBRANCH  20  21
ENDBRANCH  14  15
ENDBRANCH   1  14
TORSDOF 5
ENDMDL
MODEL 4
REMARK VINA RESULT:     -10.4      5.558      6.940
REMARK  Name = 456199
REMARK  5 active torsions:
REMARK  status: ('A' for Active; 'I' for Inactive)
REMARK    1  A    between atoms: O_1  and  C_5
REMARK    2  A    between atoms: O_1  and  C_14
REMARK    3  A    between atoms: C_14  and  C_15
REMARK    4  A    between atoms: C_20  and  O_21
REMARK    5  A    between atoms: O_21  and  C_25
REMARK                            x       y       z     vdW  Elec       q    Type
REMARK                         _______ _______ _______ _____ _____    ______ ____
ROOT
ATOM      1  O   UNL     1      33.686 -24.327 -12.917  0.00  0.00    -0.346 OA
ENDROOT
BRANCH   1   5
ATOM      2  O   UNL     1      36.809 -25.612 -11.439  0.00  0.00    -0.438 OA
ATOM      3  N   UNL     1      37.074 -25.380 -13.796  0.00  0.00    -0.242 N 
ATOM      4  N   UNL     1      38.765 -26.175 -12.603  0.00  0.00    -0.333 NA
ATOM      5  C   UNL     1      34.845 -25.144 -12.853  0.00  0.00    +0.179 C 
ATOM      6  C   UNL     1      35.745 -24.876 -14.054  0.00  0.00    +0.130 C 
ATOM      7  C   UNL     1      35.607 -24.842 -11.562  0.00  0.00    +0.241 C 
ATOM      8  C   UNL     1      37.538 -25.708 -12.551  0.00  0.00    +0.345 C 
ATOM      9  C   UNL     1      38.063 -25.629 -14.697  0.00  0.00    +0.181 C 
ATOM     10  C   UNL     1      39.101 -26.120 -13.936  0.00  0.00    +0.274 C 
ATOM     11  O   UNL     1      40.675 -26.470 -15.580  0.00  0.00    -0.124 OA
ATOM     12  O   UNL     1      41.201 -26.957 -13.502  0.00  0.00    -0.124 OA
ATOM     13  N   UNL     1      40.373 -26.531 -14.355  0.00  0.00    +0.085 N 
ENDBRANCH   1   5
BRANCH   1  14
ATOM     14  C   UNL     1      32.511 -25.109 -13.071  0.00  0.00    +0.169 C 
BRANCH  14  15
ATOM     15  C   UNL     1      31.573 -24.403 -14.006  0.00  0.00    +0.007 C 
ATOM     16  C   UNL     1      31.994 -24.085 -15.292  0.00  0.00    +0.001 C 
ATOM     17  C   UNL     1      30.292 -24.075 -13.578  0.00  0.00    +0.001 C 
ATOM     18  C   UNL     1      31.122 -23.428 -16.162  0.00  0.00    +0.037 C 
ATOM     19  C   UNL     1      29.420 -23.419 -14.446  0.00  0.00    +0.037 C 
ATOM     20  C   UNL     1      29.835 -23.096 -15.738  0.00  0.00    +0.147 C 
BRANCH  20  21
ATOM     21  O   UNL     1      28.985 -22.456 -16.587  0.00  0.00    -0.404 OA
BRANCH  21  25
ATOM     22  F   UNL     1      27.717 -24.347 -16.803  0.00  0.00    -0.133 F 
ATOM     23  F   UNL     1      27.193 -22.565 -17.956  0.00  0.00    -0.133 F 
ATOM     24  F   UNL     1      26.842 -22.584 -15.798  0.00  0.00    -0.133 F 
ATOM     25  C   UNL     1      27.683 -22.998 -16.771  0.00  0.00    +0.575 C 
ENDBRANCH  21  25
ENDBRANCH  20  21
ENDBRANCH  14  15
ENDBRANCH   1  14
TORSDOF 5
ENDMDL
MODEL 5
REMARK VINA RESULT:     -10.2      2.507      2.908
REMARK  Name = 456199
REMARK  5 active torsions:
REMARK  status: ('A' for Active; 'I' for Inactive)
REMARK    1  A    between atoms: O_1  and  C_5
REMARK    2  A    between atoms: O_1  and  C_14
REMARK    3  A    between atoms: C_14  and  C_15
REMARK    4  A    between atoms: C_20  and  O_21
REMARK    5  A    between atoms: O_21  and  C_25
REMARK                            x       y       z     vdW  Elec       q    Type
REMARK                         _______ _______ _______ _____ _____    ______ ____
ROOT
ATOM      1  O   UNL     1      33.972 -22.822 -16.446  0.00  0.00    -0.346 OA
ENDROOT
BRANCH   1   5
ATOM      2  O   UNL     1      35.382 -25.600 -14.475  0.00  0.00    -0.438 OA
ATOM      3  N   UNL     1      37.140 -24.172 -15.218  0.00  0.00    -0.242 N 
ATOM      4  N   UNL     1      37.655 -25.974 -14.034  0.00  0.00    -0.333 NA
ATOM      5  C   UNL     1      34.911 -23.840 -16.135  0.00  0.00    +0.179 C 
ATOM      6  C   UNL     1      36.293 -23.232 -15.916  0.00  0.00    +0.130 C 
ATOM      7  C   UNL     1      34.465 -24.572 -14.869  0.00  0.00    +0.241 C 
ATOM      8  C   UNL     1      36.672 -25.270 -14.547  0.00  0.00    +0.345 C 
ATOM      9  C   UNL     1      38.496 -24.157 -15.115  0.00  0.00    +0.181 C 
ATOM     10  C   UNL     1      38.794 -25.281 -14.376  0.00  0.00    +0.274 C 
ATOM     11  O   UNL     1      41.087 -25.104 -14.278  0.00  0.00    -0.124 OA
ATOM     12  O   UNL     1      40.123 -26.812 -13.286  0.00  0.00    -0.124 OA
ATOM     13  N   UNL     1      40.048 -25.750 -13.965  0.00  0.00    +0.085 N 
ENDBRANCH   1   5
BRANCH   1  14
ATOM     14  C   UNL     1      33.286 -23.105 -17.656  0.00  0.00    +0.169 C 
BRANCH  14  15
ATOM     15  C   UNL     1      33.782 -22.179 -18.727  0.00  0.00    +0.007 C 
ATOM     16  C   UNL     1      32.884 -21.358 -19.398  0.00  0.00    +0.001 C 
ATOM     17  C   UNL     1      35.137 -22.152 -19.039  0.00  0.00    +0.001 C 
ATOM     18  C   UNL     1      33.346 -20.497 -20.394  0.00  0.00    +0.037 C 
ATOM     19  C   UNL     1      35.600 -21.291 -20.035  0.00  0.00    +0.037 C 
ATOM     20  C   UNL     1      34.704 -20.464 -20.712  0.00  0.00    +0.147 C 
BRANCH  20  21
ATOM     21  O   UNL     1      35.154 -19.624 -21.684  0.00  0.00    -0.404 OA
BRANCH  21  25
ATOM     22  F   UNL     1      34.831 -17.644 -20.586  0.00  0.00    -0.133 F 
ATOM     23  F   UNL     1      36.052 -17.680 -22.398  0.00  0.00    -0.133 F 
ATOM     24  F   UNL     1      36.841 -18.562 -20.561  0.00  0.00    -0.133 F 
ATOM     25  C   UNL     1      35.718 -18.379 -21.289  0.00  0.00    +0.575 C 
ENDBRANCH  21  25
ENDBRANCH  20  21
ENDBRANCH  14  15
ENDBRANCH   1  14
TORSDOF 5
ENDMDL
MODEL 6
REMARK VINA RESULT:     -10.1      6.406     11.005
REMARK  Name = 456199
REMARK  5 active torsions:
REMARK  status: ('A' for Active; 'I' for Inactive)
REMARK    1  A    between atoms: O_1  and  C_5
REMARK    2  A    between atoms: O_1  and  C_14
REMARK    3  A    between atoms: C_14  and  C_15
REMARK    4  A    between atoms: C_20  and  O_21
REMARK    5  A    between atoms: O_21  and  C_25
REMARK                            x       y       z     vdW  Elec       q    Type
REMARK                         _______ _______ _______ _____ _____    ______ ____
ROOT
ATOM      1  O   UNL     1      35.340 -18.283 -20.555  0.00  0.00    -0.346 OA
ENDROOT
BRANCH   1   5
ATOM      2  O   UNL     1      34.910 -16.877 -23.936  0.00  0.00    -0.438 OA
ATOM      3  N   UNL     1      34.559 -15.171 -22.308  0.00  0.00    -0.242 N 
ATOM      4  N   UNL     1      34.332 -14.664 -24.454  0.00  0.00    -0.333 NA
ATOM      5  C   UNL     1      34.730 -17.477 -21.552  0.00  0.00    +0.179 C 
ATOM      6  C   UNL     1      34.796 -16.006 -21.153  0.00  0.00    +0.130 C 
ATOM      7  C   UNL     1      35.454 -17.682 -22.883  0.00  0.00    +0.241 C 
ATOM      8  C   UNL     1      34.628 -15.618 -23.600  0.00  0.00    +0.345 C 
ATOM      9  C   UNL     1      34.220 -13.854 -22.331  0.00  0.00    +0.181 C 
ATOM     10  C   UNL     1      34.086 -13.560 -23.670  0.00  0.00    +0.274 C 
ATOM     11  O   UNL     1      33.537 -11.328 -23.541  0.00  0.00    -0.124 OA
ATOM     12  O   UNL     1      33.678 -12.261 -25.526  0.00  0.00    -0.124 OA
ATOM     13  N   UNL     1      33.754 -12.337 -24.267  0.00  0.00    +0.085 N 
ENDBRANCH   1   5
BRANCH   1  14
ATOM     14  C   UNL     1      35.744 -19.538 -21.082  0.00  0.00    +0.169 C 
BRANCH  14  15
ATOM     15  C   UNL     1      35.075 -20.633 -20.304  0.00  0.00    +0.007 C 
ATOM     16  C   UNL     1      35.849 -21.582 -19.648  0.00  0.00    +0.001 C 
ATOM     17  C   UNL     1      33.687 -20.687 -20.247  0.00  0.00    +0.001 C 
ATOM     18  C   UNL     1      35.227 -22.600 -18.924  0.00  0.00    +0.037 C 
ATOM     19  C   UNL     1      33.064 -21.705 -19.524  0.00  0.00    +0.037 C 
ATOM     20  C   UNL     1      33.835 -22.661 -18.862  0.00  0.00    +0.147 C 
BRANCH  20  21
ATOM     21  O   UNL     1      33.228 -23.654 -18.156  0.00  0.00    -0.404 OA
BRANCH  21  25
ATOM     22  F   UNL     1      33.824 -22.831 -16.107  0.00  0.00    -0.133 F 
ATOM     23  F   UNL     1      32.466 -24.540 -16.225  0.00  0.00    -0.133 F 
ATOM     24  F   UNL     1      31.744 -22.559 -16.803  0.00  0.00    -0.133 F 
ATOM     25  C   UNL     1      32.818 -23.378 -16.822  0.00  0.00    +0.575 C 
ENDBRANCH  21  25
ENDBRANCH  20  21
ENDBRANCH  14  15
ENDBRANCH   1  14
TORSDOF 5
ENDMDL
MODEL 7
REMARK VINA RESULT:     -10.0      6.265     11.002
REMARK  Name = 456199
REMARK  5 active torsions:
REMARK  status: ('A' for Active; 'I' for Inactive)
REMARK    1  A    between atoms: O_1  and  C_5
REMARK    2  A    between atoms: O_1  and  C_14
REMARK    3  A    between atoms: C_14  and  C_15
REMARK    4  A    between atoms: C_20  and  O_21
REMARK    5  A    between atoms: O_21  and  C_25
REMARK                            x       y       z     vdW  Elec       q    Type
REMARK                         _______ _______ _______ _____ _____    ______ ____
ROOT
ATOM      1  O   UNL     1      35.549 -18.566 -20.639  0.00  0.00    -0.346 OA
ENDROOT
BRANCH   1   5
ATOM      2  O   UNL     1      34.394 -15.166 -21.475  0.00  0.00    -0.438 OA
ATOM      3  N   UNL     1      34.614 -16.451 -23.470  0.00  0.00    -0.242 N 
ATOM      4  N   UNL     1      33.974 -14.334 -23.627  0.00  0.00    -0.333 NA
ATOM      5  C   UNL     1      35.500 -17.368 -21.399  0.00  0.00    +0.179 C 
ATOM      6  C   UNL     1      35.051 -17.668 -22.826  0.00  0.00    +0.130 C 
ATOM      7  C   UNL     1      34.519 -16.393 -20.746  0.00  0.00    +0.241 C 
ATOM      8  C   UNL     1      34.308 -15.298 -22.799  0.00  0.00    +0.345 C 
ATOM      9  C   UNL     1      34.447 -16.225 -24.801  0.00  0.00    +0.181 C 
ATOM     10  C   UNL     1      34.049 -14.908 -24.876  0.00  0.00    +0.274 C 
ATOM     11  O   UNL     1      33.797 -14.690 -27.153  0.00  0.00    -0.124 OA
ATOM     12  O   UNL     1      33.383 -12.947 -25.880  0.00  0.00    -0.124 OA
ATOM     13  N   UNL     1      33.732 -14.154 -26.013  0.00  0.00    +0.085 N 
ENDBRANCH   1   5
BRANCH   1  14
ATOM     14  C   UNL     1      34.817 -19.607 -21.268  0.00  0.00    +0.169 C 
BRANCH  14  15
ATOM     15  C   UNL     1      34.566 -20.700 -20.270  0.00  0.00    +0.007 C 
ATOM     16  C   UNL     1      35.635 -21.434 -19.771  0.00  0.00    +0.001 C 
ATOM     17  C   UNL     1      33.266 -20.968 -19.856  0.00  0.00    +0.001 C 
ATOM     18  C   UNL     1      35.402 -22.450 -18.843  0.00  0.00    +0.037 C 
ATOM     19  C   UNL     1      33.032 -21.984 -18.929  0.00  0.00    +0.037 C 
ATOM     20  C   UNL     1      34.100 -22.724 -18.423  0.00  0.00    +0.147 C 
BRANCH  20  21
ATOM     21  O   UNL     1      33.873 -23.716 -17.518  0.00  0.00    -0.404 OA
BRANCH  21  25
ATOM     22  F   UNL     1      35.190 -22.547 -16.060  0.00  0.00    -0.133 F 
ATOM     23  F   UNL     1      34.690 -24.629 -15.622  0.00  0.00    -0.133 F 
ATOM     24  F   UNL     1      33.141 -23.097 -15.441  0.00  0.00    -0.133 F 
ATOM     25  C   UNL     1      34.220 -23.479 -16.159  0.00  0.00    +0.575 C 
ENDBRANCH  21  25
ENDBRANCH  20  21
ENDBRANCH  14  15
ENDBRANCH   1  14
TORSDOF 5
ENDMDL
MODEL 8
REMARK VINA RESULT:      -9.8      6.444     10.504
REMARK  Name = 456199
REMARK  5 active torsions:
REMARK  status: ('A' for Active; 'I' for Inactive)
REMARK    1  A    between atoms: O_1  and  C_5
REMARK    2  A    between atoms: O_1  and  C_14
REMARK    3  A    between atoms: C_14  and  C_15
REMARK    4  A    between atoms: C_20  and  O_21
REMARK    5  A    between atoms: O_21  and  C_25
REMARK                            x       y       z     vdW  Elec       q    Type
REMARK                         _______ _______ _______ _____ _____    ______ ____
ROOT
ATOM      1  O   UNL     1      35.282 -17.607 -20.650  0.00  0.00    -0.346 OA
ENDROOT
BRANCH   1   5
ATOM      2  O   UNL     1      33.877 -14.983 -22.823  0.00  0.00    -0.438 OA
ATOM      3  N   UNL     1      33.145 -14.642 -20.581  0.00  0.00    -0.242 N 
ATOM      4  N   UNL     1      32.440 -13.252 -22.158  0.00  0.00    -0.333 NA
ATOM      5  C   UNL     1      34.278 -16.724 -21.126  0.00  0.00    +0.179 C 
ATOM      6  C   UNL     1      33.842 -15.774 -20.015  0.00  0.00    +0.130 C 
ATOM      7  C   UNL     1      34.828 -15.920 -22.304  0.00  0.00    +0.241 C 
ATOM      8  C   UNL     1      33.192 -14.300 -21.905  0.00  0.00    +0.345 C 
ATOM      9  C   UNL     1      32.335 -13.755 -19.942  0.00  0.00    +0.181 C 
ATOM     10  C   UNL     1      31.911 -12.903 -20.937  0.00  0.00    +0.274 C 
ATOM     11  O   UNL     1      30.586 -11.476 -19.708  0.00  0.00    -0.124 OA
ATOM     12  O   UNL     1      30.784 -11.126 -21.869  0.00  0.00    -0.124 OA
ATOM     13  N   UNL     1      31.061 -11.794 -20.834  0.00  0.00    +0.085 N 
ENDBRANCH   1   5
BRANCH   1  14
ATOM     14  C   UNL     1      35.421 -18.737 -21.498  0.00  0.00    +0.169 C 
BRANCH  14  15
ATOM     15  C   UNL     1      34.984 -19.964 -20.754  0.00  0.00    +0.007 C 
ATOM     16  C   UNL     1      35.938 -20.849 -20.265  0.00  0.00    +0.001 C 
ATOM     17  C   UNL     1      33.629 -20.205 -20.561  0.00  0.00    +0.001 C 
ATOM     18  C   UNL     1      35.532 -21.990 -19.573  0.00  0.00    +0.037 C 
ATOM     19  C   UNL     1      33.222 -21.347 -19.869  0.00  0.00    +0.037 C 
ATOM     20  C   UNL     1      34.174 -22.238 -19.375  0.00  0.00    +0.147 C 
BRANCH  20  21
ATOM     21  O   UNL     1      33.778 -23.352 -18.700  0.00  0.00    -0.404 OA
BRANCH  21  25
ATOM     22  F   UNL     1      34.534 -22.608 -16.675  0.00  0.00    -0.133 F 
ATOM     23  F   UNL     1      33.411 -24.480 -16.779  0.00  0.00    -0.133 F 
ATOM     24  F   UNL     1      32.361 -22.586 -17.076  0.00  0.00    -0.133 F 
ATOM     25  C   UNL     1      33.522 -23.238 -17.306  0.00  0.00    +0.575 C 
ENDBRANCH  21  25
ENDBRANCH  20  21
ENDBRANCH  14  15
ENDBRANCH   1  14
TORSDOF 5
ENDMDL
MODEL 9
REMARK VINA RESULT:      -9.6      5.765      7.204
REMARK  Name = 456199
REMARK  5 active torsions:
REMARK  status: ('A' for Active; 'I' for Inactive)
REMARK    1  A    between atoms: O_1  and  C_5
REMARK    2  A    between atoms: O_1  and  C_14
REMARK    3  A    between atoms: C_14  and  C_15
REMARK    4  A    between atoms: C_20  and  O_21
REMARK    5  A    between atoms: O_21  and  C_25
REMARK                            x       y       z     vdW  Elec       q    Type
REMARK                         _______ _______ _______ _____ _____    ______ ____
ROOT
ATOM      1  O   UNL     1      33.558 -24.246 -12.767  0.00  0.00    -0.346 OA
ENDROOT
BRANCH   1   5
ATOM      2  O   UNL     1      36.611 -23.227 -14.564  0.00  0.00    -0.438 OA
ATOM      3  N   UNL     1      37.043 -25.207 -13.309  0.00  0.00    -0.242 N 
ATOM      4  N   UNL     1      38.694 -24.301 -14.479  0.00  0.00    -0.333 NA
ATOM      5  C   UNL     1      34.951 -24.026 -12.927  0.00  0.00    +0.179 C 
ATOM      6  C   UNL     1      35.714 -25.337 -12.759  0.00  0.00    +0.130 C 
ATOM      7  C   UNL     1      35.217 -23.451 -14.318  0.00  0.00    +0.241 C 
ATOM      8  C   UNL     1      37.423 -24.204 -14.160  0.00  0.00    +0.345 C 
ATOM      9  C   UNL     1      38.121 -26.005 -13.085  0.00  0.00    +0.181 C 
ATOM     10  C   UNL     1      39.133 -25.427 -13.820  0.00  0.00    +0.274 C 
ATOM     11  O   UNL     1      40.854 -26.882 -13.354  0.00  0.00    -0.124 OA
ATOM     12  O   UNL     1      41.252 -25.178 -14.683  0.00  0.00    -0.124 OA
ATOM     13  N   UNL     1      40.463 -25.845 -13.957  0.00  0.00    +0.085 N 
ENDBRANCH   1   5
BRANCH   1  14
ATOM     14  C   UNL     1      33.112 -25.334 -13.562  0.00  0.00    +0.169 C 
BRANCH  14  15
ATOM     15  C   UNL     1      31.769 -24.999 -14.141  0.00  0.00    +0.007 C 
ATOM     16  C   UNL     1      30.630 -25.614 -13.636  0.00  0.00    +0.001 C 
ATOM     17  C   UNL     1      31.677 -24.076 -15.177  0.00  0.00    +0.001 C 
ATOM     18  C   UNL     1      29.380 -25.302 -14.173  0.00  0.00    +0.037 C 
ATOM     19  C   UNL     1      30.428 -23.764 -15.715  0.00  0.00    +0.037 C 
ATOM     20  C   UNL     1      29.280 -24.377 -15.213  0.00  0.00    +0.147 C 
BRANCH  20  21
ATOM     21  O   UNL     1      28.061 -24.074 -15.737  0.00  0.00    -0.404 OA
BRANCH  21  25
ATOM     22  F   UNL     1      28.241 -22.082 -14.627  0.00  0.00    -0.133 F 
ATOM     23  F   UNL     1      26.274 -22.772 -15.281  0.00  0.00    -0.133 F 
ATOM     24  F   UNL     1      27.707 -22.064 -16.772  0.00  0.00    -0.133 F 
ATOM     25  C   UNL     1      27.586 -22.739 -15.607  0.00  0.00    +0.575 C 
ENDBRANCH  21  25
ENDBRANCH  20  21
ENDBRANCH  14  15
ENDBRANCH   1  14
TORSDOF 5
ENDMDL
