MODEL 1
REMARK VINA RESULT:     -11.1      0.000      0.000
REMARK  Name = 24995524
REMARK  4 active torsions:
REMARK  status: ('A' for Active; 'I' for Inactive)
REMARK    1  A    between atoms: N_5  and  C_13
REMARK    2  A    between atoms: C_6  and  C_19
REMARK    3  A    between atoms: C_19  and  C_20
REMARK    4  A    between atoms: C_20  and  N_22
REMARK                            x       y       z     vdW  Elec       q    Type
REMARK                         _______ _______ _______ _____ _____    ______ ____
ROOT
ATOM      1  S   UNL     1      34.444 -21.841 -19.398  0.00  0.00    -0.056 S 
ATOM      2  O   UNL     1      37.414 -23.010 -15.990  0.00  0.00    -0.252 OA
ATOM      3  N   UNL     1      36.818 -21.422 -18.466  0.00  0.00    -0.223 NA
ATOM      4  N   UNL     1      35.437 -22.985 -17.259  0.00  0.00    -0.248 N 
ATOM      5  N   UNL     1      35.596 -24.342 -15.365  0.00  0.00    -0.268 N 
ATOM      6  C   UNL     1      35.451 -20.734 -20.235  0.00  0.00    +0.031 C 
ATOM      7  C   UNL     1      36.669 -20.641 -19.596  0.00  0.00    +0.103 C 
ATOM      8  C   UNL     1      35.708 -22.097 -18.266  0.00  0.00    +0.166 C 
ATOM      9  C   UNL     1      36.270 -23.412 -16.174  0.00  0.00    +0.310 C 
ATOM     10  H   UNL     1      34.540 -23.389 -17.285  0.00  0.00    +0.158 HD
ATOM     11  H   UNL     1      34.678 -24.567 -15.640  0.00  0.00    +0.156 HD
ENDROOT
BRANCH   5  13
ATOM     12 CL   UNL     1      35.636 -24.667 -10.241  0.00  0.00    -0.082 Cl
ATOM     13  C   UNL     1      36.074 -24.993 -14.204  0.00  0.00    +0.052 C 
ATOM     14  C   UNL     1      35.666 -24.559 -12.943  0.00  0.00    +0.026 C 
ATOM     15  C   UNL     1      36.955 -26.069 -14.321  0.00  0.00    +0.015 C 
ATOM     16  C   UNL     1      36.139 -25.202 -11.798  0.00  0.00    +0.059 C 
ATOM     17  C   UNL     1      37.427 -26.711 -13.177  0.00  0.00    +0.002 C 
ATOM     18  C   UNL     1      37.019 -26.277 -11.916  0.00  0.00    +0.011 C 
ENDBRANCH   5  13
BRANCH   6  19
ATOM     19  C   UNL     1      34.955 -20.033 -21.477  0.00  0.00    +0.056 C 
BRANCH  19  20
ATOM     20  C   UNL     1      35.908 -18.947 -21.972  0.00  0.00    +0.093 C 
BRANCH  20  22
ATOM     21  S   UNL     1      34.119 -14.746 -21.140  0.00  0.00    -0.101 S 
ATOM     22  N   UNL     1      35.344 -17.644 -21.783  0.00  0.00    -0.320 N 
ATOM     23  N   UNL     1      34.873 -17.354 -24.097  0.00  0.00    -0.233 NA
ATOM     24  N   UNL     1      33.834 -15.349 -24.968  0.00  0.00    -0.247 NA
ATOM     25  C   UNL     1      34.835 -16.868 -22.841  0.00  0.00    +0.118 C 
ATOM     26  C   UNL     1      34.295 -15.607 -22.614  0.00  0.00    +0.145 C 
ATOM     27  C   UNL     1      33.804 -14.873 -23.694  0.00  0.00    +0.073 C 
ATOM     28  C   UNL     1      33.288 -13.607 -23.286  0.00  0.00    +0.022 C 
ATOM     29  C   UNL     1      33.398 -13.412 -21.927  0.00  0.00    +0.033 C 
ATOM     30  C   UNL     1      34.375 -16.573 -25.074  0.00  0.00    +0.251 C 
ATOM     31  H   UNL     1      35.310 -17.275 -20.871  0.00  0.00    +0.148 HD
ENDBRANCH  20  22
ENDBRANCH  19  20
ENDBRANCH   6  19
TORSDOF 4
ENDMDL
MODEL 2
REMARK VINA RESULT:     -10.9      1.665      2.074
REMARK  Name = 24995524
REMARK  4 active torsions:
REMARK  status: ('A' for Active; 'I' for Inactive)
REMARK    1  A    between atoms: N_5  and  C_13
REMARK    2  A    between atoms: C_6  and  C_19
REMARK    3  A    between atoms: C_19  and  C_20
REMARK    4  A    between atoms: C_20  and  N_22
REMARK                            x       y       z     vdW  Elec       q    Type
REMARK                         _______ _______ _______ _____ _____    ______ ____
ROOT
ATOM      1  S   UNL     1      36.453 -21.105 -19.560  0.00  0.00    -0.056 S 
ATOM      2  O   UNL     1      35.227 -23.674 -15.859  0.00  0.00    -0.252 OA
ATOM      3  N   UNL     1      34.446 -22.199 -18.353  0.00  0.00    -0.223 NA
ATOM      4  N   UNL     1      36.615 -22.499 -17.346  0.00  0.00    -0.248 N 
ATOM      5  N   UNL     1      37.530 -23.553 -15.474  0.00  0.00    -0.268 N 
ATOM      6  C   UNL     1      34.896 -20.909 -20.252  0.00  0.00    +0.031 C 
ATOM      7  C   UNL     1      33.959 -21.556 -19.475  0.00  0.00    +0.103 C 
ATOM      8  C   UNL     1      35.749 -22.029 -18.297  0.00  0.00    +0.166 C 
ATOM      9  C   UNL     1      36.346 -23.289 -16.181  0.00  0.00    +0.310 C 
ATOM     10  H   UNL     1      37.560 -22.261 -17.484  0.00  0.00    +0.158 HD
ATOM     11  H   UNL     1      38.355 -23.176 -15.858  0.00  0.00    +0.156 HD
ENDROOT
BRANCH   5  13
ATOM     12 CL   UNL     1      36.419 -24.088 -10.490  0.00  0.00    -0.082 Cl
ATOM     13  C   UNL     1      37.684 -24.294 -14.280  0.00  0.00    +0.052 C 
ATOM     14  C   UNL     1      37.049 -23.874 -13.111  0.00  0.00    +0.026 C 
ATOM     15  C   UNL     1      38.472 -25.446 -14.270  0.00  0.00    +0.015 C 
ATOM     16  C   UNL     1      37.202 -24.606 -11.933  0.00  0.00    +0.059 C 
ATOM     17  C   UNL     1      38.625 -26.177 -13.093  0.00  0.00    +0.002 C 
ATOM     18  C   UNL     1      37.989 -25.757 -11.925  0.00  0.00    +0.011 C 
ENDBRANCH   5  13
BRANCH   6  19
ATOM     19  C   UNL     1      34.716 -20.119 -21.525  0.00  0.00    +0.056 C 
BRANCH  19  20
ATOM     20  C   UNL     1      35.665 -18.926 -21.630  0.00  0.00    +0.093 C 
BRANCH  20  22
ATOM     21  S   UNL     1      34.231 -16.062 -24.988  0.00  0.00    -0.101 S 
ATOM     22  N   UNL     1      35.210 -17.994 -22.618  0.00  0.00    -0.320 N 
ATOM     23  N   UNL     1      34.761 -16.293 -21.016  0.00  0.00    -0.233 NA
ATOM     24  N   UNL     1      33.889 -14.123 -21.639  0.00  0.00    -0.247 NA
ATOM     25  C   UNL     1      34.766 -16.697 -22.302  0.00  0.00    +0.118 C 
ATOM     26  C   UNL     1      34.333 -15.823 -23.292  0.00  0.00    +0.145 C 
ATOM     27  C   UNL     1      33.901 -14.546 -22.932  0.00  0.00    +0.073 C 
ATOM     28  C   UNL     1      33.491 -13.783 -24.065  0.00  0.00    +0.022 C 
ATOM     29  C   UNL     1      33.620 -14.486 -25.242  0.00  0.00    +0.033 C 
ATOM     30  C   UNL     1      34.327 -15.044 -20.765  0.00  0.00    +0.251 C 
ATOM     31  H   UNL     1      35.207 -18.275 -23.562  0.00  0.00    +0.148 HD
ENDBRANCH  20  22
ENDBRANCH  19  20
ENDBRANCH   6  19
TORSDOF 4
ENDMDL
MODEL 3
REMARK VINA RESULT:     -10.8      3.082      3.464
REMARK  Name = 24995524
REMARK  4 active torsions:
REMARK  status: ('A' for Active; 'I' for Inactive)
REMARK    1  A    between atoms: N_5  and  C_13
REMARK    2  A    between atoms: C_6  and  C_19
REMARK    3  A    between atoms: C_19  and  C_20
REMARK    4  A    between atoms: C_20  and  N_22
REMARK                            x       y       z     vdW  Elec       q    Type
REMARK                         _______ _______ _______ _____ _____    ______ ____
ROOT
ATOM      1  S   UNL     1      33.215 -20.522 -20.632  0.00  0.00    -0.056 S 
ATOM      2  O   UNL     1      34.206 -23.207 -16.943  0.00  0.00    -0.252 OA
ATOM      3  N   UNL     1      35.146 -21.624 -19.313  0.00  0.00    -0.223 NA
ATOM      4  N   UNL     1      32.913 -22.001 -18.490  0.00  0.00    -0.248 N 
ATOM      5  N   UNL     1      31.877 -23.143 -16.735  0.00  0.00    -0.268 N 
ATOM      6  C   UNL     1      34.817 -20.272 -21.193  0.00  0.00    +0.031 C 
ATOM      7  C   UNL     1      35.704 -20.932 -20.370  0.00  0.00    +0.103 C 
ATOM      8  C   UNL     1      33.840 -21.478 -19.351  0.00  0.00    +0.166 C 
ATOM      9  C   UNL     1      33.107 -22.830 -17.337  0.00  0.00    +0.310 C 
ATOM     10  H   UNL     1      31.976 -21.774 -18.691  0.00  0.00    +0.158 HD
ATOM     11  H   UNL     1      31.077 -22.766 -17.168  0.00  0.00    +0.156 HD
ENDROOT
BRANCH   5  13
ATOM     12 CL   UNL     1      28.680 -26.140 -14.060  0.00  0.00    -0.082 Cl
ATOM     13  C   UNL     1      31.647 -23.932 -15.584  0.00  0.00    +0.052 C 
ATOM     14  C   UNL     1      30.420 -24.572 -15.411  0.00  0.00    +0.026 C 
ATOM     15  C   UNL     1      32.648 -24.070 -14.622  0.00  0.00    +0.015 C 
ATOM     16  C   UNL     1      30.195 -25.350 -14.275  0.00  0.00    +0.059 C 
ATOM     17  C   UNL     1      32.422 -24.847 -13.487  0.00  0.00    +0.002 C 
ATOM     18  C   UNL     1      31.195 -25.487 -13.314  0.00  0.00    +0.011 C 
ENDBRANCH   5  13
BRANCH   6  19
ATOM     19  C   UNL     1      35.078 -19.434 -22.421  0.00  0.00    +0.056 C 
BRANCH  19  20
ATOM     20  C   UNL     1      35.884 -18.171 -22.124  0.00  0.00    +0.093 C 
BRANCH  20  22
ATOM     21  S   UNL     1      33.182 -14.898 -20.246  0.00  0.00    -0.101 S 
ATOM     22  N   UNL     1      35.041 -17.134 -21.608  0.00  0.00    -0.320 N 
ATOM     23  N   UNL     1      34.683 -16.160 -23.749  0.00  0.00    -0.233 NA
ATOM     24  N   UNL     1      33.302 -14.198 -24.066  0.00  0.00    -0.247 NA
ATOM     25  C   UNL     1      34.454 -16.147 -22.421  0.00  0.00    +0.118 C 
ATOM     26  C   UNL     1      33.641 -15.158 -21.879  0.00  0.00    +0.145 C 
ATOM     27  C   UNL     1      33.081 -14.199 -22.723  0.00  0.00    +0.073 C 
ATOM     28  C   UNL     1      32.278 -13.262 -22.007  0.00  0.00    +0.022 C 
ATOM     29  C   UNL     1      32.248 -13.527 -20.656  0.00  0.00    +0.033 C 
ATOM     30  C   UNL     1      34.100 -15.195 -24.483  0.00  0.00    +0.251 C 
ATOM     31  H   UNL     1      34.865 -17.111 -20.639  0.00  0.00    +0.148 HD
ENDBRANCH  20  22
ENDBRANCH  19  20
ENDBRANCH   6  19
TORSDOF 4
ENDMDL
MODEL 4
REMARK VINA RESULT:     -10.5      4.569     11.584
REMARK  Name = 24995524
REMARK  4 active torsions:
REMARK  status: ('A' for Active; 'I' for Inactive)
REMARK    1  A    between atoms: N_5  and  C_13
REMARK    2  A    between atoms: C_6  and  C_19
REMARK    3  A    between atoms: C_19  and  C_20
REMARK    4  A    between atoms: C_20  and  N_22
REMARK                            x       y       z     vdW  Elec       q    Type
REMARK                         _______ _______ _______ _____ _____    ______ ____
ROOT
ATOM      1  S   UNL     1      33.719 -23.727 -16.542  0.00  0.00    -0.056 S 
ATOM      2  O   UNL     1      32.387 -20.650 -19.790  0.00  0.00    -0.252 OA
ATOM      3  N   UNL     1      31.680 -22.466 -17.508  0.00  0.00    -0.223 NA
ATOM      4  N   UNL     1      33.815 -22.030 -18.536  0.00  0.00    -0.248 N 
ATOM      5  N   UNL     1      34.675 -20.721 -20.268  0.00  0.00    -0.268 N 
ATOM      6  C   UNL     1      32.185 -24.017 -15.831  0.00  0.00    +0.031 C 
ATOM      7  C   UNL     1      31.227 -23.262 -16.474  0.00  0.00    +0.103 C 
ATOM      8  C   UNL     1      32.979 -22.630 -17.634  0.00  0.00    +0.166 C 
ATOM      9  C   UNL     1      33.513 -21.080 -19.565  0.00  0.00    +0.310 C 
ATOM     10  H   UNL     1      34.763 -22.288 -18.467  0.00  0.00    +0.158 HD
ATOM     11  H   UNL     1      35.510 -21.152 -19.971  0.00  0.00    +0.156 HD
ENDROOT
BRANCH   5  13
ATOM     12 CL   UNL     1      34.958 -15.854 -21.882  0.00  0.00    -0.082 Cl
ATOM     13  C   UNL     1      34.794 -19.816 -21.348  0.00  0.00    +0.052 C 
ATOM     14  C   UNL     1      34.816 -18.442 -21.109  0.00  0.00    +0.026 C 
ATOM     15  C   UNL     1      34.890 -20.298 -22.654  0.00  0.00    +0.015 C 
ATOM     16  C   UNL     1      34.932 -17.551 -22.176  0.00  0.00    +0.059 C 
ATOM     17  C   UNL     1      35.006 -19.407 -23.720  0.00  0.00    +0.002 C 
ATOM     18  C   UNL     1      35.028 -18.033 -23.481  0.00  0.00    +0.011 C 
ENDBRANCH   5  13
BRANCH   6  19
ATOM     19  C   UNL     1      32.042 -24.981 -14.679  0.00  0.00    +0.056 C 
BRANCH  19  20
ATOM     20  C   UNL     1      32.943 -24.637 -13.494  0.00  0.00    +0.093 C 
BRANCH  20  22
ATOM     21  S   UNL     1      37.232 -26.130 -14.451  0.00  0.00    -0.101 S 
ATOM     22  N   UNL     1      34.285 -25.079 -13.726  0.00  0.00    -0.320 N 
ATOM     23  N   UNL     1      35.015 -24.471 -11.544  0.00  0.00    -0.233 NA
ATOM     24  N   UNL     1      37.295 -24.802 -10.801  0.00  0.00    -0.247 NA
ATOM     25  C   UNL     1      35.300 -24.992 -12.754  0.00  0.00    +0.118 C 
ATOM     26  C   UNL     1      36.591 -25.433 -13.020  0.00  0.00    +0.145 C 
ATOM     27  C   UNL     1      37.565 -25.326 -12.027  0.00  0.00    +0.073 C 
ATOM     28  C   UNL     1      38.829 -25.823 -12.465  0.00  0.00    +0.022 C 
ATOM     29  C   UNL     1      38.786 -26.288 -13.760  0.00  0.00    +0.033 C 
ATOM     30  C   UNL     1      36.020 -24.408 -10.651  0.00  0.00    +0.251 C 
ATOM     31  H   UNL     1      34.509 -25.461 -14.605  0.00  0.00    +0.148 HD
ENDBRANCH  20  22
ENDBRANCH  19  20
ENDBRANCH   6  19
TORSDOF 4
ENDMDL
MODEL 5
REMARK VINA RESULT:     -10.4      3.275      3.769
REMARK  Name = 24995524
REMARK  4 active torsions:
REMARK  status: ('A' for Active; 'I' for Inactive)
REMARK    1  A    between atoms: N_5  and  C_13
REMARK    2  A    between atoms: C_6  and  C_19
REMARK    3  A    between atoms: C_19  and  C_20
REMARK    4  A    between atoms: C_20  and  N_22
REMARK                            x       y       z     vdW  Elec       q    Type
REMARK                         _______ _______ _______ _____ _____    ______ ____
ROOT
ATOM      1  S   UNL     1      35.724 -21.460 -19.801  0.00  0.00    -0.056 S 
ATOM      2  O   UNL     1      31.830 -22.523 -17.455  0.00  0.00    -0.252 OA
ATOM      3  N   UNL     1      33.168 -21.081 -19.721  0.00  0.00    -0.223 NA
ATOM      4  N   UNL     1      34.110 -22.500 -18.017  0.00  0.00    -0.248 N 
ATOM      5  N   UNL     1      33.370 -23.731 -16.176  0.00  0.00    -0.268 N 
ATOM      6  C   UNL     1      35.023 -20.455 -21.001  0.00  0.00    +0.031 C 
ATOM      7  C   UNL     1      33.662 -20.371 -20.798  0.00  0.00    +0.103 C 
ATOM      8  C   UNL     1      34.165 -21.695 -19.123  0.00  0.00    +0.166 C 
ATOM      9  C   UNL     1      32.978 -22.888 -17.228  0.00  0.00    +0.310 C 
ATOM     10  H   UNL     1      34.975 -22.868 -17.722  0.00  0.00    +0.158 HD
ATOM     11  H   UNL     1      34.332 -23.936 -16.122  0.00  0.00    +0.156 HD
ENDROOT
BRANCH   5  13
ATOM     12 CL   UNL     1      28.689 -25.237 -14.698  0.00  0.00    -0.082 Cl
ATOM     13  C   UNL     1      32.553 -24.322 -15.184  0.00  0.00    +0.052 C 
ATOM     14  C   UNL     1      31.184 -24.471 -15.405  0.00  0.00    +0.026 C 
ATOM     15  C   UNL     1      33.117 -24.756 -13.983  0.00  0.00    +0.015 C 
ATOM     16  C   UNL     1      30.379 -25.053 -14.425  0.00  0.00    +0.059 C 
ATOM     17  C   UNL     1      32.312 -25.337 -13.005  0.00  0.00    +0.002 C 
ATOM     18  C   UNL     1      30.944 -25.486 -13.226  0.00  0.00    +0.011 C 
ENDBRANCH   5  13
BRANCH   6  19
ATOM     19  C   UNL     1      35.883 -19.815 -22.065  0.00  0.00    +0.056 C 
BRANCH  19  20
ATOM     20  C   UNL     1      36.114 -18.323 -21.831  0.00  0.00    +0.093 C 
BRANCH  20  22
ATOM     21  S   UNL     1      34.091 -15.944 -25.265  0.00  0.00    -0.101 S 
ATOM     22  N   UNL     1      35.472 -17.541 -22.845  0.00  0.00    -0.320 N 
ATOM     23  N   UNL     1      34.816 -15.838 -21.318  0.00  0.00    -0.233 NA
ATOM     24  N   UNL     1      33.574 -13.880 -22.014  0.00  0.00    -0.247 NA
ATOM     25  C   UNL     1      34.834 -16.315 -22.578  0.00  0.00    +0.118 C 
ATOM     26  C   UNL     1      34.223 -15.585 -23.591  0.00  0.00    +0.145 C 
ATOM     27  C   UNL     1      33.602 -14.376 -23.281  0.00  0.00    +0.073 C 
ATOM     28  C   UNL     1      33.027 -13.761 -24.432  0.00  0.00    +0.022 C 
ATOM     29  C   UNL     1      33.221 -14.506 -25.573  0.00  0.00    +0.033 C 
ATOM     30  C   UNL     1      34.194 -14.662 -21.114  0.00  0.00    +0.251 C 
ATOM     31  H   UNL     1      35.476 -17.877 -23.771  0.00  0.00    +0.148 HD
ENDBRANCH  20  22
ENDBRANCH  19  20
ENDBRANCH   6  19
TORSDOF 4
ENDMDL
MODEL 6
REMARK VINA RESULT:     -10.2      4.730     11.896
REMARK  Name = 24995524
REMARK  4 active torsions:
REMARK  status: ('A' for Active; 'I' for Inactive)
REMARK    1  A    between atoms: N_5  and  C_13
REMARK    2  A    between atoms: C_6  and  C_19
REMARK    3  A    between atoms: C_19  and  C_20
REMARK    4  A    between atoms: C_20  and  N_22
REMARK                            x       y       z     vdW  Elec       q    Type
REMARK                         _______ _______ _______ _____ _____    ______ ____
ROOT
ATOM      1  S   UNL     1      34.568 -20.006 -20.840  0.00  0.00    -0.056 S 
ATOM      2  O   UNL     1      36.075 -16.210 -23.102  0.00  0.00    -0.252 OA
ATOM      3  N   UNL     1      36.676 -18.639 -21.445  0.00  0.00    -0.223 NA
ATOM      4  N   UNL     1      34.569 -17.808 -22.268  0.00  0.00    -0.248 N 
ATOM      5  N   UNL     1      33.786 -16.012 -23.538  0.00  0.00    -0.268 N 
ATOM      6  C   UNL     1      36.083 -20.572 -20.270  0.00  0.00    +0.031 C 
ATOM      7  C   UNL     1      37.083 -19.720 -20.688  0.00  0.00    +0.103 C 
ATOM      8  C   UNL     1      35.370 -18.687 -21.590  0.00  0.00    +0.166 C 
ATOM      9  C   UNL     1      34.926 -16.622 -22.989  0.00  0.00    +0.310 C 
ATOM     10  H   UNL     1      33.608 -18.022 -22.259  0.00  0.00    +0.158 HD
ATOM     11  H   UNL     1      32.928 -16.462 -23.361  0.00  0.00    +0.156 HD
ENDROOT
BRANCH   5  13
ATOM     12 CL   UNL     1      34.205 -10.899 -23.756  0.00  0.00    -0.082 Cl
ATOM     13  C   UNL     1      33.719 -14.831 -24.313  0.00  0.00    +0.052 C 
ATOM     14  C   UNL     1      33.967 -13.593 -23.721  0.00  0.00    +0.026 C 
ATOM     15  C   UNL     1      33.405 -14.905 -25.671  0.00  0.00    +0.015 C 
ATOM     16  C   UNL     1      33.900 -12.428 -24.487  0.00  0.00    +0.059 C 
ATOM     17  C   UNL     1      33.338 -13.741 -26.436  0.00  0.00    +0.002 C 
ATOM     18  C   UNL     1      33.586 -12.503 -25.843  0.00  0.00    +0.011 C 
ENDBRANCH   5  13
BRANCH   6  19
ATOM     19  C   UNL     1      36.170 -21.830 -19.439  0.00  0.00    +0.056 C 
BRANCH  19  20
ATOM     20  C   UNL     1      34.805 -22.334 -18.972  0.00  0.00    +0.093 C 
BRANCH  20  22
ATOM     21  S   UNL     1      35.313 -24.209 -14.757  0.00  0.00    -0.101 S 
ATOM     22  N   UNL     1      34.893 -22.912 -17.664  0.00  0.00    -0.320 N 
ATOM     23  N   UNL     1      32.536 -22.899 -17.343  0.00  0.00    -0.233 NA
ATOM     24  N   UNL     1      31.499 -23.718 -15.314  0.00  0.00    -0.247 NA
ATOM     25  C   UNL     1      33.765 -23.186 -16.869  0.00  0.00    +0.118 C 
ATOM     26  C   UNL     1      33.894 -23.748 -15.605  0.00  0.00    +0.145 C 
ATOM     27  C   UNL     1      32.747 -24.001 -14.852  0.00  0.00    +0.073 C 
ATOM     28  C   UNL     1      33.059 -24.576 -13.583  0.00  0.00    +0.022 C 
ATOM     29  C   UNL     1      34.414 -24.742 -13.405  0.00  0.00    +0.033 C 
ATOM     30  C   UNL     1      31.489 -23.180 -16.545  0.00  0.00    +0.251 C 
ATOM     31  H   UNL     1      35.785 -23.126 -17.304  0.00  0.00    +0.148 HD
ENDBRANCH  20  22
ENDBRANCH  19  20
ENDBRANCH   6  19
TORSDOF 4
ENDMDL
MODEL 7
REMARK VINA RESULT:      -9.7      4.856      7.997
REMARK  Name = 24995524
REMARK  4 active torsions:
REMARK  status: ('A' for Active; 'I' for Inactive)
REMARK    1  A    between atoms: N_5  and  C_13
REMARK    2  A    between atoms: C_6  and  C_19
REMARK    3  A    between atoms: C_19  and  C_20
REMARK    4  A    between atoms: C_20  and  N_22
REMARK                            x       y       z     vdW  Elec       q    Type
REMARK                         _______ _______ _______ _____ _____    ______ ____
ROOT
ATOM      1  S   UNL     1      34.054 -15.218 -24.417  0.00  0.00    -0.056 S 
ATOM      2  O   UNL     1      35.066 -17.163 -20.295  0.00  0.00    -0.252 OA
ATOM      3  N   UNL     1      34.510 -14.705 -21.925  0.00  0.00    -0.223 NA
ATOM      4  N   UNL     1      34.588 -17.020 -22.591  0.00  0.00    -0.248 N 
ATOM      5  N   UNL     1      34.979 -19.100 -21.603  0.00  0.00    -0.268 N 
ATOM      6  C   UNL     1      34.005 -13.579 -23.913  0.00  0.00    +0.031 C 
ATOM      7  C   UNL     1      34.272 -13.503 -22.562  0.00  0.00    +0.103 C 
ATOM      8  C   UNL     1      34.421 -15.678 -22.805  0.00  0.00    +0.166 C 
ATOM      9  C   UNL     1      34.897 -17.716 -21.377  0.00  0.00    +0.310 C 
ATOM     10  H   UNL     1      34.478 -17.589 -23.386  0.00  0.00    +0.158 HD
ATOM     11  H   UNL     1      34.819 -19.395 -22.529  0.00  0.00    +0.156 HD
ENDROOT
BRANCH   5  13
ATOM     12 CL   UNL     1      33.215 -22.705 -18.401  0.00  0.00    -0.082 Cl
ATOM     13  C   UNL     1      35.263 -20.120 -20.665  0.00  0.00    +0.052 C 
ATOM     14  C   UNL     1      34.220 -20.827 -20.067  0.00  0.00    +0.026 C 
ATOM     15  C   UNL     1      36.586 -20.418 -20.339  0.00  0.00    +0.015 C 
ATOM     16  C   UNL     1      34.502 -21.832 -19.141  0.00  0.00    +0.059 C 
ATOM     17  C   UNL     1      36.867 -21.422 -19.414  0.00  0.00    +0.002 C 
ATOM     18  C   UNL     1      35.825 -22.130 -18.815  0.00  0.00    +0.011 C 
ENDBRANCH   5  13
BRANCH   6  19
ATOM     19  C   UNL     1      33.706 -12.480 -24.902  0.00  0.00    +0.056 C 
BRANCH  19  20
ATOM     20  C   UNL     1      34.245 -11.118 -24.466  0.00  0.00    +0.093 C 
BRANCH  20  22
ATOM     21  S   UNL     1      32.054  -9.845 -20.578  0.00  0.00    -0.101 S 
ATOM     22  N   UNL     1      33.581 -10.659 -23.283  0.00  0.00    -0.320 N 
ATOM     23  N   UNL     1      33.959  -8.365 -23.786  0.00  0.00    -0.233 NA
ATOM     24  N   UNL     1      33.197  -6.578 -22.343  0.00  0.00    -0.247 NA
ATOM     25  C   UNL     1      33.446  -9.296 -22.959  0.00  0.00    +0.118 C 
ATOM     26  C   UNL     1      32.793  -8.893 -21.800  0.00  0.00    +0.145 C 
ATOM     27  C   UNL     1      32.684  -7.531 -21.518  0.00  0.00    +0.073 C 
ATOM     28  C   UNL     1      31.989  -7.294 -20.295  0.00  0.00    +0.022 C 
ATOM     29  C   UNL     1      31.593  -8.463 -19.685  0.00  0.00    +0.033 C 
ATOM     30  C   UNL     1      33.805  -7.076 -23.432  0.00  0.00    +0.251 C 
ATOM     31  H   UNL     1      33.202 -11.328 -22.668  0.00  0.00    +0.148 HD
ENDBRANCH  20  22
ENDBRANCH  19  20
ENDBRANCH   6  19
TORSDOF 4
ENDMDL
MODEL 8
REMARK VINA RESULT:      -9.6      6.432     10.228
REMARK  Name = 24995524
REMARK  4 active torsions:
REMARK  status: ('A' for Active; 'I' for Inactive)
REMARK    1  A    between atoms: N_5  and  C_13
REMARK    2  A    between atoms: C_6  and  C_19
REMARK    3  A    between atoms: C_19  and  C_20
REMARK    4  A    between atoms: C_20  and  N_22
REMARK                            x       y       z     vdW  Elec       q    Type
REMARK                         _______ _______ _______ _____ _____    ______ ____
ROOT
ATOM      1  S   UNL     1      33.771 -12.599 -23.456  0.00  0.00    -0.056 S 
ATOM      2  O   UNL     1      33.681 -16.066 -20.330  0.00  0.00    -0.252 OA
ATOM      3  N   UNL     1      32.804 -13.322 -21.171  0.00  0.00    -0.223 NA
ATOM      4  N   UNL     1      34.239 -14.899 -22.292  0.00  0.00    -0.248 N 
ATOM      5  N   UNL     1      35.090 -17.042 -21.921  0.00  0.00    -0.268 N 
ATOM      6  C   UNL     1      32.746 -11.497 -22.633  0.00  0.00    +0.031 C 
ATOM      7  C   UNL     1      32.331 -12.052 -21.441  0.00  0.00    +0.103 C 
ATOM      8  C   UNL     1      33.573 -13.710 -22.164  0.00  0.00    +0.166 C 
ATOM      9  C   UNL     1      34.279 -16.021 -21.400  0.00  0.00    +0.310 C 
ATOM     10  H   UNL     1      34.767 -14.999 -23.117  0.00  0.00    +0.158 HD
ATOM     11  H   UNL     1      35.506 -16.860 -22.795  0.00  0.00    +0.156 HD
ENDROOT
BRANCH   5  13
ATOM     12 CL   UNL     1      33.354 -21.429 -19.895  0.00  0.00    -0.082 Cl
ATOM     13  C   UNL     1      35.382 -18.301 -21.345  0.00  0.00    +0.052 C 
ATOM     14  C   UNL     1      34.345 -19.145 -20.951  0.00  0.00    +0.026 C 
ATOM     15  C   UNL     1      36.709 -18.697 -21.171  0.00  0.00    +0.015 C 
ATOM     16  C   UNL     1      34.635 -20.386 -20.382  0.00  0.00    +0.059 C 
ATOM     17  C   UNL     1      36.998 -19.936 -20.602  0.00  0.00    +0.002 C 
ATOM     18  C   UNL     1      35.960 -20.781 -20.208  0.00  0.00    +0.011 C 
ENDBRANCH   5  13
BRANCH   6  19
ATOM     19  C   UNL     1      32.427 -10.149 -23.234  0.00  0.00    +0.056 C 
BRANCH  19  20
ATOM     20  C   UNL     1      32.896  -8.981 -22.368  0.00  0.00    +0.093 C 
BRANCH  20  22
ATOM     21  S   UNL     1      32.989  -5.089 -24.895  0.00  0.00    -0.101 S 
ATOM     22  N   UNL     1      32.875  -7.755 -23.108  0.00  0.00    -0.320 N 
ATOM     23  N   UNL     1      31.162  -6.802 -21.758  0.00  0.00    -0.233 NA
ATOM     24  N   UNL     1      30.287  -4.580 -22.150  0.00  0.00    -0.247 NA
ATOM     25  C   UNL     1      32.014  -6.686 -22.796  0.00  0.00    +0.118 C 
ATOM     26  C   UNL     1      32.026  -5.511 -23.539  0.00  0.00    +0.145 C 
ATOM     27  C   UNL     1      31.154  -4.479 -23.195  0.00  0.00    +0.073 C 
ATOM     28  C   UNL     1      31.296  -3.351 -24.057  0.00  0.00    +0.022 C 
ATOM     29  C   UNL     1      32.257  -3.551 -25.022  0.00  0.00    +0.033 C 
ATOM     30  C   UNL     1      30.359  -5.754 -21.501  0.00  0.00    +0.251 C 
ATOM     31  H   UNL     1      33.491  -7.655 -23.869  0.00  0.00    +0.148 HD
ENDBRANCH  20  22
ENDBRANCH  19  20
ENDBRANCH   6  19
TORSDOF 4
ENDMDL
MODEL 9
REMARK VINA RESULT:      -9.5      4.797     11.016
REMARK  Name = 24995524
REMARK  4 active torsions:
REMARK  status: ('A' for Active; 'I' for Inactive)
REMARK    1  A    between atoms: N_5  and  C_13
REMARK    2  A    between atoms: C_6  and  C_19
REMARK    3  A    between atoms: C_19  and  C_20
REMARK    4  A    between atoms: C_20  and  N_22
REMARK                            x       y       z     vdW  Elec       q    Type
REMARK                         _______ _______ _______ _____ _____    ______ ____
ROOT
ATOM      1  S   UNL     1      36.459 -21.999 -17.761  0.00  0.00    -0.056 S 
ATOM      2  O   UNL     1      33.645 -20.277 -21.065  0.00  0.00    -0.252 OA
ATOM      3  N   UNL     1      34.075 -22.136 -18.749  0.00  0.00    -0.223 NA
ATOM      4  N   UNL     1      35.593 -20.579 -19.787  0.00  0.00    -0.248 N 
ATOM      5  N   UNL     1      35.573 -19.041 -21.543  0.00  0.00    -0.268 N 
ATOM      6  C   UNL     1      35.355 -23.098 -17.044  0.00  0.00    +0.031 C 
ATOM      7  C   UNL     1      34.144 -23.032 -17.700  0.00  0.00    +0.103 C 
ATOM      8  C   UNL     1      35.237 -21.534 -18.873  0.00  0.00    +0.166 C 
ATOM      9  C   UNL     1      34.814 -19.986 -20.833  0.00  0.00    +0.310 C 
ATOM     10  H   UNL     1      36.518 -20.251 -19.713  0.00  0.00    +0.158 HD
ATOM     11  H   UNL     1      36.501 -18.916 -21.239  0.00  0.00    +0.156 HD
ENDROOT
BRANCH   5  13
ATOM     12 CL   UNL     1      34.588 -14.367 -23.427  0.00  0.00    -0.082 Cl
ATOM     13  C   UNL     1      35.166 -18.246 -22.641  0.00  0.00    +0.052 C 
ATOM     14  C   UNL     1      35.088 -16.860 -22.508  0.00  0.00    +0.026 C 
ATOM     15  C   UNL     1      34.843 -18.850 -23.857  0.00  0.00    +0.015 C 
ATOM     16  C   UNL     1      34.686 -16.078 -23.591  0.00  0.00    +0.059 C 
ATOM     17  C   UNL     1      34.442 -18.068 -24.939  0.00  0.00    +0.002 C 
ATOM     18  C   UNL     1      34.364 -16.682 -24.806  0.00  0.00    +0.011 C 
ENDBRANCH   5  13
BRANCH   6  19
ATOM     19  C   UNL     1      35.775 -23.954 -15.874  0.00  0.00    +0.056 C 
BRANCH  19  20
ATOM     20  C   UNL     1      34.815 -23.862 -14.689  0.00  0.00    +0.093 C 
BRANCH  20  22
ATOM     21  S   UNL     1      30.575 -22.826 -16.267  0.00  0.00    -0.101 S 
ATOM     22  N   UNL     1      33.480 -23.587 -15.130  0.00  0.00    -0.320 N 
ATOM     23  N   UNL     1      32.502 -25.115 -13.592  0.00  0.00    -0.233 NA
ATOM     24  N   UNL     1      30.112 -25.477 -13.465  0.00  0.00    -0.247 NA
ATOM     25  C   UNL     1      32.347 -24.213 -14.580  0.00  0.00    +0.118 C 
ATOM     26  C   UNL     1      31.068 -23.918 -15.038  0.00  0.00    +0.145 C 
ATOM     27  C   UNL     1      29.973 -24.563 -14.464  0.00  0.00    +0.073 C 
ATOM     28  C   UNL     1      28.740 -24.146 -15.049  0.00  0.00    +0.022 C 
ATOM     29  C   UNL     1      28.925 -23.207 -16.039  0.00  0.00    +0.033 C 
ATOM     30  C   UNL     1      31.388 -25.687 -13.099  0.00  0.00    +0.251 C 
ATOM     31  H   UNL     1      33.351 -22.930 -15.853  0.00  0.00    +0.148 HD
ENDBRANCH  20  22
ENDBRANCH  19  20
ENDBRANCH   6  19
TORSDOF 4
ENDMDL
