MODEL 1
REMARK VINA RESULT:     -11.2      0.000      0.000
REMARK  Name = 24901696
REMARK  4 active torsions:
REMARK  status: ('A' for Active; 'I' for Inactive)
REMARK    1  A    between atoms: C_5  and  C_16
REMARK    2  A    between atoms: C_7  and  C_10
REMARK    3  A    between atoms: C_16  and  C_17
REMARK    4  A    between atoms: C_22  and  O_23
REMARK                            x       y       z     vdW  Elec       q    Type
REMARK                         _______ _______ _______ _____ _____    ______ ____
ROOT
ATOM      1  N   UNL     1      34.849 -17.418 -22.231  0.00  0.00    -0.195 N 
ATOM      2  N   UNL     1      34.712 -18.263 -21.179  0.00  0.00    -0.163 NA
ATOM      3  N   UNL     1      34.978 -15.576 -23.413  0.00  0.00    -0.131 NA
ATOM      4  N   UNL     1      35.129 -16.649 -24.269  0.00  0.00    -0.127 NA
ATOM      5  C   UNL     1      34.814 -16.054 -22.200  0.00  0.00    +0.168 A 
ATOM      6  C   UNL     1      35.050 -17.749 -23.551  0.00  0.00    +0.186 A 
ATOM      7  C   UNL     1      34.780 -19.522 -21.503  0.00  0.00    +0.101 C 
ATOM      8  C   UNL     1      35.137 -19.119 -23.870  0.00  0.00    +0.042 C 
ATOM      9  C   UNL     1      35.013 -20.029 -22.894  0.00  0.00    +0.024 C 
ENDROOT
BRANCH   7  10
ATOM     10  C   UNL     1      34.637 -20.549 -20.438  0.00  0.00    +0.019 C 
ATOM     11  C   UNL     1      35.771 -21.149 -19.891  0.00  0.00    +0.002 C 
ATOM     12  C   UNL     1      33.368 -20.910 -19.984  0.00  0.00    +0.002 C 
ATOM     13  C   UNL     1      35.636 -22.113 -18.891  0.00  0.00    +0.000 C 
ATOM     14  C   UNL     1      33.234 -21.874 -18.984  0.00  0.00    +0.000 C 
ATOM     15  C   UNL     1      34.368 -22.475 -18.437  0.00  0.00    +0.000 C 
ENDBRANCH   7  10
BRANCH   5  16
ATOM     16  C   UNL     1      34.616 -15.282 -20.960  0.00  0.00    +0.094 C 
BRANCH  16  17
ATOM     17  C   UNL     1      33.516 -14.232 -21.037  0.00  0.00    -0.014 C 
ATOM     18  C   UNL     1      32.620 -14.081 -19.980  0.00  0.00    -0.001 C 
ATOM     19  C   UNL     1      33.404 -13.422 -22.167  0.00  0.00    -0.001 C 
ATOM     20  C   UNL     1      31.612 -13.119 -20.051  0.00  0.00    +0.036 C 
ATOM     21  C   UNL     1      32.396 -12.460 -22.239  0.00  0.00    +0.036 C 
ATOM     22  C   UNL     1      31.500 -12.309 -21.181  0.00  0.00    +0.134 C 
BRANCH  22  23
ATOM     23  O   UNL     1      30.517 -11.371 -21.250  0.00  0.00    -0.506 OA
ATOM     24  H   UNL     1      30.586 -10.662 -21.859  0.00  0.00    +0.292 HD
ENDBRANCH  22  23
ENDBRANCH  16  17
ENDBRANCH   5  16
TORSDOF 4
ENDMDL
MODEL 2
REMARK VINA RESULT:     -11.2      0.002      1.425
REMARK  Name = 24901696
REMARK  4 active torsions:
REMARK  status: ('A' for Active; 'I' for Inactive)
REMARK    1  A    between atoms: C_5  and  C_16
REMARK    2  A    between atoms: C_7  and  C_10
REMARK    3  A    between atoms: C_16  and  C_17
REMARK    4  A    between atoms: C_22  and  O_23
REMARK                            x       y       z     vdW  Elec       q    Type
REMARK                         _______ _______ _______ _____ _____    ______ ____
ROOT
ATOM      1  N   UNL     1      34.849 -17.418 -22.232  0.00  0.00    -0.195 N 
ATOM      2  N   UNL     1      34.711 -18.262 -21.180  0.00  0.00    -0.163 NA
ATOM      3  N   UNL     1      34.980 -15.577 -23.415  0.00  0.00    -0.131 NA
ATOM      4  N   UNL     1      35.131 -16.650 -24.270  0.00  0.00    -0.127 NA
ATOM      5  C   UNL     1      34.814 -16.055 -22.202  0.00  0.00    +0.168 A 
ATOM      6  C   UNL     1      35.051 -17.750 -23.551  0.00  0.00    +0.186 A 
ATOM      7  C   UNL     1      34.778 -19.522 -21.503  0.00  0.00    +0.101 C 
ATOM      8  C   UNL     1      35.138 -19.120 -23.869  0.00  0.00    +0.042 C 
ATOM      9  C   UNL     1      35.012 -20.030 -22.894  0.00  0.00    +0.024 C 
ENDROOT
BRANCH   7  10
ATOM     10  C   UNL     1      34.634 -20.548 -20.437  0.00  0.00    +0.019 C 
ATOM     11  C   UNL     1      33.366 -20.912 -19.985  0.00  0.00    +0.002 C 
ATOM     12  C   UNL     1      35.769 -21.149 -19.890  0.00  0.00    +0.002 C 
ATOM     13  C   UNL     1      33.232 -21.875 -18.985  0.00  0.00    +0.000 C 
ATOM     14  C   UNL     1      35.634 -22.111 -18.890  0.00  0.00    +0.000 C 
ATOM     15  C   UNL     1      34.365 -22.476 -18.438  0.00  0.00    +0.000 C 
ENDBRANCH   7  10
BRANCH   5  16
ATOM     16  C   UNL     1      34.616 -15.281 -20.963  0.00  0.00    +0.094 C 
BRANCH  16  17
ATOM     17  C   UNL     1      33.515 -14.232 -21.041  0.00  0.00    -0.014 C 
ATOM     18  C   UNL     1      33.404 -13.421 -22.169  0.00  0.00    -0.001 C 
ATOM     19  C   UNL     1      32.620 -14.081 -19.982  0.00  0.00    -0.001 C 
ATOM     20  C   UNL     1      32.396 -12.458 -22.240  0.00  0.00    +0.036 C 
ATOM     21  C   UNL     1      31.612 -13.120 -20.053  0.00  0.00    +0.036 C 
ATOM     22  C   UNL     1      31.501 -12.308 -21.181  0.00  0.00    +0.134 C 
BRANCH  22  23
ATOM     23  O   UNL     1      30.518 -11.369 -21.251  0.00  0.00    -0.506 OA
ATOM     24  H   UNL     1      30.280 -10.882 -20.487  0.00  0.00    +0.292 HD
ENDBRANCH  22  23
ENDBRANCH  16  17
ENDBRANCH   5  16
TORSDOF 4
ENDMDL
MODEL 3
REMARK VINA RESULT:     -10.6      5.800      9.010
REMARK  Name = 24901696
REMARK  4 active torsions:
REMARK  status: ('A' for Active; 'I' for Inactive)
REMARK    1  A    between atoms: C_5  and  C_16
REMARK    2  A    between atoms: C_7  and  C_10
REMARK    3  A    between atoms: C_16  and  C_17
REMARK    4  A    between atoms: C_22  and  O_23
REMARK                            x       y       z     vdW  Elec       q    Type
REMARK                         _______ _______ _______ _____ _____    ______ ____
ROOT
ATOM      1  N   UNL     1      33.382 -23.802 -15.942  0.00  0.00    -0.195 N 
ATOM      2  N   UNL     1      34.549 -24.333 -15.498  0.00  0.00    -0.163 NA
ATOM      3  N   UNL     1      31.855 -22.961 -17.271  0.00  0.00    -0.131 NA
ATOM      4  N   UNL     1      31.337 -23.003 -15.992  0.00  0.00    -0.127 NA
ATOM      5  C   UNL     1      33.076 -23.444 -17.222  0.00  0.00    +0.168 A 
ATOM      6  C   UNL     1      32.260 -23.509 -15.201  0.00  0.00    +0.186 A 
ATOM      7  C   UNL     1      34.565 -24.571 -14.217  0.00  0.00    +0.101 C 
ATOM      8  C   UNL     1      32.301 -23.793 -13.822  0.00  0.00    +0.042 C 
ATOM      9  C   UNL     1      33.413 -24.319 -13.292  0.00  0.00    +0.024 C 
ENDROOT
BRANCH   7  10
ATOM     10  C   UNL     1      35.792 -25.148 -13.608  0.00  0.00    +0.019 C 
ATOM     11  C   UNL     1      36.542 -26.092 -14.309  0.00  0.00    +0.002 C 
ATOM     12  C   UNL     1      36.195 -24.742 -12.335  0.00  0.00    +0.002 C 
ATOM     13  C   UNL     1      37.693 -26.633 -13.736  0.00  0.00    +0.000 C 
ATOM     14  C   UNL     1      37.346 -25.283 -11.763  0.00  0.00    +0.000 C 
ATOM     15  C   UNL     1      38.096 -26.228 -12.464  0.00  0.00    +0.000 C 
ENDBRANCH   7  10
BRANCH   5  16
ATOM     16  C   UNL     1      34.016 -23.597 -18.347  0.00  0.00    +0.094 C 
BRANCH  16  17
ATOM     17  C   UNL     1      34.252 -22.327 -19.152  0.00  0.00    -0.014 C 
ATOM     18  C   UNL     1      33.166 -21.585 -19.619  0.00  0.00    -0.001 C 
ATOM     19  C   UNL     1      35.553 -21.905 -19.425  0.00  0.00    -0.001 C 
ATOM     20  C   UNL     1      33.383 -20.421 -20.358  0.00  0.00    +0.036 C 
ATOM     21  C   UNL     1      35.770 -20.742 -20.163  0.00  0.00    +0.036 C 
ATOM     22  C   UNL     1      34.684 -20.001 -20.630  0.00  0.00    +0.134 C 
BRANCH  22  23
ATOM     23  O   UNL     1      34.895 -18.865 -21.351  0.00  0.00    -0.506 OA
ATOM     24  H   UNL     1      35.677 -18.770 -21.858  0.00  0.00    +0.292 HD
ENDBRANCH  22  23
ENDBRANCH  16  17
ENDBRANCH   5  16
TORSDOF 4
ENDMDL
MODEL 4
REMARK VINA RESULT:     -10.6      4.383      6.880
REMARK  Name = 24901696
REMARK  4 active torsions:
REMARK  status: ('A' for Active; 'I' for Inactive)
REMARK    1  A    between atoms: C_5  and  C_16
REMARK    2  A    between atoms: C_7  and  C_10
REMARK    3  A    between atoms: C_16  and  C_17
REMARK    4  A    between atoms: C_22  and  O_23
REMARK                            x       y       z     vdW  Elec       q    Type
REMARK                         _______ _______ _______ _____ _____    ______ ____
ROOT
ATOM      1  N   UNL     1      32.226 -12.025 -21.503  0.00  0.00    -0.195 N 
ATOM      2  N   UNL     1      32.807 -12.774 -22.473  0.00  0.00    -0.163 NA
ATOM      3  N   UNL     1      31.372 -10.315 -20.430  0.00  0.00    -0.131 NA
ATOM      4  N   UNL     1      31.308 -11.418 -19.602  0.00  0.00    -0.127 NA
ATOM      5  C   UNL     1      31.922 -10.696 -21.561  0.00  0.00    +0.168 A 
ATOM      6  C   UNL     1      31.822 -12.439 -20.255  0.00  0.00    +0.186 A 
ATOM      7  C   UNL     1      32.987 -14.020 -22.139  0.00  0.00    +0.101 C 
ATOM      8  C   UNL     1      32.014 -13.796 -19.927  0.00  0.00    +0.042 C 
ATOM      9  C   UNL     1      32.582 -14.613 -20.824  0.00  0.00    +0.024 C 
ENDROOT
BRANCH   7  10
ATOM     10  C   UNL     1      33.622 -14.942 -23.117  0.00  0.00    +0.019 C 
ATOM     11  C   UNL     1      34.531 -15.906 -22.680  0.00  0.00    +0.002 C 
ATOM     12  C   UNL     1      33.306 -14.846 -24.473  0.00  0.00    +0.002 C 
ATOM     13  C   UNL     1      35.126 -16.771 -23.597  0.00  0.00    +0.000 C 
ATOM     14  C   UNL     1      33.901 -15.711 -25.390  0.00  0.00    +0.000 C 
ATOM     15  C   UNL     1      34.811 -16.675 -24.952  0.00  0.00    +0.000 C 
ENDBRANCH   7  10
BRANCH   5  16
ATOM     16  C   UNL     1      32.193  -9.860 -22.744  0.00  0.00    +0.094 C 
BRANCH  16  17
ATOM     17  C   UNL     1      31.963  -8.370 -22.531  0.00  0.00    -0.014 C 
ATOM     18  C   UNL     1      32.866  -7.626 -21.772  0.00  0.00    -0.001 C 
ATOM     19  C   UNL     1      30.848  -7.749 -23.095  0.00  0.00    -0.001 C 
ATOM     20  C   UNL     1      32.654  -6.260 -21.577  0.00  0.00    +0.036 C 
ATOM     21  C   UNL     1      30.636  -6.385 -22.900  0.00  0.00    +0.036 C 
ATOM     22  C   UNL     1      31.539  -5.641 -22.141  0.00  0.00    +0.134 C 
BRANCH  22  23
ATOM     23  O   UNL     1      31.332  -4.309 -21.950  0.00  0.00    -0.506 OA
ATOM     24  H   UNL     1      31.172  -3.978 -21.088  0.00  0.00    +0.292 HD
ENDBRANCH  22  23
ENDBRANCH  16  17
ENDBRANCH   5  16
TORSDOF 4
ENDMDL
MODEL 5
REMARK VINA RESULT:     -10.4      3.084      7.611
REMARK  Name = 24901696
REMARK  4 active torsions:
REMARK  status: ('A' for Active; 'I' for Inactive)
REMARK    1  A    between atoms: C_5  and  C_16
REMARK    2  A    between atoms: C_7  and  C_10
REMARK    3  A    between atoms: C_16  and  C_17
REMARK    4  A    between atoms: C_22  and  O_23
REMARK                            x       y       z     vdW  Elec       q    Type
REMARK                         _______ _______ _______ _____ _____    ______ ____
ROOT
ATOM      1  N   UNL     1      34.377 -16.291 -23.573  0.00  0.00    -0.195 N 
ATOM      2  N   UNL     1      34.090 -15.114 -22.964  0.00  0.00    -0.163 NA
ATOM      3  N   UNL     1      35.088 -18.337 -23.910  0.00  0.00    -0.131 NA
ATOM      4  N   UNL     1      34.562 -17.864 -25.095  0.00  0.00    -0.127 NA
ATOM      5  C   UNL     1      34.967 -17.385 -23.012  0.00  0.00    +0.168 A 
ATOM      6  C   UNL     1      34.138 -16.636 -24.883  0.00  0.00    +0.186 A 
ATOM      7  C   UNL     1      33.530 -14.237 -23.748  0.00  0.00    +0.101 C 
ATOM      8  C   UNL     1      33.515 -15.674 -25.704  0.00  0.00    +0.042 C 
ATOM      9  C   UNL     1      33.195 -14.480 -25.188  0.00  0.00    +0.024 C 
ENDROOT
BRANCH   7  10
ATOM     10  C   UNL     1      33.173 -12.903 -23.198  0.00  0.00    +0.019 C 
ATOM     11  C   UNL     1      33.709 -11.748 -23.766  0.00  0.00    +0.002 C 
ATOM     12  C   UNL     1      32.298 -12.807 -22.115  0.00  0.00    +0.002 C 
ATOM     13  C   UNL     1      33.373 -10.496 -23.250  0.00  0.00    +0.000 C 
ATOM     14  C   UNL     1      31.963 -11.556 -21.599  0.00  0.00    +0.000 C 
ATOM     15  C   UNL     1      32.500 -10.400 -22.167  0.00  0.00    +0.000 C 
ENDBRANCH   7  10
BRANCH   5  16
ATOM     16  C   UNL     1      35.389 -17.436 -21.600  0.00  0.00    +0.094 C 
BRANCH  16  17
ATOM     17  C   UNL     1      35.405 -18.833 -20.995  0.00  0.00    -0.014 C 
ATOM     18  C   UNL     1      34.207 -19.514 -20.782  0.00  0.00    -0.001 C 
ATOM     19  C   UNL     1      36.617 -19.431 -20.653  0.00  0.00    -0.001 C 
ATOM     20  C   UNL     1      34.221 -20.794 -20.226  0.00  0.00    +0.036 C 
ATOM     21  C   UNL     1      36.632 -20.710 -20.097  0.00  0.00    +0.036 C 
ATOM     22  C   UNL     1      35.434 -21.391 -19.884  0.00  0.00    +0.134 C 
BRANCH  22  23
ATOM     23  O   UNL     1      35.448 -22.640 -19.342  0.00  0.00    -0.506 OA
ATOM     24  H   UNL     1      35.685 -23.377 -19.869  0.00  0.00    +0.292 HD
ENDBRANCH  22  23
ENDBRANCH  16  17
ENDBRANCH   5  16
TORSDOF 4
ENDMDL
MODEL 6
REMARK VINA RESULT:     -10.4      7.621     11.510
REMARK  Name = 24901696
REMARK  4 active torsions:
REMARK  status: ('A' for Active; 'I' for Inactive)
REMARK    1  A    between atoms: C_5  and  C_16
REMARK    2  A    between atoms: C_7  and  C_10
REMARK    3  A    between atoms: C_16  and  C_17
REMARK    4  A    between atoms: C_22  and  O_23
REMARK                            x       y       z     vdW  Elec       q    Type
REMARK                         _______ _______ _______ _____ _____    ______ ____
ROOT
ATOM      1  N   UNL     1      34.434 -23.813 -14.346  0.00  0.00    -0.195 N 
ATOM      2  N   UNL     1      34.928 -23.178 -15.437  0.00  0.00    -0.163 NA
ATOM      3  N   UNL     1      34.274 -24.662 -12.331  0.00  0.00    -0.131 NA
ATOM      4  N   UNL     1      33.096 -24.922 -13.002  0.00  0.00    -0.127 NA
ATOM      5  C   UNL     1      35.060 -23.998 -13.148  0.00  0.00    +0.168 A 
ATOM      6  C   UNL     1      33.201 -24.409 -14.210  0.00  0.00    +0.186 A 
ATOM      7  C   UNL     1      34.109 -23.159 -16.451  0.00  0.00    +0.101 C 
ATOM      8  C   UNL     1      32.330 -24.357 -15.316  0.00  0.00    +0.042 C 
ATOM      9  C   UNL     1      32.732 -23.750 -16.441  0.00  0.00    +0.024 C 
ENDROOT
BRANCH   7  10
ATOM     10  C   UNL     1      34.538 -22.496 -17.710  0.00  0.00    +0.019 C 
ATOM     11  C   UNL     1      35.894 -22.290 -17.964  0.00  0.00    +0.002 C 
ATOM     12  C   UNL     1      33.583 -22.081 -18.640  0.00  0.00    +0.002 C 
ATOM     13  C   UNL     1      36.296 -21.668 -19.146  0.00  0.00    +0.000 C 
ATOM     14  C   UNL     1      33.986 -21.460 -19.821  0.00  0.00    +0.000 C 
ATOM     15  C   UNL     1      35.342 -21.254 -20.075  0.00  0.00    +0.000 C 
ENDBRANCH   7  10
BRANCH   5  16
ATOM     16  C   UNL     1      36.420 -23.505 -12.867  0.00  0.00    +0.094 C 
BRANCH  16  17
ATOM     17  C   UNL     1      37.537 -24.440 -13.309  0.00  0.00    -0.014 C 
ATOM     18  C   UNL     1      37.987 -25.443 -12.451  0.00  0.00    -0.001 C 
ATOM     19  C   UNL     1      38.111 -24.293 -14.572  0.00  0.00    -0.001 C 
ATOM     20  C   UNL     1      39.011 -26.301 -12.856  0.00  0.00    +0.036 C 
ATOM     21  C   UNL     1      39.135 -25.150 -14.977  0.00  0.00    +0.036 C 
ATOM     22  C   UNL     1      39.585 -26.153 -14.119  0.00  0.00    +0.134 C 
BRANCH  22  23
ATOM     23  O   UNL     1      40.584 -26.989 -14.514  0.00  0.00    -0.506 OA
ATOM     24  H   UNL     1      40.901 -27.649 -13.930  0.00  0.00    +0.292 HD
ENDBRANCH  22  23
ENDBRANCH  16  17
ENDBRANCH   5  16
TORSDOF 4
ENDMDL
MODEL 7
REMARK VINA RESULT:     -10.3      4.956      8.016
REMARK  Name = 24901696
REMARK  4 active torsions:
REMARK  status: ('A' for Active; 'I' for Inactive)
REMARK    1  A    between atoms: C_5  and  C_16
REMARK    2  A    between atoms: C_7  and  C_10
REMARK    3  A    between atoms: C_16  and  C_17
REMARK    4  A    between atoms: C_22  and  O_23
REMARK                            x       y       z     vdW  Elec       q    Type
REMARK                         _______ _______ _______ _____ _____    ______ ____
ROOT
ATOM      1  N   UNL     1      34.308 -23.119 -17.003  0.00  0.00    -0.195 N 
ATOM      2  N   UNL     1      35.390 -23.427 -16.247  0.00  0.00    -0.163 NA
ATOM      3  N   UNL     1      33.070 -22.462 -18.689  0.00  0.00    -0.131 NA
ATOM      4  N   UNL     1      32.231 -22.816 -17.651  0.00  0.00    -0.127 NA
ATOM      5  C   UNL     1      34.306 -22.651 -18.284  0.00  0.00    +0.168 A 
ATOM      6  C   UNL     1      32.983 -23.209 -16.644  0.00  0.00    +0.186 A 
ATOM      7  C   UNL     1      35.095 -23.846 -15.050  0.00  0.00    +0.101 C 
ATOM      8  C   UNL     1      32.692 -23.682 -15.349  0.00  0.00    +0.042 C 
ATOM      9  C   UNL     1      33.699 -24.011 -14.529  0.00  0.00    +0.024 C 
ENDROOT
BRANCH   7  10
ATOM     10  C   UNL     1      36.197 -24.210 -14.121  0.00  0.00    +0.019 C 
ATOM     11  C   UNL     1      36.247 -23.650 -12.844  0.00  0.00    +0.002 C 
ATOM     12  C   UNL     1      37.181 -25.113 -14.526  0.00  0.00    +0.002 C 
ATOM     13  C   UNL     1      37.282 -23.992 -11.973  0.00  0.00    +0.000 C 
ATOM     14  C   UNL     1      38.215 -25.454 -13.655  0.00  0.00    +0.000 C 
ATOM     15  C   UNL     1      38.265 -24.894 -12.377  0.00  0.00    +0.000 C 
ENDBRANCH   7  10
BRANCH   5  16
ATOM     16  C   UNL     1      35.539 -22.411 -19.055  0.00  0.00    +0.094 C 
BRANCH  16  17
ATOM     17  C   UNL     1      35.536 -21.123 -19.868  0.00  0.00    -0.014 C 
ATOM     18  C   UNL     1      36.733 -20.450 -20.112  0.00  0.00    -0.001 C 
ATOM     19  C   UNL     1      34.337 -20.617 -20.367  0.00  0.00    -0.001 C 
ATOM     20  C   UNL     1      36.730 -19.270 -20.857  0.00  0.00    +0.036 C 
ATOM     21  C   UNL     1      34.333 -19.438 -21.112  0.00  0.00    +0.036 C 
ATOM     22  C   UNL     1      35.529 -18.764 -21.356  0.00  0.00    +0.134 C 
BRANCH  22  23
ATOM     23  O   UNL     1      35.527 -17.613 -22.082  0.00  0.00    -0.506 OA
ATOM     24  H   UNL     1      35.448 -17.647 -23.015  0.00  0.00    +0.292 HD
ENDBRANCH  22  23
ENDBRANCH  16  17
ENDBRANCH   5  16
TORSDOF 4
ENDMDL
MODEL 8
REMARK VINA RESULT:     -10.3      5.125      7.889
REMARK  Name = 24901696
REMARK  4 active torsions:
REMARK  status: ('A' for Active; 'I' for Inactive)
REMARK    1  A    between atoms: C_5  and  C_16
REMARK    2  A    between atoms: C_7  and  C_10
REMARK    3  A    between atoms: C_16  and  C_17
REMARK    4  A    between atoms: C_22  and  O_23
REMARK                            x       y       z     vdW  Elec       q    Type
REMARK                         _______ _______ _______ _____ _____    ______ ____
ROOT
ATOM      1  N   UNL     1      35.237 -22.866 -16.731  0.00  0.00    -0.195 N 
ATOM      2  N   UNL     1      33.961 -23.261 -16.499  0.00  0.00    -0.163 NA
ATOM      3  N   UNL     1      37.030 -22.125 -17.752  0.00  0.00    -0.131 NA
ATOM      4  N   UNL     1      37.363 -22.397 -16.440  0.00  0.00    -0.127 NA
ATOM      5  C   UNL     1      35.756 -22.410 -17.907  0.00  0.00    +0.168 A 
ATOM      6  C   UNL     1      36.282 -22.840 -15.835  0.00  0.00    +0.186 A 
ATOM      7  C   UNL     1      33.746 -23.659 -15.278  0.00  0.00    +0.101 C 
ATOM      8  C   UNL     1      36.016 -23.260 -14.517  0.00  0.00    +0.042 C 
ATOM      9  C   UNL     1      34.781 -23.670 -14.194  0.00  0.00    +0.024 C 
ENDROOT
BRANCH   7  10
ATOM     10  C   UNL     1      32.385 -24.124 -14.901  0.00  0.00    +0.019 C 
ATOM     11  C   UNL     1      32.208 -24.914 -13.765  0.00  0.00    +0.002 C 
ATOM     12  C   UNL     1      31.285 -23.769 -15.683  0.00  0.00    +0.002 C 
ATOM     13  C   UNL     1      30.931 -25.350 -13.411  0.00  0.00    +0.000 C 
ATOM     14  C   UNL     1      30.009 -24.205 -15.329  0.00  0.00    +0.000 C 
ATOM     15  C   UNL     1      29.831 -24.995 -14.192  0.00  0.00    +0.000 C 
ENDBRANCH   7  10
BRANCH   5  16
ATOM     16  C   UNL     1      34.960 -22.277 -19.140  0.00  0.00    +0.094 C 
BRANCH  16  17
ATOM     17  C   UNL     1      35.290 -21.049 -19.977  0.00  0.00    -0.014 C 
ATOM     18  C   UNL     1      34.272 -20.358 -20.633  0.00  0.00    -0.001 C 
ATOM     19  C   UNL     1      36.611 -20.616 -20.088  0.00  0.00    -0.001 C 
ATOM     20  C   UNL     1      34.575 -19.232 -21.401  0.00  0.00    +0.036 C 
ATOM     21  C   UNL     1      36.915 -19.491 -20.856  0.00  0.00    +0.036 C 
ATOM     22  C   UNL     1      35.896 -18.800 -21.512  0.00  0.00    +0.134 C 
BRANCH  22  23
ATOM     23  O   UNL     1      36.192 -17.702 -22.261  0.00  0.00    -0.506 OA
ATOM     24  H   UNL     1      37.056 -17.587 -22.604  0.00  0.00    +0.292 HD
ENDBRANCH  22  23
ENDBRANCH  16  17
ENDBRANCH   5  16
TORSDOF 4
ENDMDL
MODEL 9
REMARK VINA RESULT:     -10.2      5.547     11.056
REMARK  Name = 24901696
REMARK  4 active torsions:
REMARK  status: ('A' for Active; 'I' for Inactive)
REMARK    1  A    between atoms: C_5  and  C_16
REMARK    2  A    between atoms: C_7  and  C_10
REMARK    3  A    between atoms: C_16  and  C_17
REMARK    4  A    between atoms: C_22  and  O_23
REMARK                            x       y       z     vdW  Elec       q    Type
REMARK                         _______ _______ _______ _____ _____    ______ ____
ROOT
ATOM      1  N   UNL     1      32.088  -9.170 -20.950  0.00  0.00    -0.195 N 
ATOM      2  N   UNL     1      32.272  -8.504 -22.117  0.00  0.00    -0.163 NA
ATOM      3  N   UNL     1      31.649 -10.770 -19.517  0.00  0.00    -0.131 NA
ATOM      4  N   UNL     1      31.949  -9.626 -18.805  0.00  0.00    -0.127 NA
ATOM      5  C   UNL     1      31.739 -10.479 -20.796  0.00  0.00    +0.168 A 
ATOM      6  C   UNL     1      32.211  -8.671 -19.673  0.00  0.00    +0.186 A 
ATOM      7  C   UNL     1      32.596  -7.252 -21.964  0.00  0.00    +0.101 C 
ATOM      8  C   UNL     1      32.580  -7.318 -19.538  0.00  0.00    +0.042 C 
ATOM      9  C   UNL     1      32.782  -6.580 -20.638  0.00  0.00    +0.024 C 
ENDROOT
BRANCH   7  10
ATOM     10  C   UNL     1      32.818  -6.413 -23.171  0.00  0.00    +0.019 C 
ATOM     11  C   UNL     1      32.002  -5.308 -23.413  0.00  0.00    +0.002 C 
ATOM     12  C   UNL     1      33.846  -6.730 -24.061  0.00  0.00    +0.002 C 
ATOM     13  C   UNL     1      32.211  -4.521 -24.546  0.00  0.00    +0.000 C 
ATOM     14  C   UNL     1      34.054  -5.944 -25.193  0.00  0.00    +0.000 C 
ATOM     15  C   UNL     1      33.238  -4.838 -25.435  0.00  0.00    +0.000 C 
ENDBRANCH   7  10
BRANCH   5  16
ATOM     16  C   UNL     1      31.507 -11.389 -21.932  0.00  0.00    +0.094 C 
BRANCH  16  17
ATOM     17  C   UNL     1      32.393 -12.627 -21.943  0.00  0.00    -0.014 C 
ATOM     18  C   UNL     1      33.411 -12.748 -22.888  0.00  0.00    -0.001 C 
ATOM     19  C   UNL     1      32.186 -13.640 -21.007  0.00  0.00    -0.001 C 
ATOM     20  C   UNL     1      34.223 -13.883 -22.898  0.00  0.00    +0.036 C 
ATOM     21  C   UNL     1      32.997 -14.775 -21.017  0.00  0.00    +0.036 C 
ATOM     22  C   UNL     1      34.015 -14.896 -21.962  0.00  0.00    +0.134 C 
BRANCH  22  23
ATOM     23  O   UNL     1      34.807 -16.003 -21.973  0.00  0.00    -0.506 OA
ATOM     24  H   UNL     1      35.729 -15.922 -21.824  0.00  0.00    +0.292 HD
ENDBRANCH  22  23
ENDBRANCH  16  17
ENDBRANCH   5  16
TORSDOF 4
ENDMDL
