MODEL 1
REMARK VINA RESULT:     -11.9      0.000      0.000
REMARK  Name = 49866474
REMARK  7 active torsions:
REMARK  status: ('A' for Active; 'I' for Inactive)
REMARK    1  A    between atoms: O_1  and  C_3
REMARK    2  A    between atoms: O_1  and  C_18
REMARK    3  A    between atoms: C_4  and  C_10
REMARK    4  A    between atoms: C_18  and  C_19
REMARK    5  A    between atoms: C_19  and  N_20
REMARK    6  A    between atoms: C_19  and  C_24
REMARK    7  A    between atoms: C_24  and  C_26
REMARK                            x       y       z     vdW  Elec       q    Type
REMARK                         _______ _______ _______ _____ _____    ______ ____
ROOT
ATOM      1  O   UNL     1      35.337 -15.785 -22.470  0.00  0.00    -0.476 OA
ENDROOT
BRANCH   1   3
ATOM      2  N   UNL     1      34.595 -18.953 -24.144  0.00  0.00    -0.239 NA
ATOM      3  C   UNL     1      35.127 -17.127 -22.650  0.00  0.00    +0.158 C 
ATOM      4  C   UNL     1      35.006 -19.374 -21.798  0.00  0.00    +0.022 C 
ATOM      5  C   UNL     1      35.223 -18.017 -21.585  0.00  0.00    +0.040 C 
ATOM      6  C   UNL     1      34.813 -17.642 -23.898  0.00  0.00    +0.136 C 
ATOM      7  C   UNL     1      34.698 -19.787 -23.084  0.00  0.00    +0.099 C 
BRANCH   4  10
ATOM      8  N   UNL     1      35.075 -23.025 -17.634  0.00  0.00    -0.236 N 
ATOM      9  N   UNL     1      33.776 -23.295 -17.417  0.00  0.00    -0.180 NA
ATOM     10  C   UNL     1      35.099 -20.322 -20.713  0.00  0.00    +0.002 C 
ATOM     11  C   UNL     1      34.039 -21.787 -19.118  0.00  0.00    +0.035 C 
ATOM     12  C   UNL     1      33.927 -20.868 -20.174  0.00  0.00    +0.003 C 
ATOM     13  C   UNL     1      35.301 -22.127 -18.641  0.00  0.00    +0.067 C 
ATOM     14  C   UNL     1      36.352 -20.682 -20.216  0.00  0.00    +0.001 C 
ATOM     15  C   UNL     1      36.481 -21.595 -19.165  0.00  0.00    +0.016 C 
ATOM     16  C   UNL     1      33.150 -22.540 -18.321  0.00  0.00    +0.119 C 
ATOM     17  H   UNL     1      35.801 -23.438 -17.113  0.00  0.00    +0.174 HD
ENDBRANCH   4  10
ENDBRANCH   1   3
BRANCH   1  18
ATOM     18  C   UNL     1      34.358 -15.077 -21.721  0.00  0.00    +0.184 C 
BRANCH  18  19
ATOM     19  C   UNL     1      33.928 -13.809 -22.467  0.00  0.00    -0.017 C 
BRANCH  19  20
ATOM     20  N   UNL     1      34.183 -14.008 -23.897  0.00  0.00    +0.384 N 
ATOM     21  H   UNL     1      35.057 -14.519 -24.019  0.00  0.00    -0.089 HD
ATOM     22  H   UNL     1      34.251 -13.102 -24.359  0.00  0.00    -0.089 HD
ATOM     23  H   UNL     1      33.416 -14.542 -24.307  0.00  0.00    -0.089 HD
ENDBRANCH  19  20
BRANCH  19  24
ATOM     24  C   UNL     1      32.433 -13.461 -22.264  0.00  0.00    +0.006 C 
BRANCH  24  26
ATOM     25  N   UNL     1      32.552  -9.708 -22.376  0.00  0.00    -0.234 NA
ATOM     26  C   UNL     1      32.162 -12.034 -22.007  0.00  0.00    -0.024 C 
ATOM     27  C   UNL     1      31.627 -11.367 -20.985  0.00  0.00    +0.065 C 
ATOM     28  C   UNL     1      31.658  -9.882 -21.212  0.00  0.00    +0.122 C 
ATOM     29  C   UNL     1      32.717 -10.928 -22.799  0.00  0.00    +0.072 C 
ATOM     30  C   UNL     1      31.200 -11.847 -19.695  0.00  0.00    -0.020 C 
ATOM     31  C   UNL     1      32.087  -9.140 -19.978  0.00  0.00    -0.004 C 
ATOM     32  C   UNL     1      31.315 -11.025 -18.635  0.00  0.00    -0.004 C 
ATOM     33  C   UNL     1      31.894  -9.695 -18.766  0.00  0.00    -0.003 C 
ENDBRANCH  24  26
ENDBRANCH  19  24
ENDBRANCH  18  19
ENDBRANCH   1  18
TORSDOF 7
ENDMDL
MODEL 2
REMARK VINA RESULT:     -11.8      1.644      9.608
REMARK  Name = 49866474
REMARK  7 active torsions:
REMARK  status: ('A' for Active; 'I' for Inactive)
REMARK    1  A    between atoms: O_1  and  C_3
REMARK    2  A    between atoms: O_1  and  C_18
REMARK    3  A    between atoms: C_4  and  C_10
REMARK    4  A    between atoms: C_18  and  C_19
REMARK    5  A    between atoms: C_19  and  N_20
REMARK    6  A    between atoms: C_19  and  C_24
REMARK    7  A    between atoms: C_24  and  C_26
REMARK                            x       y       z     vdW  Elec       q    Type
REMARK                         _______ _______ _______ _____ _____    ______ ____
ROOT
ATOM      1  O   UNL     1      35.663 -17.663 -23.128  0.00  0.00    -0.476 OA
ENDROOT
BRANCH   1   3
ATOM      2  N   UNL     1      33.791 -16.111 -25.861  0.00  0.00    -0.239 NA
ATOM      3  C   UNL     1      34.917 -16.743 -23.816  0.00  0.00    +0.158 C 
ATOM      4  C   UNL     1      33.766 -14.635 -23.946  0.00  0.00    +0.022 C 
ATOM      5  C   UNL     1      34.524 -15.549 -23.223  0.00  0.00    +0.040 C 
ATOM      6  C   UNL     1      34.528 -16.974 -25.126  0.00  0.00    +0.136 C 
ATOM      7  C   UNL     1      33.428 -14.960 -25.250  0.00  0.00    +0.099 C 
BRANCH   4  10
ATOM      8  N   UNL     1      31.993  -9.997 -21.490  0.00  0.00    -0.236 N 
ATOM      9  N   UNL     1      31.237 -10.438 -20.471  0.00  0.00    -0.180 NA
ATOM     10  C   UNL     1      33.343 -13.386 -23.356  0.00  0.00    +0.002 C 
ATOM     11  C   UNL     1      32.109 -12.179 -21.672  0.00  0.00    +0.035 C 
ATOM     12  C   UNL     1      32.510 -13.405 -22.229  0.00  0.00    +0.003 C 
ATOM     13  C   UNL     1      32.546 -10.992 -22.250  0.00  0.00    +0.067 C 
ATOM     14  C   UNL     1      33.766 -12.181 -23.916  0.00  0.00    +0.001 C 
ATOM     15  C   UNL     1      33.375 -10.952 -23.373  0.00  0.00    +0.016 C 
ATOM     16  C   UNL     1      31.310 -11.765 -20.585  0.00  0.00    +0.119 C 
ATOM     17  H   UNL     1      32.138  -9.041 -21.674  0.00  0.00    +0.174 HD
ENDBRANCH   4  10
ENDBRANCH   1   3
BRANCH   1  18
ATOM     18  C   UNL     1      35.199 -19.007 -23.142  0.00  0.00    +0.184 C 
BRANCH  18  19
ATOM     19  C   UNL     1      35.591 -19.723 -21.845  0.00  0.00    -0.017 C 
BRANCH  19  20
ATOM     20  N   UNL     1      36.843 -19.137 -21.357  0.00  0.00    +0.384 N 
ATOM     21  H   UNL     1      37.354 -19.831 -20.811  0.00  0.00    -0.089 HD
ATOM     22  H   UNL     1      36.635 -18.329 -20.772  0.00  0.00    -0.089 HD
ATOM     23  H   UNL     1      37.413 -18.843 -22.151  0.00  0.00    -0.089 HD
ENDBRANCH  19  20
BRANCH  19  24
ATOM     24  C   UNL     1      34.515 -19.610 -20.738  0.00  0.00    +0.006 C 
BRANCH  24  26
ATOM     25  N   UNL     1      32.817 -22.385 -18.859  0.00  0.00    -0.234 NA
ATOM     26  C   UNL     1      34.257 -20.860 -20.000  0.00  0.00    -0.024 C 
ATOM     27  C   UNL     1      35.024 -21.682 -19.283  0.00  0.00    +0.065 C 
ATOM     28  C   UNL     1      34.223 -22.797 -18.670  0.00  0.00    +0.122 C 
ATOM     29  C   UNL     1      32.920 -21.366 -19.662  0.00  0.00    +0.072 C 
ATOM     30  C   UNL     1      36.408 -21.553 -18.905  0.00  0.00    -0.020 C 
ATOM     31  C   UNL     1      34.616 -23.041 -17.240  0.00  0.00    -0.004 C 
ATOM     32  C   UNL     1      36.801 -22.068 -17.724  0.00  0.00    -0.004 C 
ATOM     33  C   UNL     1      35.851 -22.706 -16.822  0.00  0.00    -0.003 C 
ENDBRANCH  24  26
ENDBRANCH  19  24
ENDBRANCH  18  19
ENDBRANCH   1  18
TORSDOF 7
ENDMDL
MODEL 3
REMARK VINA RESULT:     -11.6      1.507      2.254
REMARK  Name = 49866474
REMARK  7 active torsions:
REMARK  status: ('A' for Active; 'I' for Inactive)
REMARK    1  A    between atoms: O_1  and  C_3
REMARK    2  A    between atoms: O_1  and  C_18
REMARK    3  A    between atoms: C_4  and  C_10
REMARK    4  A    between atoms: C_18  and  C_19
REMARK    5  A    between atoms: C_19  and  N_20
REMARK    6  A    between atoms: C_19  and  C_24
REMARK    7  A    between atoms: C_24  and  C_26
REMARK                            x       y       z     vdW  Elec       q    Type
REMARK                         _______ _______ _______ _____ _____    ______ ____
ROOT
ATOM      1  O   UNL     1      34.562 -14.483 -21.239  0.00  0.00    -0.476 OA
ENDROOT
BRANCH   1   3
ATOM      2  N   UNL     1      35.047 -16.981 -23.868  0.00  0.00    -0.239 NA
ATOM      3  C   UNL     1      34.753 -15.701 -21.837  0.00  0.00    +0.158 C 
ATOM      4  C   UNL     1      35.043 -18.086 -21.717  0.00  0.00    +0.022 C 
ATOM      5  C   UNL     1      34.848 -16.864 -21.082  0.00  0.00    +0.040 C 
ATOM      6  C   UNL     1      34.858 -15.812 -23.215  0.00  0.00    +0.136 C 
ATOM      7  C   UNL     1      35.136 -18.090 -23.099  0.00  0.00    +0.099 C 
BRANCH   4  10
ATOM      8  N   UNL     1      35.151 -22.800 -18.811  0.00  0.00    -0.236 N 
ATOM      9  N   UNL     1      33.855 -23.128 -18.677  0.00  0.00    -0.180 NA
ATOM     10  C   UNL     1      35.146 -19.311 -20.959  0.00  0.00    +0.002 C 
ATOM     11  C   UNL     1      34.102 -21.186 -19.860  0.00  0.00    +0.035 C 
ATOM     12  C   UNL     1      33.979 -19.997 -20.598  0.00  0.00    +0.003 C 
ATOM     13  C   UNL     1      35.367 -21.644 -19.511  0.00  0.00    +0.067 C 
ATOM     14  C   UNL     1      36.404 -19.793 -20.595  0.00  0.00    +0.001 C 
ATOM     15  C   UNL     1      36.542 -20.975 -19.860  0.00  0.00    +0.016 C 
ATOM     16  C   UNL     1      33.220 -22.145 -19.317  0.00  0.00    +0.119 C 
ATOM     17  H   UNL     1      35.882 -23.344 -18.438  0.00  0.00    +0.174 HD
ENDBRANCH   4  10
ENDBRANCH   1   3
BRANCH   1  18
ATOM     18  C   UNL     1      33.268 -14.223 -20.710  0.00  0.00    +0.184 C 
BRANCH  18  19
ATOM     19  C   UNL     1      32.603 -13.066 -21.464  0.00  0.00    -0.017 C 
BRANCH  19  20
ATOM     20  N   UNL     1      31.944 -13.612 -22.654  0.00  0.00    +0.384 N 
ATOM     21  H   UNL     1      31.366 -14.409 -22.388  0.00  0.00    -0.089 HD
ATOM     22  H   UNL     1      32.650 -13.913 -23.325  0.00  0.00    -0.089 HD
ATOM     23  H   UNL     1      31.357 -12.893 -23.078  0.00  0.00    -0.089 HD
ENDBRANCH  19  20
BRANCH  19  24
ATOM     24  C   UNL     1      31.557 -12.306 -20.612  0.00  0.00    +0.006 C 
BRANCH  24  26
ATOM     25  N   UNL     1      31.963  -8.973 -18.926  0.00  0.00    -0.234 NA
ATOM     26  C   UNL     1      31.893 -10.896 -20.340  0.00  0.00    -0.024 C 
ATOM     27  C   UNL     1      32.098  -9.831 -21.114  0.00  0.00    +0.065 C 
ATOM     28  C   UNL     1      32.340  -8.590 -20.302  0.00  0.00    +0.122 C 
ATOM     29  C   UNL     1      31.811 -10.263 -19.017  0.00  0.00    +0.072 C 
ATOM     30  C   UNL     1      31.960  -9.691 -22.541  0.00  0.00    -0.020 C 
ATOM     31  C   UNL     1      31.588  -7.411 -20.852  0.00  0.00    -0.004 C 
ATOM     32  C   UNL     1      31.571  -8.501 -23.035  0.00  0.00    -0.004 C 
ATOM     33  C   UNL     1      31.253  -7.383 -22.156  0.00  0.00    -0.003 C 
ENDBRANCH  24  26
ENDBRANCH  19  24
ENDBRANCH  18  19
ENDBRANCH   1  18
TORSDOF 7
ENDMDL
MODEL 4
REMARK VINA RESULT:     -11.4      3.643      6.535
REMARK  Name = 49866474
REMARK  7 active torsions:
REMARK  status: ('A' for Active; 'I' for Inactive)
REMARK    1  A    between atoms: O_1  and  C_3
REMARK    2  A    between atoms: O_1  and  C_18
REMARK    3  A    between atoms: C_4  and  C_10
REMARK    4  A    between atoms: C_18  and  C_19
REMARK    5  A    between atoms: C_19  and  N_20
REMARK    6  A    between atoms: C_19  and  C_24
REMARK    7  A    between atoms: C_24  and  C_26
REMARK                            x       y       z     vdW  Elec       q    Type
REMARK                         _______ _______ _______ _____ _____    ______ ____
ROOT
ATOM      1  O   UNL     1      35.776 -21.246 -19.734  0.00  0.00    -0.476 OA
ENDROOT
BRANCH   1   3
ATOM      2  N   UNL     1      32.982 -22.931 -18.079  0.00  0.00    -0.239 NA
ATOM      3  C   UNL     1      35.076 -21.956 -18.794  0.00  0.00    +0.158 C 
ATOM      4  C   UNL     1      34.959 -23.139 -16.702  0.00  0.00    +0.022 C 
ATOM      5  C   UNL     1      35.695 -22.420 -17.638  0.00  0.00    +0.040 C 
ATOM      6  C   UNL     1      33.730 -22.236 -18.965  0.00  0.00    +0.136 C 
ATOM      7  C   UNL     1      33.619 -23.366 -16.967  0.00  0.00    +0.099 C 
BRANCH   4  10
ATOM      8  N   UNL     1      37.052 -25.075 -11.954  0.00  0.00    -0.236 N 
ATOM      9  N   UNL     1      35.968 -25.357 -11.212  0.00  0.00    -0.180 NA
ATOM     10  C   UNL     1      35.574 -23.635 -15.493  0.00  0.00    +0.002 C 
ATOM     11  C   UNL     1      35.380 -24.527 -13.262  0.00  0.00    +0.035 C 
ATOM     12  C   UNL     1      34.762 -24.051 -14.429  0.00  0.00    +0.003 C 
ATOM     13  C   UNL     1      36.768 -24.573 -13.195  0.00  0.00    +0.067 C 
ATOM     14  C   UNL     1      36.965 -23.691 -15.399  0.00  0.00    +0.001 C 
ATOM     15  C   UNL     1      37.595 -24.163 -14.243  0.00  0.00    +0.016 C 
ATOM     16  C   UNL     1      34.953 -25.023 -12.011  0.00  0.00    +0.119 C 
ATOM     17  H   UNL     1      37.972 -25.217 -11.632  0.00  0.00    +0.174 HD
ENDBRANCH   4  10
ENDBRANCH   1   3
BRANCH   1  18
ATOM     18  C   UNL     1      35.014 -20.538 -20.702  0.00  0.00    +0.184 C 
BRANCH  18  19
ATOM     19  C   UNL     1      35.583 -19.130 -20.908  0.00  0.00    -0.017 C 
BRANCH  19  20
ATOM     20  N   UNL     1      37.021 -19.170 -20.626  0.00  0.00    +0.384 N 
ATOM     21  H   UNL     1      37.219 -19.929 -19.974  0.00  0.00    -0.089 HD
ATOM     22  H   UNL     1      37.312 -18.284 -20.216  0.00  0.00    -0.089 HD
ATOM     23  H   UNL     1      37.533 -19.327 -21.495  0.00  0.00    -0.089 HD
ENDBRANCH  19  20
BRANCH  19  24
ATOM     24  C   UNL     1      35.364 -18.589 -22.343  0.00  0.00    +0.006 C 
BRANCH  24  26
ATOM     25  N   UNL     1      34.379 -15.069 -21.476  0.00  0.00    -0.234 NA
ATOM     26  C   UNL     1      35.099 -17.140 -22.420  0.00  0.00    -0.024 C 
ATOM     27  C   UNL     1      34.855 -16.300 -23.425  0.00  0.00    +0.065 C 
ATOM     28  C   UNL     1      34.571 -14.909 -22.932  0.00  0.00    +0.122 C 
ATOM     29  C   UNL     1      34.764 -16.294 -21.266  0.00  0.00    +0.072 C 
ATOM     30  C   UNL     1      34.675 -16.572 -24.828  0.00  0.00    -0.020 C 
ATOM     31  C   UNL     1      33.406 -14.291 -23.653  0.00  0.00    -0.004 C 
ATOM     32  C   UNL     1      33.837 -15.788 -25.532  0.00  0.00    -0.004 C 
ATOM     33  C   UNL     1      33.091 -14.711 -24.893  0.00  0.00    -0.003 C 
ENDBRANCH  24  26
ENDBRANCH  19  24
ENDBRANCH  18  19
ENDBRANCH   1  18
TORSDOF 7
ENDMDL
MODEL 5
REMARK VINA RESULT:     -11.4      3.203     10.553
REMARK  Name = 49866474
REMARK  7 active torsions:
REMARK  status: ('A' for Active; 'I' for Inactive)
REMARK    1  A    between atoms: O_1  and  C_3
REMARK    2  A    between atoms: O_1  and  C_18
REMARK    3  A    between atoms: C_4  and  C_10
REMARK    4  A    between atoms: C_18  and  C_19
REMARK    5  A    between atoms: C_19  and  N_20
REMARK    6  A    between atoms: C_19  and  C_24
REMARK    7  A    between atoms: C_24  and  C_26
REMARK                            x       y       z     vdW  Elec       q    Type
REMARK                         _______ _______ _______ _____ _____    ______ ____
ROOT
ATOM      1  O   UNL     1      33.566 -22.082 -19.677  0.00  0.00    -0.476 OA
ENDROOT
BRANCH   1   3
ATOM      2  N   UNL     1      36.902 -20.591 -19.868  0.00  0.00    -0.239 NA
ATOM      3  C   UNL     1      34.565 -21.200 -19.996  0.00  0.00    +0.158 C 
ATOM      4  C   UNL     1      35.336 -19.181 -21.054  0.00  0.00    +0.022 C 
ATOM      5  C   UNL     1      34.301 -20.057 -20.743  0.00  0.00    +0.040 C 
ATOM      6  C   UNL     1      35.871 -21.418 -19.586  0.00  0.00    +0.136 C 
ATOM      7  C   UNL     1      36.607 -19.491 -20.596  0.00  0.00    +0.099 C 
BRANCH   4  10
ATOM      8  N   UNL     1      34.363 -14.457 -23.776  0.00  0.00    -0.236 N 
ATOM      9  N   UNL     1      34.143 -13.559 -22.801  0.00  0.00    -0.180 NA
ATOM     10  C   UNL     1      35.093 -17.986 -21.828  0.00  0.00    +0.002 C 
ATOM     11  C   UNL     1      34.579 -15.633 -21.939  0.00  0.00    +0.035 C 
ATOM     12  C   UNL     1      34.813 -16.783 -21.167  0.00  0.00    +0.003 C 
ATOM     13  C   UNL     1      34.631 -15.721 -23.326  0.00  0.00    +0.067 C 
ATOM     14  C   UNL     1      35.139 -18.046 -23.221  0.00  0.00    +0.001 C 
ATOM     15  C   UNL     1      34.908 -16.910 -24.003  0.00  0.00    +0.016 C 
ATOM     16  C   UNL     1      34.275 -14.279 -21.685  0.00  0.00    +0.119 C 
ATOM     17  H   UNL     1      34.336 -14.225 -24.733  0.00  0.00    +0.174 HD
ENDBRANCH   4  10
ENDBRANCH   1   3
BRANCH   1  18
ATOM     18  C   UNL     1      33.051 -22.016 -18.354  0.00  0.00    +0.184 C 
BRANCH  18  19
ATOM     19  C   UNL     1      33.181 -23.376 -17.660  0.00  0.00    -0.017 C 
BRANCH  19  20
ATOM     20  N   UNL     1      33.817 -24.310 -18.594  0.00  0.00    +0.384 N 
ATOM     21  H   UNL     1      34.351 -25.004 -18.071  0.00  0.00    -0.089 HD
ATOM     22  H   UNL     1      34.442 -23.796 -19.214  0.00  0.00    -0.089 HD
ATOM     23  H   UNL     1      33.100 -24.779 -19.148  0.00  0.00    -0.089 HD
ENDBRANCH  19  20
BRANCH  19  24
ATOM     24  C   UNL     1      34.016 -23.318 -16.357  0.00  0.00    +0.006 C 
BRANCH  24  26
ATOM     25  N   UNL     1      33.058 -24.862 -13.069  0.00  0.00    -0.234 NA
ATOM     26  C   UNL     1      33.276 -23.687 -15.136  0.00  0.00    -0.024 C 
ATOM     27  C   UNL     1      31.985 -23.689 -14.805  0.00  0.00    +0.065 C 
ATOM     28  C   UNL     1      31.764 -24.246 -13.427  0.00  0.00    +0.122 C 
ATOM     29  C   UNL     1      33.849 -24.443 -14.014  0.00  0.00    +0.072 C 
ATOM     30  C   UNL     1      30.828 -23.399 -15.613  0.00  0.00    -0.020 C 
ATOM     31  C   UNL     1      30.591 -25.186 -13.389  0.00  0.00    -0.004 C 
ATOM     32  C   UNL     1      29.680 -24.051 -15.348  0.00  0.00    -0.004 C 
ATOM     33  C   UNL     1      29.607 -25.059 -14.299  0.00  0.00    -0.003 C 
ENDBRANCH  24  26
ENDBRANCH  19  24
ENDBRANCH  18  19
ENDBRANCH   1  18
TORSDOF 7
ENDMDL
MODEL 6
REMARK VINA RESULT:     -11.3      4.467     11.630
REMARK  Name = 49866474
REMARK  7 active torsions:
REMARK  status: ('A' for Active; 'I' for Inactive)
REMARK    1  A    between atoms: O_1  and  C_3
REMARK    2  A    between atoms: O_1  and  C_18
REMARK    3  A    between atoms: C_4  and  C_10
REMARK    4  A    between atoms: C_18  and  C_19
REMARK    5  A    between atoms: C_19  and  N_20
REMARK    6  A    between atoms: C_19  and  C_24
REMARK    7  A    between atoms: C_24  and  C_26
REMARK                            x       y       z     vdW  Elec       q    Type
REMARK                         _______ _______ _______ _____ _____    ______ ____
ROOT
ATOM      1  O   UNL     1      36.289 -22.676 -18.125  0.00  0.00    -0.476 OA
ENDROOT
BRANCH   1   3
ATOM      2  N   UNL     1      32.882 -21.903 -19.212  0.00  0.00    -0.239 NA
ATOM      3  C   UNL     1      35.259 -22.084 -18.809  0.00  0.00    +0.158 C 
ATOM      4  C   UNL     1      34.438 -20.517 -20.439  0.00  0.00    +0.022 C 
ATOM      5  C   UNL     1      35.503 -21.101 -19.761  0.00  0.00    +0.040 C 
ATOM      6  C   UNL     1      33.942 -22.447 -18.574  0.00  0.00    +0.136 C 
ATOM      7  C   UNL     1      33.158 -20.949 -20.130  0.00  0.00    +0.099 C 
BRANCH   4  10
ATOM      8  N   UNL     1      35.248 -16.390 -24.043  0.00  0.00    -0.236 N 
ATOM      9  N   UNL     1      35.141 -15.279 -23.295  0.00  0.00    -0.180 NA
ATOM     10  C   UNL     1      34.659 -19.493 -21.433  0.00  0.00    +0.002 C 
ATOM     11  C   UNL     1      34.844 -17.165 -22.032  0.00  0.00    +0.035 C 
ATOM     12  C   UNL     1      34.628 -18.145 -21.050  0.00  0.00    +0.003 C 
ATOM     13  C   UNL     1      35.080 -17.556 -23.346  0.00  0.00    +0.067 C 
ATOM     14  C   UNL     1      34.898 -19.857 -22.758  0.00  0.00    +0.001 C 
ATOM     15  C   UNL     1      35.114 -18.892 -23.747  0.00  0.00    +0.016 C 
ATOM     16  C   UNL     1      34.895 -15.755 -22.072  0.00  0.00    +0.119 C 
ATOM     17  H   UNL     1      35.432 -16.368 -25.010  0.00  0.00    +0.174 HD
ENDBRANCH   4  10
ENDBRANCH   1   3
BRANCH   1  18
ATOM     18  C   UNL     1      36.807 -21.967 -17.007  0.00  0.00    +0.184 C 
BRANCH  18  19
ATOM     19  C   UNL     1      36.809 -22.859 -15.761  0.00  0.00    -0.017 C 
BRANCH  19  20
ATOM     20  N   UNL     1      35.760 -23.871 -15.919  0.00  0.00    +0.384 N 
ATOM     21  H   UNL     1      34.845 -23.424 -15.869  0.00  0.00    -0.089 HD
ATOM     22  H   UNL     1      35.842 -24.564 -15.176  0.00  0.00    -0.089 HD
ATOM     23  H   UNL     1      35.865 -24.330 -16.825  0.00  0.00    -0.089 HD
ENDBRANCH  19  20
BRANCH  19  24
ATOM     24  C   UNL     1      38.164 -23.569 -15.522  0.00  0.00    +0.006 C 
BRANCH  24  26
ATOM     25  N   UNL     1      38.129 -26.770 -13.555  0.00  0.00    -0.234 NA
ATOM     26  C   UNL     1      38.162 -24.542 -14.414  0.00  0.00    -0.024 C 
ATOM     27  C   UNL     1      37.811 -24.476 -13.130  0.00  0.00    +0.065 C 
ATOM     28  C   UNL     1      37.937 -25.810 -12.449  0.00  0.00    +0.122 C 
ATOM     29  C   UNL     1      38.322 -25.993 -14.582  0.00  0.00    +0.072 C 
ATOM     30  C   UNL     1      37.203 -23.395 -12.397  0.00  0.00    -0.020 C 
ATOM     31  C   UNL     1      36.754 -26.098 -11.568  0.00  0.00    -0.004 C 
ATOM     32  C   UNL     1      36.364 -23.696 -11.388  0.00  0.00    -0.004 C 
ATOM     33  C   UNL     1      36.038 -25.078 -11.060  0.00  0.00    -0.003 C 
ENDBRANCH  24  26
ENDBRANCH  19  24
ENDBRANCH  18  19
ENDBRANCH   1  18
TORSDOF 7
ENDMDL
MODEL 7
REMARK VINA RESULT:     -11.2      3.581      6.514
REMARK  Name = 49866474
REMARK  7 active torsions:
REMARK  status: ('A' for Active; 'I' for Inactive)
REMARK    1  A    between atoms: O_1  and  C_3
REMARK    2  A    between atoms: O_1  and  C_18
REMARK    3  A    between atoms: C_4  and  C_10
REMARK    4  A    between atoms: C_18  and  C_19
REMARK    5  A    between atoms: C_19  and  N_20
REMARK    6  A    between atoms: C_19  and  C_24
REMARK    7  A    between atoms: C_24  and  C_26
REMARK                            x       y       z     vdW  Elec       q    Type
REMARK                         _______ _______ _______ _____ _____    ______ ____
ROOT
ATOM      1  O   UNL     1      35.593 -21.648 -20.080  0.00  0.00    -0.476 OA
ENDROOT
BRANCH   1   3
ATOM      2  N   UNL     1      36.937 -22.501 -16.785  0.00  0.00    -0.239 NA
ATOM      3  C   UNL     1      35.636 -22.076 -18.779  0.00  0.00    +0.158 C 
ATOM      4  C   UNL     1      34.558 -22.936 -16.807  0.00  0.00    +0.022 C 
ATOM      5  C   UNL     1      34.485 -22.508 -18.128  0.00  0.00    +0.040 C 
ATOM      6  C   UNL     1      36.826 -22.092 -18.069  0.00  0.00    +0.136 C 
ATOM      7  C   UNL     1      35.797 -22.913 -16.186  0.00  0.00    +0.099 C 
BRANCH   4  10
ATOM      8  N   UNL     1      29.882 -24.556 -14.321  0.00  0.00    -0.236 N 
ATOM      9  N   UNL     1      28.910 -24.114 -15.137  0.00  0.00    -0.180 NA
ATOM     10  C   UNL     1      33.381 -23.390 -16.105  0.00  0.00    +0.002 C 
ATOM     11  C   UNL     1      30.982 -23.571 -15.941  0.00  0.00    +0.035 C 
ATOM     12  C   UNL     1      32.114 -23.123 -16.641  0.00  0.00    +0.003 C 
ATOM     13  C   UNL     1      31.149 -24.262 -14.746  0.00  0.00    +0.067 C 
ATOM     14  C   UNL     1      33.519 -24.085 -14.903  0.00  0.00    +0.001 C 
ATOM     15  C   UNL     1      32.402 -24.538 -14.195  0.00  0.00    +0.016 C 
ATOM     16  C   UNL     1      29.583 -23.517 -16.122  0.00  0.00    +0.119 C 
ATOM     17  H   UNL     1      29.698 -25.048 -13.489  0.00  0.00    +0.174 HD
ENDBRANCH   4  10
ENDBRANCH   1   3
BRANCH   1  18
ATOM     18  C   UNL     1      34.684 -20.597 -20.380  0.00  0.00    +0.184 C 
BRANCH  18  19
ATOM     19  C   UNL     1      35.445 -19.315 -20.734  0.00  0.00    -0.017 C 
BRANCH  19  20
ATOM     20  N   UNL     1      36.881 -19.581 -20.601  0.00  0.00    +0.384 N 
ATOM     21  H   UNL     1      37.090 -20.511 -20.967  0.00  0.00    -0.089 HD
ATOM     22  H   UNL     1      37.146 -19.535 -19.618  0.00  0.00    -0.089 HD
ATOM     23  H   UNL     1      37.406 -18.883 -21.128  0.00  0.00    -0.089 HD
ENDBRANCH  19  20
BRANCH  19  24
ATOM     24  C   UNL     1      35.156 -18.811 -22.169  0.00  0.00    +0.006 C 
BRANCH  24  26
ATOM     25  N   UNL     1      34.450 -15.199 -21.415  0.00  0.00    -0.234 NA
ATOM     26  C   UNL     1      35.010 -17.349 -22.290  0.00  0.00    -0.024 C 
ATOM     27  C   UNL     1      34.849 -16.521 -23.322  0.00  0.00    +0.065 C 
ATOM     28  C   UNL     1      34.673 -15.097 -22.872  0.00  0.00    +0.122 C 
ATOM     29  C   UNL     1      34.731 -16.445 -21.166  0.00  0.00    +0.072 C 
ATOM     30  C   UNL     1      34.666 -16.817 -24.720  0.00  0.00    -0.020 C 
ATOM     31  C   UNL     1      33.572 -14.408 -23.627  0.00  0.00    -0.004 C 
ATOM     32  C   UNL     1      33.903 -15.988 -25.457  0.00  0.00    -0.004 C 
ATOM     33  C   UNL     1      33.240 -14.837 -24.860  0.00  0.00    -0.003 C 
ENDBRANCH  24  26
ENDBRANCH  19  24
ENDBRANCH  18  19
ENDBRANCH   1  18
TORSDOF 7
ENDMDL
MODEL 8
REMARK VINA RESULT:     -11.2      1.873      3.312
REMARK  Name = 49866474
REMARK  7 active torsions:
REMARK  status: ('A' for Active; 'I' for Inactive)
REMARK    1  A    between atoms: O_1  and  C_3
REMARK    2  A    between atoms: O_1  and  C_18
REMARK    3  A    between atoms: C_4  and  C_10
REMARK    4  A    between atoms: C_18  and  C_19
REMARK    5  A    between atoms: C_19  and  N_20
REMARK    6  A    between atoms: C_19  and  C_24
REMARK    7  A    between atoms: C_24  and  C_26
REMARK                            x       y       z     vdW  Elec       q    Type
REMARK                         _______ _______ _______ _____ _____    ______ ____
ROOT
ATOM      1  O   UNL     1      35.193 -15.666 -21.889  0.00  0.00    -0.476 OA
ENDROOT
BRANCH   1   3
ATOM      2  N   UNL     1      34.751 -18.731 -23.838  0.00  0.00    -0.239 NA
ATOM      3  C   UNL     1      35.070 -16.999 -22.180  0.00  0.00    +0.158 C 
ATOM      4  C   UNL     1      35.008 -19.307 -21.503  0.00  0.00    +0.022 C 
ATOM      5  C   UNL     1      35.134 -17.961 -21.178  0.00  0.00    +0.040 C 
ATOM      6  C   UNL     1      34.878 -17.433 -23.482  0.00  0.00    +0.136 C 
ATOM      7  C   UNL     1      34.819 -19.637 -22.836  0.00  0.00    +0.099 C 
BRANCH   4  10
ATOM      8  N   UNL     1      34.962 -23.233 -17.596  0.00  0.00    -0.236 N 
ATOM      9  N   UNL     1      33.656 -23.483 -17.403  0.00  0.00    -0.180 NA
ATOM     10  C   UNL     1      35.071 -20.329 -20.485  0.00  0.00    +0.002 C 
ATOM     11  C   UNL     1      33.966 -21.871 -18.996  0.00  0.00    +0.035 C 
ATOM     12  C   UNL     1      33.882 -20.880 -19.988  0.00  0.00    +0.003 C 
ATOM     13  C   UNL     1      35.216 -22.274 -18.540  0.00  0.00    +0.067 C 
ATOM     14  C   UNL     1      36.312 -20.753 -20.009  0.00  0.00    +0.001 C 
ATOM     15  C   UNL     1      36.411 -21.738 -19.022  0.00  0.00    +0.016 C 
ATOM     16  C   UNL     1      33.054 -22.653 -18.257  0.00  0.00    +0.119 C 
ATOM     17  H   UNL     1      35.674 -23.698 -17.102  0.00  0.00    +0.174 HD
ENDBRANCH   4  10
ENDBRANCH   1   3
BRANCH   1  18
ATOM     18  C   UNL     1      34.430 -15.175 -20.794  0.00  0.00    +0.184 C 
BRANCH  18  19
ATOM     19  C   UNL     1      32.935 -15.197 -21.130  0.00  0.00    -0.017 C 
BRANCH  19  20
ATOM     20  N   UNL     1      32.205 -15.655 -19.944  0.00  0.00    +0.384 N 
ATOM     21  H   UNL     1      31.839 -14.849 -19.437  0.00  0.00    -0.089 HD
ATOM     22  H   UNL     1      32.834 -16.181 -19.339  0.00  0.00    -0.089 HD
ATOM     23  H   UNL     1      31.431 -16.255 -20.232  0.00  0.00    -0.089 HD
ENDBRANCH  19  20
BRANCH  19  24
ATOM     24  C   UNL     1      32.386 -13.814 -21.557  0.00  0.00    +0.006 C 
BRANCH  24  26
ATOM     25  N   UNL     1      33.898 -11.262 -23.864  0.00  0.00    -0.234 NA
ATOM     26  C   UNL     1      33.123 -13.175 -22.664  0.00  0.00    -0.024 C 
ATOM     27  C   UNL     1      33.500 -13.582 -23.876  0.00  0.00    +0.065 C 
ATOM     28  C   UNL     1      34.174 -12.483 -24.648  0.00  0.00    +0.122 C 
ATOM     29  C   UNL     1      33.394 -11.735 -22.760  0.00  0.00    +0.072 C 
ATOM     30  C   UNL     1      33.212 -14.815 -24.563  0.00  0.00    -0.020 C 
ATOM     31  C   UNL     1      33.699 -12.432 -26.073  0.00  0.00    -0.004 C 
ATOM     32  C   UNL     1      33.094 -14.790 -25.904  0.00  0.00    -0.004 C 
ATOM     33  C   UNL     1      33.211 -13.545 -26.652  0.00  0.00    -0.003 C 
ENDBRANCH  24  26
ENDBRANCH  19  24
ENDBRANCH  18  19
ENDBRANCH   1  18
TORSDOF 7
ENDMDL
MODEL 9
REMARK VINA RESULT:     -11.1      3.987     11.027
REMARK  Name = 49866474
REMARK  7 active torsions:
REMARK  status: ('A' for Active; 'I' for Inactive)
REMARK    1  A    between atoms: O_1  and  C_3
REMARK    2  A    between atoms: O_1  and  C_18
REMARK    3  A    between atoms: C_4  and  C_10
REMARK    4  A    between atoms: C_18  and  C_19
REMARK    5  A    between atoms: C_19  and  N_20
REMARK    6  A    between atoms: C_19  and  C_24
REMARK    7  A    between atoms: C_24  and  C_26
REMARK                            x       y       z     vdW  Elec       q    Type
REMARK                         _______ _______ _______ _____ _____    ______ ____
ROOT
ATOM      1  O   UNL     1      33.099 -22.601 -18.449  0.00  0.00    -0.476 OA
ENDROOT
BRANCH   1   3
ATOM      2  N   UNL     1      36.598 -21.750 -19.097  0.00  0.00    -0.239 NA
ATOM      3  C   UNL     1      34.193 -21.984 -18.996  0.00  0.00    +0.158 C 
ATOM      4  C   UNL     1      35.179 -20.393 -20.509  0.00  0.00    +0.022 C 
ATOM      5  C   UNL     1      34.050 -21.002 -19.970  0.00  0.00    +0.040 C 
ATOM      6  C   UNL     1      35.478 -22.318 -18.598  0.00  0.00    +0.136 C 
ATOM      7  C   UNL     1      36.419 -20.800 -20.043  0.00  0.00    +0.099 C 
BRANCH   4  10
ATOM      8  N   UNL     1      34.742 -16.273 -24.184  0.00  0.00    -0.236 N 
ATOM      9  N   UNL     1      34.785 -15.161 -23.432  0.00  0.00    -0.180 NA
ATOM     10  C   UNL     1      35.062 -19.371 -21.522  0.00  0.00    +0.002 C 
ATOM     11  C   UNL     1      34.950 -17.044 -22.142  0.00  0.00    +0.035 C 
ATOM     12  C   UNL     1      35.066 -18.022 -21.142  0.00  0.00    +0.003 C 
ATOM     13  C   UNL     1      34.835 -17.437 -23.471  0.00  0.00    +0.067 C 
ATOM     14  C   UNL     1      34.946 -19.738 -22.863  0.00  0.00    +0.001 C 
ATOM     15  C   UNL     1      34.830 -18.775 -23.870  0.00  0.00    +0.016 C 
ATOM     16  C   UNL     1      34.912 -15.634 -22.191  0.00  0.00    +0.119 C 
ATOM     17  H   UNL     1      34.651 -16.253 -25.164  0.00  0.00    +0.174 HD
ENDBRANCH   4  10
ENDBRANCH   1   3
BRANCH   1  18
ATOM     18  C   UNL     1      33.346 -23.738 -17.632  0.00  0.00    +0.184 C 
BRANCH  18  19
ATOM     19  C   UNL     1      33.217 -23.370 -16.149  0.00  0.00    -0.017 C 
BRANCH  19  20
ATOM     20  N   UNL     1      31.792 -23.263 -15.825  0.00  0.00    +0.384 N 
ATOM     21  H   UNL     1      31.379 -22.496 -16.356  0.00  0.00    -0.089 HD
ATOM     22  H   UNL     1      31.682 -23.084 -14.827  0.00  0.00    -0.089 HD
ATOM     23  H   UNL     1      31.321 -24.135 -16.067  0.00  0.00    -0.089 HD
ENDBRANCH  19  20
BRANCH  19  24
ATOM     24  C   UNL     1      33.873 -24.409 -15.206  0.00  0.00    +0.006 C 
BRANCH  24  26
ATOM     25  N   UNL     1      37.454 -23.410 -14.665  0.00  0.00    -0.234 NA
ATOM     26  C   UNL     1      35.133 -23.963 -14.582  0.00  0.00    -0.024 C 
ATOM     27  C   UNL     1      35.597 -23.972 -13.333  0.00  0.00    +0.065 C 
ATOM     28  C   UNL     1      37.007 -23.458 -13.258  0.00  0.00    +0.122 C 
ATOM     29  C   UNL     1      36.353 -23.620 -15.326  0.00  0.00    +0.072 C 
ATOM     30  C   UNL     1      35.016 -24.534 -12.140  0.00  0.00    -0.020 C 
ATOM     31  C   UNL     1      37.861 -24.306 -12.358  0.00  0.00    -0.004 C 
ATOM     32  C   UNL     1      35.839 -25.019 -11.192  0.00  0.00    -0.004 C 
ATOM     33  C   UNL     1      37.285 -25.021 -11.373  0.00  0.00    -0.003 C 
ENDBRANCH  24  26
ENDBRANCH  19  24
ENDBRANCH  18  19
ENDBRANCH   1  18
TORSDOF 7
ENDMDL
