MODEL 1
REMARK VINA RESULT:     -11.9      0.000      0.000
REMARK  Name = 11476460
REMARK  8 active torsions:
REMARK  status: ('A' for Active; 'I' for Inactive)
REMARK    1  A    between atoms: C_2  and  N_10
REMARK    2  A    between atoms: C_5  and  C_23
REMARK    3  A    between atoms: C_11  and  C_14
REMARK    4  A    between atoms: C_14  and  O_15
REMARK    5  A    between atoms: O_15  and  P_16
REMARK    6  A    between atoms: P_16  and  O_18
REMARK    7  A    between atoms: P_16  and  O_20
REMARK    8  A    between atoms: C_27  and  C_32
REMARK                            x       y       z     vdW  Elec       q    Type
REMARK                         _______ _______ _______ _____ _____    ______ ____
ROOT
ATOM      1  F   UNL     1      33.419 -22.883 -17.851  0.00  0.00    -0.204 F 
ATOM      2  C   UNL     1      36.179 -23.654 -15.607  0.00  0.00    +0.059 C 
ATOM      3  C   UNL     1      34.901 -23.637 -16.175  0.00  0.00    +0.045 C 
ATOM      4  C   UNL     1      37.206 -22.913 -16.200  0.00  0.00    +0.015 C 
ATOM      5  C   UNL     1      35.680 -22.149 -17.911  0.00  0.00    +0.029 C 
ATOM      6  C   UNL     1      34.652 -22.887 -17.324  0.00  0.00    +0.141 C 
ATOM      7  C   UNL     1      36.957 -22.163 -17.349  0.00  0.00    +0.004 C 
ENDROOT
BRANCH   2  10
ATOM      8  O   UNL     1      36.624 -26.139 -12.983  0.00  0.00    -0.434 OA
ATOM      9  O   UNL     1      35.880 -26.633 -15.068  0.00  0.00    -0.226 OA
ATOM     10  N   UNL     1      36.432 -24.420 -14.435  0.00  0.00    -0.221 N 
ATOM     11  C   UNL     1      37.240 -25.011 -12.347  0.00  0.00    +0.221 C 
ATOM     12  C   UNL     1      36.798 -23.825 -13.178  0.00  0.00    +0.148 C 
ATOM     13  C   UNL     1      36.278 -25.795 -14.271  0.00  0.00    +0.409 C 
BRANCH  11  14
ATOM     14  C   UNL     1      38.749 -25.211 -12.345  0.00  0.00    +0.199 C 
BRANCH  14  15
ATOM     15  O   UNL     1      39.220 -25.122 -13.678  0.00  0.00    -0.269 OA
BRANCH  15  16
ATOM     16  P   UNL     1      40.023 -26.384 -14.299  0.00  0.00    +0.473 P 
ATOM     17  O   UNL     1      41.243 -26.800 -13.530  0.00  0.00    -0.227 OA
BRANCH  16  18
ATOM     18  O   UNL     1      40.287 -25.953 -15.835  0.00  0.00    -0.303 OA
ATOM     19  H   UNL     1      41.100 -26.377 -16.154  0.00  0.00    +0.222 HD
ENDBRANCH  16  18
BRANCH  16  20
ATOM     20  O   UNL     1      38.875 -27.517 -14.423  0.00  0.00    -0.303 OA
ATOM     21  H   UNL     1      38.168 -27.332 -13.785  0.00  0.00    +0.222 HD
ENDBRANCH  16  20
ENDBRANCH  15  16
ENDBRANCH  14  15
ENDBRANCH  11  14
ENDBRANCH   2  10
BRANCH   5  23
ATOM     22  N   UNL     1      36.287 -19.956 -20.863  0.00  0.00    -0.234 NA
ATOM     23  C   UNL     1      35.427 -21.368 -19.103  0.00  0.00    +0.021 C 
ATOM     24  C   UNL     1      34.146 -21.261 -19.628  0.00  0.00    +0.004 C 
ATOM     25  C   UNL     1      36.454 -20.704 -19.750  0.00  0.00    +0.100 C 
ATOM     26  C   UNL     1      33.933 -20.502 -20.773  0.00  0.00    +0.029 C 
ATOM     27  C   UNL     1      35.027 -19.875 -21.348  0.00  0.00    +0.146 C 
BRANCH  27  32
ATOM     28  N   UNL     1      35.119 -17.768 -22.572  0.00  0.00    -0.105 NA
ATOM     29  N   UNL     1      34.815 -17.532 -23.856  0.00  0.00    -0.113 N 
ATOM     30  N   UNL     1      34.436 -19.601 -23.710  0.00  0.00    -0.085 NA
ATOM     31  N   UNL     1      34.405 -18.590 -24.569  0.00  0.00    -0.018 NA
ATOM     32  C   UNL     1      34.866 -19.077 -22.529  0.00  0.00    +0.092 C 
ATOM     33  C   UNL     1      34.921 -16.218 -24.436  0.00  0.00    +0.163 C 
ENDBRANCH  27  32
ENDBRANCH   5  23
TORSDOF 8
ENDMDL
MODEL 2
REMARK VINA RESULT:     -10.9      5.561      6.484
REMARK  Name = 11476460
REMARK  8 active torsions:
REMARK  status: ('A' for Active; 'I' for Inactive)
REMARK    1  A    between atoms: C_2  and  N_10
REMARK    2  A    between atoms: C_5  and  C_23
REMARK    3  A    between atoms: C_11  and  C_14
REMARK    4  A    between atoms: C_14  and  O_15
REMARK    5  A    between atoms: O_15  and  P_16
REMARK    6  A    between atoms: P_16  and  O_18
REMARK    7  A    between atoms: P_16  and  O_20
REMARK    8  A    between atoms: C_27  and  C_32
REMARK                            x       y       z     vdW  Elec       q    Type
REMARK                         _______ _______ _______ _____ _____    ______ ____
ROOT
ATOM      1  F   UNL     1      31.302 -25.445 -12.866  0.00  0.00    -0.204 F 
ATOM      2  C   UNL     1      34.769 -24.338 -12.884  0.00  0.00    +0.059 C 
ATOM      3  C   UNL     1      33.610 -25.049 -12.560  0.00  0.00    +0.045 C 
ATOM      4  C   UNL     1      34.710 -23.326 -13.848  0.00  0.00    +0.015 C 
ATOM      5  C   UNL     1      32.349 -23.742 -14.154  0.00  0.00    +0.029 C 
ATOM      6  C   UNL     1      32.403 -24.752 -13.193  0.00  0.00    +0.141 C 
ATOM      7  C   UNL     1      33.503 -23.029 -14.481  0.00  0.00    +0.004 C 
ENDROOT
BRANCH   2  10
ATOM      8  O   UNL     1      37.527 -25.376 -10.746  0.00  0.00    -0.434 OA
ATOM      9  O   UNL     1      35.344 -25.702 -10.227  0.00  0.00    -0.226 OA
ATOM     10  N   UNL     1      36.001 -24.641 -12.238  0.00  0.00    -0.221 N 
ATOM     11  C   UNL     1      38.265 -24.997 -11.916  0.00  0.00    +0.221 C 
ATOM     12  C   UNL     1      37.274 -24.207 -12.744  0.00  0.00    +0.148 C 
ATOM     13  C   UNL     1      36.180 -25.283 -11.015  0.00  0.00    +0.409 C 
BRANCH  11  14
ATOM     14  C   UNL     1      38.759 -26.257 -12.614  0.00  0.00    +0.199 C 
BRANCH  14  15
ATOM     15  O   UNL     1      38.990 -25.958 -13.979  0.00  0.00    -0.269 OA
BRANCH  15  16
ATOM     16  P   UNL     1      40.518 -25.921 -14.514  0.00  0.00    +0.473 P 
ATOM     17  O   UNL     1      41.246 -24.631 -14.266  0.00  0.00    -0.227 OA
BRANCH  16  18
ATOM     18  O   UNL     1      40.393 -26.357 -16.066  0.00  0.00    -0.303 OA
ATOM     19  H   UNL     1      40.909 -25.746 -16.616  0.00  0.00    +0.222 HD
ENDBRANCH  16  18
BRANCH  16  20
ATOM     20  O   UNL     1      41.177 -27.222 -13.815  0.00  0.00    -0.303 OA
ATOM     21  H   UNL     1      41.800 -27.639 -14.431  0.00  0.00    +0.222 HD
ENDBRANCH  16  20
ENDBRANCH  15  16
ENDBRANCH  14  15
ENDBRANCH  11  14
ENDBRANCH   2  10
BRANCH   5  23
ATOM     22  N   UNL     1      29.918 -22.914 -16.854  0.00  0.00    -0.234 NA
ATOM     23  C   UNL     1      31.099 -23.428 -14.812  0.00  0.00    +0.021 C 
ATOM     24  C   UNL     1      29.916 -23.334 -14.091  0.00  0.00    +0.004 C 
ATOM     25  C   UNL     1      31.049 -23.211 -16.178  0.00  0.00    +0.100 C 
ATOM     26  C   UNL     1      28.731 -23.030 -14.751  0.00  0.00    +0.029 C 
ATOM     27  C   UNL     1      28.785 -22.831 -16.121  0.00  0.00    +0.146 C 
BRANCH  27  32
ATOM     28  N   UNL     1      27.470 -22.690 -18.171  0.00  0.00    -0.105 NA
ATOM     29  N   UNL     1      26.214 -22.250 -18.330  0.00  0.00    -0.113 N 
ATOM     30  N   UNL     1      26.483 -21.999 -16.254  0.00  0.00    -0.085 NA
ATOM     31  N   UNL     1      25.589 -21.831 -17.221  0.00  0.00    -0.018 NA
ATOM     32  C   UNL     1      27.592 -22.513 -16.854  0.00  0.00    +0.092 C 
ATOM     33  C   UNL     1      25.571 -22.229 -19.619  0.00  0.00    +0.163 C 
ENDBRANCH  27  32
ENDBRANCH   5  23
TORSDOF 8
ENDMDL
MODEL 3
REMARK VINA RESULT:     -10.4      2.071      2.969
REMARK  Name = 11476460
REMARK  8 active torsions:
REMARK  status: ('A' for Active; 'I' for Inactive)
REMARK    1  A    between atoms: C_2  and  N_10
REMARK    2  A    between atoms: C_5  and  C_23
REMARK    3  A    between atoms: C_11  and  C_14
REMARK    4  A    between atoms: C_14  and  O_15
REMARK    5  A    between atoms: O_15  and  P_16
REMARK    6  A    between atoms: P_16  and  O_18
REMARK    7  A    between atoms: P_16  and  O_20
REMARK    8  A    between atoms: C_27  and  C_32
REMARK                            x       y       z     vdW  Elec       q    Type
REMARK                         _______ _______ _______ _____ _____    ______ ____
ROOT
ATOM      1  F   UNL     1      33.278 -22.249 -19.250  0.00  0.00    -0.204 F 
ATOM      2  C   UNL     1      35.764 -23.161 -16.753  0.00  0.00    +0.059 C 
ATOM      3  C   UNL     1      34.567 -23.122 -17.475  0.00  0.00    +0.045 C 
ATOM      4  C   UNL     1      36.829 -22.341 -17.141  0.00  0.00    +0.015 C 
ATOM      5  C   UNL     1      35.500 -21.457 -18.955  0.00  0.00    +0.029 C 
ATOM      6  C   UNL     1      34.435 -22.272 -18.573  0.00  0.00    +0.141 C 
ATOM      7  C   UNL     1      36.697 -21.491 -18.239  0.00  0.00    +0.004 C 
ENDROOT
BRANCH   2  10
ATOM      8  O   UNL     1      36.738 -25.132 -13.851  0.00  0.00    -0.434 OA
ATOM      9  O   UNL     1      38.118 -23.665 -14.894  0.00  0.00    -0.226 OA
ATOM     10  N   UNL     1      35.899 -24.028 -15.632  0.00  0.00    -0.221 N 
ATOM     11  C   UNL     1      35.335 -25.425 -13.876  0.00  0.00    +0.221 C 
ATOM     12  C   UNL     1      34.879 -24.964 -15.244  0.00  0.00    +0.148 C 
ATOM     13  C   UNL     1      37.018 -24.195 -14.820  0.00  0.00    +0.409 C 
BRANCH  11  14
ATOM     14  C   UNL     1      34.656 -24.679 -12.735  0.00  0.00    +0.199 C 
BRANCH  14  15
ATOM     15  O   UNL     1      35.087 -25.239 -11.507  0.00  0.00    -0.269 OA
BRANCH  15  16
ATOM     16  P   UNL     1      36.268 -24.492 -10.689  0.00  0.00    +0.473 P 
ATOM     17  O   UNL     1      36.056 -24.405  -9.206  0.00  0.00    -0.227 OA
BRANCH  16  18
ATOM     18  O   UNL     1      36.424 -23.073 -11.450  0.00  0.00    -0.303 OA
ATOM     19  H   UNL     1      35.746 -22.458 -11.129  0.00  0.00    +0.222 HD
ENDBRANCH  16  18
BRANCH  16  20
ATOM     20  O   UNL     1      37.592 -25.304 -11.144  0.00  0.00    -0.303 OA
ATOM     21  H   UNL     1      37.356 -26.226 -11.329  0.00  0.00    +0.222 HD
ENDBRANCH  16  20
ENDBRANCH  15  16
ENDBRANCH  14  15
ENDBRANCH  11  14
ENDBRANCH   2  10
BRANCH   5  23
ATOM     22  N   UNL     1      33.942 -19.531 -21.740  0.00  0.00    -0.234 NA
ATOM     23  C   UNL     1      35.368 -20.572 -20.093  0.00  0.00    +0.021 C 
ATOM     24  C   UNL     1      36.477 -19.933 -20.633  0.00  0.00    +0.004 C 
ATOM     25  C   UNL     1      34.135 -20.342 -20.676  0.00  0.00    +0.100 C 
ATOM     26  C   UNL     1      36.319 -19.091 -21.727  0.00  0.00    +0.029 C 
ATOM     27  C   UNL     1      35.042 -18.924 -22.239  0.00  0.00    +0.146 C 
BRANCH  27  32
ATOM     28  N   UNL     1      34.808 -16.736 -23.289  0.00  0.00    -0.105 NA
ATOM     29  N   UNL     1      34.569 -16.446 -24.576  0.00  0.00    -0.113 N 
ATOM     30  N   UNL     1      34.603 -18.555 -24.622  0.00  0.00    -0.085 NA
ATOM     31  N   UNL     1      34.440 -17.493 -25.403  0.00  0.00    -0.018 NA
ATOM     32  C   UNL     1      34.820 -18.068 -23.369  0.00  0.00    +0.092 C 
ATOM     33  C   UNL     1      34.456 -15.089 -25.045  0.00  0.00    +0.163 C 
ENDBRANCH  27  32
ENDBRANCH   5  23
TORSDOF 8
ENDMDL
MODEL 4
REMARK VINA RESULT:     -10.3      1.734      2.376
REMARK  Name = 11476460
REMARK  8 active torsions:
REMARK  status: ('A' for Active; 'I' for Inactive)
REMARK    1  A    between atoms: C_2  and  N_10
REMARK    2  A    between atoms: C_5  and  C_23
REMARK    3  A    between atoms: C_11  and  C_14
REMARK    4  A    between atoms: C_14  and  O_15
REMARK    5  A    between atoms: O_15  and  P_16
REMARK    6  A    between atoms: P_16  and  O_18
REMARK    7  A    between atoms: P_16  and  O_20
REMARK    8  A    between atoms: C_27  and  C_32
REMARK                            x       y       z     vdW  Elec       q    Type
REMARK                         _______ _______ _______ _____ _____    ______ ____
ROOT
ATOM      1  F   UNL     1      37.276 -21.348 -17.684  0.00  0.00    -0.204 F 
ATOM      2  C   UNL     1      35.176 -23.669 -15.828  0.00  0.00    +0.059 C 
ATOM      3  C   UNL     1      36.265 -22.870 -16.189  0.00  0.00    +0.045 C 
ATOM      4  C   UNL     1      34.041 -23.697 -16.645  0.00  0.00    +0.015 C 
ATOM      5  C   UNL     1      35.086 -22.138 -18.167  0.00  0.00    +0.029 C 
ATOM      6  C   UNL     1      36.221 -22.107 -17.355  0.00  0.00    +0.141 C 
ATOM      7  C   UNL     1      33.997 -22.934 -17.812  0.00  0.00    +0.004 C 
ENDROOT
BRANCH   2  10
ATOM      8  O   UNL     1      35.776 -26.009 -13.104  0.00  0.00    -0.434 OA
ATOM      9  O   UNL     1      36.899 -26.059 -15.074  0.00  0.00    -0.226 OA
ATOM     10  N   UNL     1      35.221 -24.448 -14.638  0.00  0.00    -0.221 N 
ATOM     11  C   UNL     1      34.905 -25.087 -12.435  0.00  0.00    +0.221 C 
ATOM     12  C   UNL     1      34.292 -24.272 -13.554  0.00  0.00    +0.148 C 
ATOM     13  C   UNL     1      36.054 -25.531 -14.365  0.00  0.00    +0.409 C 
BRANCH  11  14
ATOM     14  C   UNL     1      35.727 -24.250 -11.465  0.00  0.00    +0.199 C 
BRANCH  14  15
ATOM     15  O   UNL     1      37.017 -24.825 -11.351  0.00  0.00    -0.269 OA
BRANCH  15  16
ATOM     16  P   UNL     1      38.280 -24.015 -11.961  0.00  0.00    +0.473 P 
ATOM     17  O   UNL     1      39.218 -23.441 -10.940  0.00  0.00    -0.227 OA
BRANCH  16  18
ATOM     18  O   UNL     1      37.601 -22.940 -12.959  0.00  0.00    -0.303 OA
ATOM     19  H   UNL     1      37.352 -23.380 -13.788  0.00  0.00    +0.222 HD
ENDBRANCH  16  18
BRANCH  16  20
ATOM     20  O   UNL     1      38.945 -25.091 -12.971  0.00  0.00    -0.303 OA
ATOM     21  H   UNL     1      39.359 -25.802 -12.457  0.00  0.00    +0.222 HD
ENDBRANCH  16  20
ENDBRANCH  15  16
ENDBRANCH  14  15
ENDBRANCH  11  14
ENDBRANCH   2  10
BRANCH   5  23
ATOM     22  N   UNL     1      33.707 -20.245 -21.066  0.00  0.00    -0.234 NA
ATOM     23  C   UNL     1      35.036 -21.349 -19.379  0.00  0.00    +0.021 C 
ATOM     24  C   UNL     1      36.201 -20.945 -20.017  0.00  0.00    +0.004 C 
ATOM     25  C   UNL     1      33.825 -20.978 -19.937  0.00  0.00    +0.100 C 
ATOM     26  C   UNL     1      36.121 -20.189 -21.181  0.00  0.00    +0.029 C 
ATOM     27  C   UNL     1      34.861 -19.868 -21.660  0.00  0.00    +0.146 C 
BRANCH  27  32
ATOM     28  N   UNL     1      35.034 -17.797 -22.936  0.00  0.00    -0.105 NA
ATOM     29  N   UNL     1      34.721 -17.577 -24.220  0.00  0.00    -0.113 N 
ATOM     30  N   UNL     1      34.246 -19.621 -24.020  0.00  0.00    -0.085 NA
ATOM     31  N   UNL     1      34.250 -18.630 -24.902  0.00  0.00    -0.018 NA
ATOM     32  C   UNL     1      34.719 -19.091 -22.858  0.00  0.00    +0.092 C 
ATOM     33  C   UNL     1      34.880 -16.283 -24.834  0.00  0.00    +0.163 C 
ENDBRANCH  27  32
ENDBRANCH   5  23
TORSDOF 8
ENDMDL
MODEL 5
REMARK VINA RESULT:     -10.3      7.301     11.153
REMARK  Name = 11476460
REMARK  8 active torsions:
REMARK  status: ('A' for Active; 'I' for Inactive)
REMARK    1  A    between atoms: C_2  and  N_10
REMARK    2  A    between atoms: C_5  and  C_23
REMARK    3  A    between atoms: C_11  and  C_14
REMARK    4  A    between atoms: C_14  and  O_15
REMARK    5  A    between atoms: O_15  and  P_16
REMARK    6  A    between atoms: P_16  and  O_18
REMARK    7  A    between atoms: P_16  and  O_20
REMARK    8  A    between atoms: C_27  and  C_32
REMARK                            x       y       z     vdW  Elec       q    Type
REMARK                         _______ _______ _______ _____ _____    ______ ____
ROOT
ATOM      1  F   UNL     1      33.248 -21.210 -19.683  0.00  0.00    -0.204 F 
ATOM      2  C   UNL     1      35.209 -19.215 -22.011  0.00  0.00    +0.059 C 
ATOM      3  C   UNL     1      34.117 -19.832 -21.392  0.00  0.00    +0.045 C 
ATOM      4  C   UNL     1      36.492 -19.398 -21.487  0.00  0.00    +0.015 C 
ATOM      5  C   UNL     1      35.590 -20.804 -19.742  0.00  0.00    +0.029 C 
ATOM      6  C   UNL     1      34.307 -20.626 -20.260  0.00  0.00    +0.141 C 
ATOM      7  C   UNL     1      36.682 -20.191 -20.355  0.00  0.00    +0.004 C 
ENDROOT
BRANCH   2  10
ATOM      8  O   UNL     1      34.430 -17.701 -25.229  0.00  0.00    -0.434 OA
ATOM      9  O   UNL     1      33.942 -19.852 -24.702  0.00  0.00    -0.226 OA
ATOM     10  N   UNL     1      35.015 -18.406 -23.166  0.00  0.00    -0.221 N 
ATOM     11  C   UNL     1      34.844 -16.530 -24.512  0.00  0.00    +0.221 C 
ATOM     12  C   UNL     1      35.539 -17.072 -23.281  0.00  0.00    +0.148 C 
ATOM     13  C   UNL     1      34.412 -18.774 -24.367  0.00  0.00    +0.409 C 
BRANCH  11  14
ATOM     14  C   UNL     1      33.615 -15.693 -24.186  0.00  0.00    +0.199 C 
BRANCH  14  15
ATOM     15  O   UNL     1      33.932 -14.326 -24.384  0.00  0.00    -0.269 OA
BRANCH  15  16
ATOM     16  P   UNL     1      33.800 -13.313 -23.127  0.00  0.00    +0.473 P 
ATOM     17  O   UNL     1      32.420 -13.201 -22.546  0.00  0.00    -0.227 OA
BRANCH  16  18
ATOM     18  O   UNL     1      34.431 -11.931 -23.680  0.00  0.00    -0.303 OA
ATOM     19  H   UNL     1      35.400 -11.977 -23.633  0.00  0.00    +0.222 HD
ENDBRANCH  16  18
BRANCH  16  20
ATOM     20  O   UNL     1      34.930 -13.855 -22.105  0.00  0.00    -0.303 OA
ATOM     21  H   UNL     1      35.165 -14.767 -22.337  0.00  0.00    +0.222 HD
ENDBRANCH  16  20
ENDBRANCH  15  16
ENDBRANCH  14  15
ENDBRANCH  11  14
ENDBRANCH   2  10
BRANCH   5  23
ATOM     22  N   UNL     1      37.250 -22.349 -16.784  0.00  0.00    -0.234 NA
ATOM     23  C   UNL     1      35.793 -21.627 -18.568  0.00  0.00    +0.021 C 
ATOM     24  C   UNL     1      34.787 -22.463 -18.100  0.00  0.00    +0.004 C 
ATOM     25  C   UNL     1      36.994 -21.606 -17.883  0.00  0.00    +0.100 C 
ATOM     26  C   UNL     1      35.012 -23.243 -16.971  0.00  0.00    +0.029 C 
ATOM     27  C   UNL     1      36.249 -23.151 -16.355  0.00  0.00    +0.146 C 
BRANCH  27  32
ATOM     28  N   UNL     1      37.710 -23.903 -14.553  0.00  0.00    -0.105 NA
ATOM     29  N   UNL     1      37.449 -24.784 -13.577  0.00  0.00    -0.113 N 
ATOM     30  N   UNL     1      35.624 -24.779 -14.633  0.00  0.00    -0.085 NA
ATOM     31  N   UNL     1      36.225 -25.329 -13.585  0.00  0.00    -0.018 NA
ATOM     32  C   UNL     1      36.536 -23.934 -15.187  0.00  0.00    +0.092 C 
ATOM     33  C   UNL     1      38.427 -25.127 -12.577  0.00  0.00    +0.163 C 
ENDBRANCH  27  32
ENDBRANCH   5  23
TORSDOF 8
ENDMDL
MODEL 6
REMARK VINA RESULT:     -10.2     12.857     16.299
REMARK  Name = 11476460
REMARK  8 active torsions:
REMARK  status: ('A' for Active; 'I' for Inactive)
REMARK    1  A    between atoms: C_2  and  N_10
REMARK    2  A    between atoms: C_5  and  C_23
REMARK    3  A    between atoms: C_11  and  C_14
REMARK    4  A    between atoms: C_14  and  O_15
REMARK    5  A    between atoms: O_15  and  P_16
REMARK    6  A    between atoms: P_16  and  O_18
REMARK    7  A    between atoms: P_16  and  O_20
REMARK    8  A    between atoms: C_27  and  C_32
REMARK                            x       y       z     vdW  Elec       q    Type
REMARK                         _______ _______ _______ _____ _____    ______ ____
ROOT
ATOM      1  F   UNL     1      34.497 -11.663 -24.021  0.00  0.00    -0.204 F 
ATOM      2  C   UNL     1      32.012  -9.682 -22.248  0.00  0.00    +0.059 C 
ATOM      3  C   UNL     1      33.019 -10.042 -23.149  0.00  0.00    +0.045 C 
ATOM      4  C   UNL     1      31.522 -10.633 -21.347  0.00  0.00    +0.015 C 
ATOM      5  C   UNL     1      33.039 -12.284 -22.249  0.00  0.00    +0.029 C 
ATOM      6  C   UNL     1      33.531 -11.339 -23.150  0.00  0.00    +0.141 C 
ATOM      7  C   UNL     1      32.035 -11.930 -21.347  0.00  0.00    +0.004 C 
ENDROOT
BRANCH   2  10
ATOM      8  O   UNL     1      30.883  -6.281 -21.601  0.00  0.00    -0.434 OA
ATOM      9  O   UNL     1      31.913  -7.579 -20.052  0.00  0.00    -0.226 OA
ATOM     10  N   UNL     1      31.489  -8.358 -22.247  0.00  0.00    -0.221 N 
ATOM     11  C   UNL     1      30.678  -6.333 -23.020  0.00  0.00    +0.221 C 
ATOM     12  C   UNL     1      30.762  -7.806 -23.357  0.00  0.00    +0.148 C 
ATOM     13  C   UNL     1      31.492  -7.447 -21.193  0.00  0.00    +0.409 C 
BRANCH  11  14
ATOM     14  C   UNL     1      31.754  -5.500 -23.702  0.00  0.00    +0.199 C 
BRANCH  14  15
ATOM     15  O   UNL     1      31.974  -4.328 -22.936  0.00  0.00    -0.269 OA
BRANCH  15  16
ATOM     16  P   UNL     1      30.888  -3.131 -23.026  0.00  0.00    +0.473 P 
ATOM     17  O   UNL     1      30.167  -3.026 -24.338  0.00  0.00    -0.227 OA
BRANCH  16  18
ATOM     18  O   UNL     1      31.726  -1.819 -22.590  0.00  0.00    -0.303 OA
ATOM     19  H   UNL     1      32.652  -2.064 -22.431  0.00  0.00    +0.222 HD
ENDBRANCH  16  18
BRANCH  16  20
ATOM     20  O   UNL     1      29.939  -3.408 -21.745  0.00  0.00    -0.303 OA
ATOM     21  H   UNL     1      29.980  -2.648 -21.143  0.00  0.00    +0.222 HD
ENDBRANCH  16  20
ENDBRANCH  15  16
ENDBRANCH  14  15
ENDBRANCH  11  14
ENDBRANCH   2  10
BRANCH   5  23
ATOM     22  N   UNL     1      34.445 -15.497 -20.988  0.00  0.00    -0.234 NA
ATOM     23  C   UNL     1      33.568 -13.631 -22.245  0.00  0.00    +0.021 C 
ATOM     24  C   UNL     1      33.717 -14.343 -23.427  0.00  0.00    +0.004 C 
ATOM     25  C   UNL     1      33.943 -14.244 -21.063  0.00  0.00    +0.100 C 
ATOM     26  C   UNL     1      34.230 -15.635 -23.392  0.00  0.00    +0.029 C 
ATOM     27  C   UNL     1      34.576 -16.162 -22.158  0.00  0.00    +0.146 C 
BRANCH  27  32
ATOM     28  N   UNL     1      35.387 -18.088 -20.902  0.00  0.00    -0.105 NA
ATOM     29  N   UNL     1      35.844 -19.259 -21.368  0.00  0.00    -0.113 N 
ATOM     30  N   UNL     1      35.383 -18.247 -23.160  0.00  0.00    -0.085 NA
ATOM     31  N   UNL     1      35.859 -19.398 -22.701  0.00  0.00    -0.018 NA
ATOM     32  C   UNL     1      35.111 -17.489 -22.062  0.00  0.00    +0.092 C 
ATOM     33  C   UNL     1      36.292 -20.308 -20.489  0.00  0.00    +0.163 C 
ENDBRANCH  27  32
ENDBRANCH   5  23
TORSDOF 8
ENDMDL
MODEL 7
REMARK VINA RESULT:      -9.9      2.591      3.841
REMARK  Name = 11476460
REMARK  8 active torsions:
REMARK  status: ('A' for Active; 'I' for Inactive)
REMARK    1  A    between atoms: C_2  and  N_10
REMARK    2  A    between atoms: C_5  and  C_23
REMARK    3  A    between atoms: C_11  and  C_14
REMARK    4  A    between atoms: C_14  and  O_15
REMARK    5  A    between atoms: O_15  and  P_16
REMARK    6  A    between atoms: P_16  and  O_18
REMARK    7  A    between atoms: P_16  and  O_20
REMARK    8  A    between atoms: C_27  and  C_32
REMARK                            x       y       z     vdW  Elec       q    Type
REMARK                         _______ _______ _______ _____ _____    ______ ____
ROOT
ATOM      1  F   UNL     1      33.247 -22.428 -18.652  0.00  0.00    -0.204 F 
ATOM      2  C   UNL     1      35.812 -23.247 -16.203  0.00  0.00    +0.059 C 
ATOM      3  C   UNL     1      34.583 -23.210 -16.868  0.00  0.00    +0.045 C 
ATOM      4  C   UNL     1      36.893 -22.521 -16.712  0.00  0.00    +0.015 C 
ATOM      5  C   UNL     1      35.517 -21.729 -18.533  0.00  0.00    +0.029 C 
ATOM      6  C   UNL     1      34.435 -22.452 -18.030  0.00  0.00    +0.141 C 
ATOM      7  C   UNL     1      36.746 -21.763 -17.873  0.00  0.00    +0.004 C 
ENDROOT
BRANCH   2  10
ATOM      8  O   UNL     1      36.691 -24.785 -13.021  0.00  0.00    -0.434 OA
ATOM      9  O   UNL     1      37.726 -22.948 -13.858  0.00  0.00    -0.226 OA
ATOM     10  N   UNL     1      35.963 -24.020 -15.017  0.00  0.00    -0.221 N 
ATOM     11  C   UNL     1      35.497 -25.522 -13.319  0.00  0.00    +0.221 C 
ATOM     12  C   UNL     1      35.236 -25.238 -14.782  0.00  0.00    +0.148 C 
ATOM     13  C   UNL     1      36.866 -23.809 -13.977  0.00  0.00    +0.409 C 
BRANCH  11  14
ATOM     14  C   UNL     1      34.379 -25.037 -12.405  0.00  0.00    +0.199 C 
BRANCH  14  15
ATOM     15  O   UNL     1      33.139 -25.454 -12.947  0.00  0.00    -0.269 OA
BRANCH  15  16
ATOM     16  P   UNL     1      31.991 -24.340 -13.198  0.00  0.00    +0.473 P 
ATOM     17  O   UNL     1      31.815 -23.923 -14.629  0.00  0.00    -0.227 OA
BRANCH  16  18
ATOM     18  O   UNL     1      32.380 -23.150 -12.174  0.00  0.00    -0.303 OA
ATOM     19  H   UNL     1      32.675 -23.532 -11.332  0.00  0.00    +0.222 HD
ENDBRANCH  16  18
BRANCH  16  20
ATOM     20  O   UNL     1      30.685 -25.006 -12.514  0.00  0.00    -0.303 OA
ATOM     21  H   UNL     1      30.202 -24.329 -12.014  0.00  0.00    +0.222 HD
ENDBRANCH  16  20
ENDBRANCH  15  16
ENDBRANCH  14  15
ENDBRANCH  11  14
ENDBRANCH   2  10
BRANCH   5  23
ATOM     22  N   UNL     1      33.916 -20.012 -21.428  0.00  0.00    -0.234 NA
ATOM     23  C   UNL     1      35.369 -20.940 -19.738  0.00  0.00    +0.021 C 
ATOM     24  C   UNL     1      36.473 -20.371 -20.358  0.00  0.00    +0.004 C 
ATOM     25  C   UNL     1      34.124 -20.735 -20.305  0.00  0.00    +0.100 C 
ATOM     26  C   UNL     1      36.299 -19.620 -21.516  0.00  0.00    +0.029 C 
ATOM     27  C   UNL     1      35.012 -19.472 -22.006  0.00  0.00    +0.146 C 
BRANCH  27  32
ATOM     28  N   UNL     1      35.056 -17.409 -23.305  0.00  0.00    -0.105 NA
ATOM     29  N   UNL     1      34.654 -17.206 -24.568  0.00  0.00    -0.113 N 
ATOM     30  N   UNL     1      34.236 -19.259 -24.321  0.00  0.00    -0.085 NA
ATOM     31  N   UNL     1      34.161 -18.275 -25.209  0.00  0.00    -0.018 NA
ATOM     32  C   UNL     1      34.774 -18.708 -23.197  0.00  0.00    +0.092 C 
ATOM     33  C   UNL     1      34.746 -15.916 -25.200  0.00  0.00    +0.163 C 
ENDBRANCH  27  32
ENDBRANCH   5  23
TORSDOF 8
ENDMDL
MODEL 8
REMARK VINA RESULT:      -9.8      6.329      9.502
REMARK  Name = 11476460
REMARK  8 active torsions:
REMARK  status: ('A' for Active; 'I' for Inactive)
REMARK    1  A    between atoms: C_2  and  N_10
REMARK    2  A    between atoms: C_5  and  C_23
REMARK    3  A    between atoms: C_11  and  C_14
REMARK    4  A    between atoms: C_14  and  O_15
REMARK    5  A    between atoms: O_15  and  P_16
REMARK    6  A    between atoms: P_16  and  O_18
REMARK    7  A    between atoms: P_16  and  O_20
REMARK    8  A    between atoms: C_27  and  C_32
REMARK                            x       y       z     vdW  Elec       q    Type
REMARK                         _______ _______ _______ _____ _____    ______ ____
ROOT
ATOM      1  F   UNL     1      34.307 -14.977 -24.544  0.00  0.00    -0.204 F 
ATOM      2  C   UNL     1      34.922 -17.225 -21.749  0.00  0.00    +0.059 C 
ATOM      3  C   UNL     1      34.820 -16.735 -23.055  0.00  0.00    +0.045 C 
ATOM      4  C   UNL     1      34.600 -16.390 -20.674  0.00  0.00    +0.015 C 
ATOM      5  C   UNL     1      34.080 -14.597 -22.208  0.00  0.00    +0.029 C 
ATOM      6  C   UNL     1      34.400 -15.425 -23.284  0.00  0.00    +0.141 C 
ATOM      7  C   UNL     1      34.180 -15.080 -20.903  0.00  0.00    +0.004 C 
ENDROOT
BRANCH   2  10
ATOM      8  O   UNL     1      36.639 -20.375 -21.127  0.00  0.00    -0.434 OA
ATOM      9  O   UNL     1      37.701 -18.378 -21.304  0.00  0.00    -0.226 OA
ATOM     10  N   UNL     1      35.351 -18.562 -21.515  0.00  0.00    -0.221 N 
ATOM     11  C   UNL     1      35.281 -20.812 -20.978  0.00  0.00    +0.221 C 
ATOM     12  C   UNL     1      34.458 -19.688 -21.570  0.00  0.00    +0.148 C 
ATOM     13  C   UNL     1      36.654 -19.010 -21.310  0.00  0.00    +0.409 C 
BRANCH  11  14
ATOM     14  C   UNL     1      35.000 -21.047 -19.500  0.00  0.00    +0.199 C 
BRANCH  14  15
ATOM     15  O   UNL     1      35.128 -22.432 -19.230  0.00  0.00    -0.269 OA
BRANCH  15  16
ATOM     16  P   UNL     1      33.917 -23.183 -18.460  0.00  0.00    +0.473 P 
ATOM     17  O   UNL     1      32.615 -22.438 -18.446  0.00  0.00    -0.227 OA
BRANCH  16  18
ATOM     18  O   UNL     1      34.537 -23.520 -17.005  0.00  0.00    -0.303 OA
ATOM     19  H   UNL     1      35.474 -23.267 -16.986  0.00  0.00    +0.222 HD
ENDBRANCH  16  18
BRANCH  16  20
ATOM     20  O   UNL     1      33.869 -24.628 -19.186  0.00  0.00    -0.303 OA
ATOM     21  H   UNL     1      34.173 -24.539 -20.103  0.00  0.00    +0.222 HD
ENDBRANCH  16  20
ENDBRANCH  15  16
ENDBRANCH  14  15
ENDBRANCH  11  14
ENDBRANCH   2  10
BRANCH   5  23
ATOM     22  N   UNL     1      32.191 -11.406 -21.830  0.00  0.00    -0.234 NA
ATOM     23  C   UNL     1      33.642 -13.238 -22.440  0.00  0.00    +0.021 C 
ATOM     24  C   UNL     1      34.207 -12.469 -23.450  0.00  0.00    +0.004 C 
ATOM     25  C   UNL     1      32.648 -12.668 -21.666  0.00  0.00    +0.100 C 
ATOM     26  C   UNL     1      33.764 -11.166 -23.650  0.00  0.00    +0.029 C 
ATOM     27  C   UNL     1      32.763 -10.686 -22.821  0.00  0.00    +0.146 C 
BRANCH  27  32
ATOM     28  N   UNL     1      33.050  -8.304 -23.257  0.00  0.00    -0.105 NA
ATOM     29  N   UNL     1      32.117  -7.343 -23.302  0.00  0.00    -0.113 N 
ATOM     30  N   UNL     1      30.945  -9.042 -22.870  0.00  0.00    -0.085 NA
ATOM     31  N   UNL     1      30.855  -7.735 -23.078  0.00  0.00    -0.018 NA
ATOM     32  C   UNL     1      32.267  -9.349 -22.984  0.00  0.00    +0.092 C 
ATOM     33  C   UNL     1      32.449  -5.968 -23.573  0.00  0.00    +0.163 C 
ENDBRANCH  27  32
ENDBRANCH   5  23
TORSDOF 8
ENDMDL
MODEL 9
REMARK VINA RESULT:      -9.8      6.255      9.476
REMARK  Name = 11476460
REMARK  8 active torsions:
REMARK  status: ('A' for Active; 'I' for Inactive)
REMARK    1  A    between atoms: C_2  and  N_10
REMARK    2  A    between atoms: C_5  and  C_23
REMARK    3  A    between atoms: C_11  and  C_14
REMARK    4  A    between atoms: C_14  and  O_15
REMARK    5  A    between atoms: O_15  and  P_16
REMARK    6  A    between atoms: P_16  and  O_18
REMARK    7  A    between atoms: P_16  and  O_20
REMARK    8  A    between atoms: C_27  and  C_32
REMARK                            x       y       z     vdW  Elec       q    Type
REMARK                         _______ _______ _______ _____ _____    ______ ____
ROOT
ATOM      1  F   UNL     1      33.612 -14.384 -19.937  0.00  0.00    -0.204 F 
ATOM      2  C   UNL     1      34.956 -17.203 -21.806  0.00  0.00    +0.059 C 
ATOM      3  C   UNL     1      34.483 -16.425 -20.745  0.00  0.00    +0.045 C 
ATOM      4  C   UNL     1      35.001 -16.658 -23.093  0.00  0.00    +0.015 C 
ATOM      5  C   UNL     1      34.108 -14.576 -22.255  0.00  0.00    +0.029 C 
ATOM      6  C   UNL     1      34.060 -15.114 -20.968  0.00  0.00    +0.141 C 
ATOM      7  C   UNL     1      34.579 -15.348 -23.317  0.00  0.00    +0.004 C 
ENDROOT
BRANCH   2  10
ATOM      8  O   UNL     1      36.680 -20.352 -21.200  0.00  0.00    -0.434 OA
ATOM      9  O   UNL     1      37.738 -18.353 -21.374  0.00  0.00    -0.226 OA
ATOM     10  N   UNL     1      35.388 -18.540 -21.578  0.00  0.00    -0.221 N 
ATOM     11  C   UNL     1      35.324 -20.793 -21.049  0.00  0.00    +0.221 C 
ATOM     12  C   UNL     1      34.497 -19.667 -21.633  0.00  0.00    +0.148 C 
ATOM     13  C   UNL     1      36.692 -18.987 -21.379  0.00  0.00    +0.409 C 
BRANCH  11  14
ATOM     14  C   UNL     1      35.048 -21.033 -19.570  0.00  0.00    +0.199 C 
BRANCH  14  15
ATOM     15  O   UNL     1      35.169 -22.420 -19.307  0.00  0.00    -0.269 OA
BRANCH  15  16
ATOM     16  P   UNL     1      33.951 -23.171 -18.549  0.00  0.00    +0.473 P 
ATOM     17  O   UNL     1      32.651 -22.421 -18.540  0.00  0.00    -0.227 OA
BRANCH  16  18
ATOM     18  O   UNL     1      34.560 -23.517 -17.092  0.00  0.00    -0.303 OA
ATOM     19  H   UNL     1      34.246 -22.863 -16.447  0.00  0.00    +0.222 HD
ENDBRANCH  16  18
BRANCH  16  20
ATOM     20  O   UNL     1      33.903 -24.612 -19.283  0.00  0.00    -0.303 OA
ATOM     21  H   UNL     1      34.685 -24.713 -19.847  0.00  0.00    +0.222 HD
ENDBRANCH  16  20
ENDBRANCH  15  16
ENDBRANCH  14  15
ENDBRANCH  11  14
ENDBRANCH   2  10
BRANCH   5  23
ATOM     22  N   UNL     1      32.213 -11.387 -21.896  0.00  0.00    -0.234 NA
ATOM     23  C   UNL     1      33.672 -13.216 -22.491  0.00  0.00    +0.021 C 
ATOM     24  C   UNL     1      34.246 -12.447 -23.495  0.00  0.00    +0.004 C 
ATOM     25  C   UNL     1      32.669 -12.648 -21.727  0.00  0.00    +0.100 C 
ATOM     26  C   UNL     1      33.805 -11.145 -23.700  0.00  0.00    +0.029 C 
ATOM     27  C   UNL     1      32.795 -10.665 -22.881  0.00  0.00    +0.146 C 
BRANCH  27  32
ATOM     28  N   UNL     1      33.077  -8.293 -23.369  0.00  0.00    -0.105 NA
ATOM     29  N   UNL     1      32.147  -7.328 -23.396  0.00  0.00    -0.113 N 
ATOM     30  N   UNL     1      30.984  -9.013 -22.891  0.00  0.00    -0.085 NA
ATOM     31  N   UNL     1      30.892  -7.709 -23.119  0.00  0.00    -0.018 NA
ATOM     32  C   UNL     1      32.299  -9.329 -23.049  0.00  0.00    +0.092 C 
ATOM     33  C   UNL     1      32.475  -5.960 -23.704  0.00  0.00    +0.163 C 
ENDBRANCH  27  32
ENDBRANCH   5  23
TORSDOF 8
ENDMDL
