MODEL 1
REMARK VINA RESULT:     -11.5      0.000      0.000
REMARK  Name = 118513932
REMARK  2 active torsions:
REMARK  status: ('A' for Active; 'I' for Inactive)
REMARK    1  A    between atoms: C_4  and  N_24
REMARK    2  A    between atoms: C_10  and  C_15
REMARK                            x       y       z     vdW  Elec       q    Type
REMARK                         _______ _______ _______ _____ _____    ______ ____
ROOT
ATOM      1  O   UNL     1      32.681 -22.995 -18.176  0.00  0.00    -0.274 OA
ATOM      2  N   UNL     1      34.927 -22.490 -17.702  0.00  0.00    -0.209 N 
ATOM      3  N   UNL     1      36.067 -20.918 -19.092  0.00  0.00    -0.389 NA
ATOM      4  C   UNL     1      36.098 -23.510 -15.865  0.00  0.00    +0.063 C 
ATOM      5  C   UNL     1      34.990 -23.347 -16.609  0.00  0.00    +0.089 C 
ATOM      6  C   UNL     1      37.276 -22.752 -16.229  0.00  0.00    +0.020 C 
ATOM      7  C   UNL     1      37.280 -21.912 -17.269  0.00  0.00    +0.050 C 
ATOM      8  C   UNL     1      36.047 -21.738 -18.085  0.00  0.00    +0.193 C 
ATOM      9  C   UNL     1      33.724 -22.391 -18.414  0.00  0.00    +0.242 C 
ATOM     10  C   UNL     1      34.907 -20.800 -19.805  0.00  0.00    +0.139 C 
ATOM     11  C   UNL     1      33.765 -21.450 -19.558  0.00  0.00    +0.146 C 
ENDROOT
BRANCH  10  15
ATOM     12  N   UNL     1      34.870 -17.876 -21.920  0.00  0.00    -0.178 N 
ATOM     13  N   UNL     1      34.865 -18.591 -20.765  0.00  0.00    -0.173 NA
ATOM     14  N   UNL     1      34.900 -17.390 -24.094  0.00  0.00    -0.392 NA
ATOM     15  C   UNL     1      34.904 -19.881 -20.947  0.00  0.00    +0.124 C 
ATOM     16  C   UNL     1      34.949 -20.551 -22.281  0.00  0.00    +0.023 C 
ATOM     17  C   UNL     1      34.951 -19.785 -23.389  0.00  0.00    +0.025 C 
ATOM     18  C   UNL     1      34.909 -18.370 -23.211  0.00  0.00    +0.198 C 
ATOM     19  C   UNL     1      34.835 -16.510 -22.010  0.00  0.00    +0.173 C 
ATOM     20  C   UNL     1      34.855 -16.235 -23.356  0.00  0.00    +0.111 C 
ATOM     21  C   UNL     1      34.995 -20.439 -24.746  0.00  0.00    +0.035 C 
ATOM     22  C   UNL     1      34.833 -14.924 -24.019  0.00  0.00    +0.063 C 
ENDBRANCH  10  15
BRANCH   4  24
ATOM     23  N   UNL     1      36.051 -25.498 -12.166  0.00  0.00    +0.389 N 
ATOM     24  N   UNL     1      36.174 -24.347 -14.790  0.00  0.00    -0.311 N 
ATOM     25  C   UNL     1      37.164 -24.601 -12.571  0.00  0.00    -0.027 C 
ATOM     26  C   UNL     1      38.357 -24.487 -11.647  0.00  0.00    -0.020 C 
ATOM     27  C   UNL     1      37.400 -23.339 -11.767  0.00  0.00    -0.020 C 
ATOM     28  C   UNL     1      37.429 -24.560 -14.062  0.00  0.00    +0.071 C 
ATOM     29  C   UNL     1      34.832 -25.151 -12.898  0.00  0.00    -0.060 C 
ATOM     30  C   UNL     1      35.062 -25.222 -14.408  0.00  0.00    +0.067 C 
ATOM     31  H   UNL     1      35.884 -25.398 -11.165  0.00  0.00    -0.084 HD
ATOM     32  H   UNL     1      36.306 -26.462 -12.381  0.00  0.00    -0.084 HD
ENDBRANCH   4  24
TORSDOF 2
ENDMDL
MODEL 2
REMARK VINA RESULT:     -10.9      7.474     14.494
REMARK  Name = 118513932
REMARK  2 active torsions:
REMARK  status: ('A' for Active; 'I' for Inactive)
REMARK    1  A    between atoms: C_4  and  N_24
REMARK    2  A    between atoms: C_10  and  C_15
REMARK                            x       y       z     vdW  Elec       q    Type
REMARK                         _______ _______ _______ _____ _____    ______ ____
ROOT
ATOM      1  O   UNL     1      30.610 -11.081 -20.405  0.00  0.00    -0.274 OA
ATOM      2  N   UNL     1      32.118 -10.057 -21.888  0.00  0.00    -0.209 N 
ATOM      3  N   UNL     1      33.598 -11.438 -23.154  0.00  0.00    -0.389 NA
ATOM      4  C   UNL     1      32.208  -7.668 -22.159  0.00  0.00    +0.063 C 
ATOM      5  C   UNL     1      31.688  -8.769 -21.589  0.00  0.00    +0.089 C 
ATOM      6  C   UNL     1      33.268  -7.845 -23.129  0.00  0.00    +0.020 C 
ATOM      7  C   UNL     1      33.727  -9.056 -23.460  0.00  0.00    +0.050 C 
ATOM      8  C   UNL     1      33.142 -10.268 -22.823  0.00  0.00    +0.193 C 
ATOM      9  C   UNL     1      31.511 -11.139 -21.238  0.00  0.00    +0.242 C 
ATOM     10  C   UNL     1      33.024 -12.513 -22.537  0.00  0.00    +0.139 C 
ATOM     11  C   UNL     1      32.043 -12.466 -21.630  0.00  0.00    +0.146 C 
ENDROOT
BRANCH  10  15
ATOM     12  N   UNL     1      34.566 -15.776 -22.510  0.00  0.00    -0.178 N 
ATOM     13  N   UNL     1      34.173 -14.569 -22.028  0.00  0.00    -0.173 NA
ATOM     14  N   UNL     1      34.870 -17.488 -23.902  0.00  0.00    -0.392 NA
ATOM     15  C   UNL     1      33.522 -13.845 -22.894  0.00  0.00    +0.124 C 
ATOM     16  C   UNL     1      33.216 -14.265 -24.295  0.00  0.00    +0.023 C 
ATOM     17  C   UNL     1      33.634 -15.475 -24.712  0.00  0.00    +0.025 C 
ATOM     18  C   UNL     1      34.349 -16.283 -23.778  0.00  0.00    +0.198 C 
ATOM     19  C   UNL     1      35.263 -16.724 -21.809  0.00  0.00    +0.173 C 
ATOM     20  C   UNL     1      35.437 -17.767 -22.686  0.00  0.00    +0.111 C 
ATOM     21  C   UNL     1      33.338 -15.920 -26.121  0.00  0.00    +0.035 C 
ATOM     22  C   UNL     1      36.121 -19.048 -22.455  0.00  0.00    +0.063 C 
ENDBRANCH  10  15
BRANCH   4  24
ATOM     23  N   UNL     1      30.387  -3.901 -21.792  0.00  0.00    +0.389 N 
ATOM     24  N   UNL     1      31.796  -6.398 -21.876  0.00  0.00    -0.311 N 
ATOM     25  C   UNL     1      31.354  -4.213 -22.876  0.00  0.00    -0.027 C 
ATOM     26  C   UNL     1      31.756  -3.094 -23.811  0.00  0.00    -0.020 C 
ATOM     27  C   UNL     1      30.861  -4.190 -24.307  0.00  0.00    -0.020 C 
ATOM     28  C   UNL     1      32.417  -5.225 -22.499  0.00  0.00    +0.071 C 
ATOM     29  C   UNL     1      29.773  -5.134 -21.294  0.00  0.00    -0.060 C 
ATOM     30  C   UNL     1      30.838  -6.116 -20.803  0.00  0.00    +0.067 C 
ATOM     31  H   UNL     1      29.660  -3.285 -22.154  0.00  0.00    -0.084 HD
ATOM     32  H   UNL     1      30.881  -3.443 -21.026  0.00  0.00    -0.084 HD
ENDBRANCH   4  24
TORSDOF 2
ENDMDL
MODEL 3
REMARK VINA RESULT:     -10.8      6.274     10.952
REMARK  Name = 118513932
REMARK  2 active torsions:
REMARK  status: ('A' for Active; 'I' for Inactive)
REMARK    1  A    between atoms: C_4  and  N_24
REMARK    2  A    between atoms: C_10  and  C_15
REMARK                            x       y       z     vdW  Elec       q    Type
REMARK                         _______ _______ _______ _____ _____    ______ ____
ROOT
ATOM      1  O   UNL     1      34.047 -13.144 -25.580  0.00  0.00    -0.274 OA
ATOM      2  N   UNL     1      33.888 -13.801 -23.329  0.00  0.00    -0.209 N 
ATOM      3  N   UNL     1      33.121 -12.211 -21.721  0.00  0.00    -0.389 NA
ATOM      4  C   UNL     1      34.475 -16.020 -22.611  0.00  0.00    +0.063 C 
ATOM      5  C   UNL     1      34.338 -15.094 -23.575  0.00  0.00    +0.089 C 
ATOM      6  C   UNL     1      34.135 -15.643 -21.255  0.00  0.00    +0.020 C 
ATOM      7  C   UNL     1      33.697 -14.416 -20.954  0.00  0.00    +0.050 C 
ATOM      8  C   UNL     1      33.548 -13.399 -22.030  0.00  0.00    +0.193 C 
ATOM      9  C   UNL     1      33.780 -12.909 -24.404  0.00  0.00    +0.242 C 
ATOM     10  C   UNL     1      33.006 -11.319 -22.749  0.00  0.00    +0.139 C 
ATOM     11  C   UNL     1      33.291 -11.560 -24.033  0.00  0.00    +0.146 C 
ENDROOT
BRANCH  10  15
ATOM     12  N   UNL     1      31.860  -7.900 -22.908  0.00  0.00    -0.178 N 
ATOM     13  N   UNL     1      32.301  -9.099 -23.368  0.00  0.00    -0.173 NA
ATOM     14  N   UNL     1      31.211  -6.293 -21.509  0.00  0.00    -0.392 NA
ATOM     15  C   UNL     1      32.526  -9.972 -22.426  0.00  0.00    +0.124 C 
ATOM     16  C   UNL     1      32.332  -9.718 -20.967  0.00  0.00    +0.023 C 
ATOM     17  C   UNL     1      31.892  -8.507 -20.575  0.00  0.00    +0.025 C 
ATOM     18  C   UNL     1      31.639  -7.537 -21.591  0.00  0.00    +0.198 C 
ATOM     19  C   UNL     1      31.550  -6.816 -23.684  0.00  0.00    +0.173 C 
ATOM     20  C   UNL     1      31.153  -5.841 -22.802  0.00  0.00    +0.111 C 
ATOM     21  C   UNL     1      31.689  -8.227 -19.108  0.00  0.00    +0.035 C 
ATOM     22  C   UNL     1      30.710  -4.470 -23.096  0.00  0.00    +0.063 C 
ENDBRANCH  10  15
BRANCH   4  24
ATOM     23  N   UNL     1      35.111 -20.136 -23.156  0.00  0.00    +0.389 N 
ATOM     24  N   UNL     1      34.915 -17.293 -22.837  0.00  0.00    -0.311 N 
ATOM     25  C   UNL     1      35.136 -19.500 -21.814  0.00  0.00    -0.027 C 
ATOM     26  C   UNL     1      35.500 -20.364 -20.626  0.00  0.00    -0.020 C 
ATOM     27  C   UNL     1      34.082 -19.908 -20.806  0.00  0.00    -0.020 C 
ATOM     28  C   UNL     1      35.618 -18.064 -21.807  0.00  0.00    +0.071 C 
ATOM     29  C   UNL     1      34.324 -19.323 -24.085  0.00  0.00    -0.060 C 
ATOM     30  C   UNL     1      34.878 -17.900 -24.171  0.00  0.00    +0.067 C 
ATOM     31  H   UNL     1      34.694 -21.064 -23.083  0.00  0.00    -0.084 HD
ATOM     32  H   UNL     1      36.066 -20.211 -23.507  0.00  0.00    -0.084 HD
ENDBRANCH   4  24
TORSDOF 2
ENDMDL
MODEL 4
REMARK VINA RESULT:     -10.0      6.497     13.947
REMARK  Name = 118513932
REMARK  2 active torsions:
REMARK  status: ('A' for Active; 'I' for Inactive)
REMARK    1  A    between atoms: C_4  and  N_24
REMARK    2  A    between atoms: C_10  and  C_15
REMARK                            x       y       z     vdW  Elec       q    Type
REMARK                         _______ _______ _______ _____ _____    ______ ____
ROOT
ATOM      1  O   UNL     1      30.995 -11.693 -20.973  0.00  0.00    -0.274 OA
ATOM      2  N   UNL     1      32.754 -10.996 -22.368  0.00  0.00    -0.209 N 
ATOM      3  N   UNL     1      34.304 -12.630 -23.162  0.00  0.00    -0.389 NA
ATOM      4  C   UNL     1      33.029  -8.695 -23.010  0.00  0.00    +0.063 C 
ATOM      5  C   UNL     1      32.368  -9.661 -22.350  0.00  0.00    +0.089 C 
ATOM      6  C   UNL     1      34.199  -9.075 -23.774  0.00  0.00    +0.020 C 
ATOM      7  C   UNL     1      34.622 -10.342 -23.831  0.00  0.00    +0.050 C 
ATOM      8  C   UNL     1      33.881 -11.403 -23.096  0.00  0.00    +0.193 C 
ATOM      9  C   UNL     1      31.997 -11.927 -21.645  0.00  0.00    +0.242 C 
ATOM     10  C   UNL     1      33.584 -13.560 -22.467  0.00  0.00    +0.139 C 
ATOM     11  C   UNL     1      32.494 -13.321 -21.733  0.00  0.00    +0.146 C 
ENDROOT
BRANCH  10  15
ATOM     12  N   UNL     1      34.804 -16.861 -21.663  0.00  0.00    -0.178 N 
ATOM     13  N   UNL     1      34.408 -15.581 -21.443  0.00  0.00    -0.173 NA
ATOM     14  N   UNL     1      35.289 -18.762 -22.717  0.00  0.00    -0.392 NA
ATOM     15  C   UNL     1      34.043 -14.952 -22.525  0.00  0.00    +0.124 C 
ATOM     16  C   UNL     1      34.045 -15.546 -23.896  0.00  0.00    +0.023 C 
ATOM     17  C   UNL     1      34.449 -16.822 -24.047  0.00  0.00    +0.025 C 
ATOM     18  C   UNL     1      34.853 -17.527 -22.874  0.00  0.00    +0.198 C 
ATOM     19  C   UNL     1      35.234 -17.736 -20.701  0.00  0.00    +0.173 C 
ATOM     20  C   UNL     1      35.526 -18.897 -21.374  0.00  0.00    +0.111 C 
ATOM     21  C   UNL     1      34.460 -17.443 -25.419  0.00  0.00    +0.035 C 
ATOM     22  C   UNL     1      36.028 -20.166 -20.827  0.00  0.00    +0.063 C 
ENDBRANCH  10  15
BRANCH   4  24
ATOM     23  N   UNL     1      31.522  -4.822 -23.622  0.00  0.00    +0.389 N 
ATOM     24  N   UNL     1      32.662  -7.380 -23.002  0.00  0.00    -0.311 N 
ATOM     25  C   UNL     1      32.748  -5.313 -24.303  0.00  0.00    -0.027 C 
ATOM     26  C   UNL     1      33.519  -4.339 -25.166  0.00  0.00    -0.020 C 
ATOM     27  C   UNL     1      32.731  -5.440 -25.811  0.00  0.00    -0.020 C 
ATOM     28  C   UNL     1      33.547  -6.325 -23.507  0.00  0.00    +0.071 C 
ATOM     29  C   UNL     1      30.678  -5.951 -23.227  0.00  0.00    -0.060 C 
ATOM     30  C   UNL     1      31.446  -6.919 -22.326  0.00  0.00    +0.067 C 
ATOM     31  H   UNL     1      31.002  -4.218 -24.257  0.00  0.00    -0.084 HD
ATOM     32  H   UNL     1      31.791  -4.300 -22.788  0.00  0.00    -0.084 HD
ENDBRANCH   4  24
TORSDOF 2
ENDMDL
MODEL 5
REMARK VINA RESULT:      -9.8      6.125     10.928
REMARK  Name = 118513932
REMARK  2 active torsions:
REMARK  status: ('A' for Active; 'I' for Inactive)
REMARK    1  A    between atoms: C_4  and  N_24
REMARK    2  A    between atoms: C_10  and  C_15
REMARK                            x       y       z     vdW  Elec       q    Type
REMARK                         _______ _______ _______ _____ _____    ______ ____
ROOT
ATOM      1  O   UNL     1      32.322 -14.439 -19.928  0.00  0.00    -0.274 OA
ATOM      2  N   UNL     1      33.341 -14.118 -22.022  0.00  0.00    -0.209 N 
ATOM      3  N   UNL     1      33.303 -11.937 -22.994  0.00  0.00    -0.389 NA
ATOM      4  C   UNL     1      34.412 -15.920 -23.202  0.00  0.00    +0.063 C 
ATOM      5  C   UNL     1      33.736 -15.446 -22.141  0.00  0.00    +0.089 C 
ATOM      6  C   UNL     1      34.737 -14.995 -24.267  0.00  0.00    +0.020 C 
ATOM      7  C   UNL     1      34.385 -13.706 -24.213  0.00  0.00    +0.050 C 
ATOM      8  C   UNL     1      33.638 -13.192 -23.032  0.00  0.00    +0.193 C 
ATOM      9  C   UNL     1      32.639 -13.723 -20.876  0.00  0.00    +0.242 C 
ATOM     10  C   UNL     1      32.618 -11.523 -21.887  0.00  0.00    +0.139 C 
ATOM     11  C   UNL     1      32.267 -12.289 -20.849  0.00  0.00    +0.146 C 
ENDROOT
BRANCH  10  15
ATOM     12  N   UNL     1      31.636  -8.142 -22.680  0.00  0.00    -0.178 N 
ATOM     13  N   UNL     1      31.986  -9.434 -22.908  0.00  0.00    -0.173 NA
ATOM     14  N   UNL     1      31.160  -6.248 -21.607  0.00  0.00    -0.392 NA
ATOM     15  C   UNL     1      32.228 -10.111 -21.821  0.00  0.00    +0.124 C 
ATOM     16  C   UNL     1      32.141  -9.557 -20.436  0.00  0.00    +0.023 C 
ATOM     17  C   UNL     1      31.789  -8.267 -20.278  0.00  0.00    +0.025 C 
ATOM     18  C   UNL     1      31.519  -7.508 -21.456  0.00  0.00    +0.198 C 
ATOM     19  C   UNL     1      31.331  -7.218 -23.644  0.00  0.00    +0.173 C 
ATOM     20  C   UNL     1      31.041  -6.063 -22.960  0.00  0.00    +0.111 C 
ATOM     21  C   UNL     1      31.695  -7.686 -18.891  0.00  0.00    +0.035 C 
ATOM     22  C   UNL     1      30.649  -4.755 -23.504  0.00  0.00    +0.063 C 
ENDBRANCH  10  15
BRANCH   4  24
ATOM     23  N   UNL     1      34.928 -20.086 -23.361  0.00  0.00    +0.389 N 
ATOM     24  N   UNL     1      34.807 -17.220 -23.332  0.00  0.00    -0.311 N 
ATOM     25  C   UNL     1      35.099 -19.312 -22.104  0.00  0.00    -0.027 C 
ATOM     26  C   UNL     1      35.568 -20.054 -20.873  0.00  0.00    -0.020 C 
ATOM     27  C   UNL     1      34.147 -19.583 -20.958  0.00  0.00    -0.020 C 
ATOM     28  C   UNL     1      35.600 -17.896 -22.300  0.00  0.00    +0.071 C 
ATOM     29  C   UNL     1      34.062 -19.355 -24.289  0.00  0.00    -0.060 C 
ATOM     30  C   UNL     1      34.626 -17.964 -24.582  0.00  0.00    +0.067 C 
ATOM     31  H   UNL     1      34.507 -20.989 -23.148  0.00  0.00    -0.084 HD
ATOM     32  H   UNL     1      35.841 -20.222 -23.795  0.00  0.00    -0.084 HD
ENDBRANCH   4  24
TORSDOF 2
ENDMDL
MODEL 6
REMARK VINA RESULT:      -9.6      7.589     14.520
REMARK  Name = 118513932
REMARK  2 active torsions:
REMARK  status: ('A' for Active; 'I' for Inactive)
REMARK    1  A    between atoms: C_4  and  N_24
REMARK    2  A    between atoms: C_10  and  C_15
REMARK                            x       y       z     vdW  Elec       q    Type
REMARK                         _______ _______ _______ _____ _____    ______ ____
ROOT
ATOM      1  O   UNL     1      35.110  -9.405 -24.680  0.00  0.00    -0.274 OA
ATOM      2  N   UNL     1      33.386  -9.783 -23.127  0.00  0.00    -0.209 N 
ATOM      3  N   UNL     1      32.830 -12.034 -22.556  0.00  0.00    -0.389 NA
ATOM      4  C   UNL     1      32.175  -7.971 -22.108  0.00  0.00    +0.063 C 
ATOM      5  C   UNL     1      33.126  -8.430 -22.941  0.00  0.00    +0.089 C 
ATOM      6  C   UNL     1      31.390  -8.942 -21.376  0.00  0.00    +0.020 C 
ATOM      7  C   UNL     1      31.591 -10.257 -21.511  0.00  0.00    +0.050 C 
ATOM      8  C   UNL     1      32.647 -10.753 -22.435  0.00  0.00    +0.193 C 
ATOM      9  C   UNL     1      34.398 -10.159 -24.019  0.00  0.00    +0.242 C 
ATOM     10  C   UNL     1      33.812 -12.431 -23.419  0.00  0.00    +0.139 C 
ATOM     11  C   UNL     1      34.593 -11.623 -24.143  0.00  0.00    +0.146 C 
ENDROOT
BRANCH  10  15
ATOM     12  N   UNL     1      34.841 -15.861 -22.971  0.00  0.00    -0.178 N 
ATOM     13  N   UNL     1      34.723 -14.538 -22.687  0.00  0.00    -0.173 NA
ATOM     14  N   UNL     1      34.634 -17.815 -24.020  0.00  0.00    -0.392 NA
ATOM     15  C   UNL     1      34.037 -13.871 -23.572  0.00  0.00    +0.124 C 
ATOM     16  C   UNL     1      33.422 -14.467 -24.797  0.00  0.00    +0.023 C 
ATOM     17  C   UNL     1      33.576 -15.785 -25.021  0.00  0.00    +0.025 C 
ATOM     18  C   UNL     1      34.325 -16.533 -24.063  0.00  0.00    +0.198 C 
ATOM     19  C   UNL     1      35.509 -16.781 -22.207  0.00  0.00    +0.173 C 
ATOM     20  C   UNL     1      35.367 -17.974 -22.872  0.00  0.00    +0.111 C 
ATOM     21  C   UNL     1      32.965 -16.409 -26.249  0.00  0.00    +0.035 C 
ATOM     22  C   UNL     1      35.887 -19.297 -22.495  0.00  0.00    +0.063 C 
ENDBRANCH  10  15
BRANCH   4  24
ATOM     23  N   UNL     1      30.772  -4.014 -21.981  0.00  0.00    +0.389 N 
ATOM     24  N   UNL     1      31.910  -6.646 -21.915  0.00  0.00    -0.311 N 
ATOM     25  C   UNL     1      31.651  -4.510 -23.072  0.00  0.00    -0.027 C 
ATOM     26  C   UNL     1      32.123  -3.516 -24.110  0.00  0.00    -0.020 C 
ATOM     27  C   UNL     1      31.098  -4.546 -24.481  0.00  0.00    -0.020 C 
ATOM     28  C   UNL     1      32.620  -5.597 -22.654  0.00  0.00    +0.071 C 
ATOM     29  C   UNL     1      30.057  -5.133 -21.362  0.00  0.00    -0.060 C 
ATOM     30  C   UNL     1      31.036  -6.181 -20.833  0.00  0.00    +0.067 C 
ATOM     31  H   UNL     1      30.097  -3.354 -22.365  0.00  0.00    -0.084 HD
ATOM     32  H   UNL     1      31.346  -3.554 -21.275  0.00  0.00    -0.084 HD
ENDBRANCH   4  24
TORSDOF 2
ENDMDL
MODEL 7
REMARK VINA RESULT:      -8.9      7.942     13.057
REMARK  Name = 118513932
REMARK  2 active torsions:
REMARK  status: ('A' for Active; 'I' for Inactive)
REMARK    1  A    between atoms: C_4  and  N_24
REMARK    2  A    between atoms: C_10  and  C_15
REMARK                            x       y       z     vdW  Elec       q    Type
REMARK                         _______ _______ _______ _____ _____    ______ ____
ROOT
ATOM      1  O   UNL     1      30.905 -10.908 -20.374  0.00  0.00    -0.274 OA
ATOM      2  N   UNL     1      32.460 -11.328 -22.086  0.00  0.00    -0.209 N 
ATOM      3  N   UNL     1      33.125  -9.523 -23.500  0.00  0.00    -0.389 NA
ATOM      4  C   UNL     1      33.391 -13.517 -22.446  0.00  0.00    +0.063 C 
ATOM      5  C   UNL     1      32.586 -12.677 -21.773  0.00  0.00    +0.089 C 
ATOM      6  C   UNL     1      34.159 -12.980 -23.549  0.00  0.00    +0.020 C 
ATOM      7  C   UNL     1      34.083 -11.692 -23.901  0.00  0.00    +0.050 C 
ATOM      8  C   UNL     1      33.188 -10.771 -23.147  0.00  0.00    +0.193 C 
ATOM      9  C   UNL     1      31.593 -10.536 -21.323  0.00  0.00    +0.242 C 
ATOM     10  C   UNL     1      32.287  -8.726 -22.773  0.00  0.00    +0.139 C 
ATOM     11  C   UNL     1      31.534  -9.115 -21.739  0.00  0.00    +0.146 C 
ENDROOT
BRANCH  10  15
ATOM     12  N   UNL     1      31.330  -5.260 -23.093  0.00  0.00    -0.178 N 
ATOM     13  N   UNL     1      31.280  -6.540 -22.643  0.00  0.00    -0.173 NA
ATOM     14  N   UNL     1      31.981  -3.447 -24.211  0.00  0.00    -0.392 NA
ATOM     15  C   UNL     1      32.198  -7.312 -23.153  0.00  0.00    +0.124 C 
ATOM     16  C   UNL     1      33.226  -6.871 -24.143  0.00  0.00    +0.023 C 
ATOM     17  C   UNL     1      33.222  -5.588 -24.550  0.00  0.00    +0.025 C 
ATOM     18  C   UNL     1      32.225  -4.726 -24.003  0.00  0.00    +0.198 C 
ATOM     19  C   UNL     1      30.484  -4.251 -22.718  0.00  0.00    +0.173 C 
ATOM     20  C   UNL     1      30.905  -3.147 -23.418  0.00  0.00    +0.111 C 
ATOM     21  C   UNL     1      34.250  -5.120 -25.548  0.00  0.00    +0.035 C 
ATOM     22  C   UNL     1      30.349  -1.786 -23.394  0.00  0.00    +0.063 C 
ENDBRANCH  10  15
BRANCH   4  24
ATOM     23  N   UNL     1      34.546 -17.442 -21.496  0.00  0.00    +0.389 N 
ATOM     24  N   UNL     1      33.525 -14.842 -22.150  0.00  0.00    -0.311 N 
ATOM     25  C   UNL     1      34.584 -16.917 -22.886  0.00  0.00    -0.027 C 
ATOM     26  C   UNL     1      34.963 -17.874 -23.995  0.00  0.00    -0.020 C 
ATOM     27  C   UNL     1      35.928 -16.805 -23.576  0.00  0.00    -0.020 C 
ATOM     28  C   UNL     1      33.531 -15.873 -23.194  0.00  0.00    +0.071 C 
ATOM     29  C   UNL     1      34.620 -16.336 -20.538  0.00  0.00    -0.060 C 
ATOM     30  C   UNL     1      33.487 -15.336 -20.770  0.00  0.00    +0.067 C 
ATOM     31  H   UNL     1      35.337 -18.068 -21.349  0.00  0.00    -0.084 HD
ATOM     32  H   UNL     1      33.672 -17.947 -21.355  0.00  0.00    -0.084 HD
ENDBRANCH   4  24
TORSDOF 2
ENDMDL
MODEL 8
REMARK VINA RESULT:      -8.9      5.360     11.920
REMARK  Name = 118513932
REMARK  2 active torsions:
REMARK  status: ('A' for Active; 'I' for Inactive)
REMARK    1  A    between atoms: C_4  and  N_24
REMARK    2  A    between atoms: C_10  and  C_15
REMARK                            x       y       z     vdW  Elec       q    Type
REMARK                         _______ _______ _______ _____ _____    ______ ____
ROOT
ATOM      1  O   UNL     1      34.199 -13.576 -24.108  0.00  0.00    -0.274 OA
ATOM      2  N   UNL     1      33.191 -13.423 -21.990  0.00  0.00    -0.209 N 
ATOM      3  N   UNL     1      33.322 -15.299 -20.519  0.00  0.00    -0.389 NA
ATOM      4  C   UNL     1      32.038 -11.437 -21.274  0.00  0.00    +0.063 C 
ATOM      5  C   UNL     1      32.737 -12.125 -22.194  0.00  0.00    +0.089 C 
ATOM      6  C   UNL     1      31.750 -12.090 -20.014  0.00  0.00    +0.020 C 
ATOM      7  C   UNL     1      32.158 -13.337 -19.758  0.00  0.00    +0.050 C 
ATOM      8  C   UNL     1      32.932 -14.088 -20.784  0.00  0.00    +0.193 C 
ATOM      9  C   UNL     1      33.911 -14.054 -23.013  0.00  0.00    +0.242 C 
ATOM     10  C   UNL     1      34.028 -15.939 -21.498  0.00  0.00    +0.139 C 
ATOM     11  C   UNL     1      34.349 -15.433 -22.693  0.00  0.00    +0.146 C 
ENDROOT
BRANCH  10  15
ATOM     12  N   UNL     1      34.232 -19.407 -20.520  0.00  0.00    -0.178 N 
ATOM     13  N   UNL     1      33.666 -18.189 -20.713  0.00  0.00    -0.173 NA
ATOM     14  N   UNL     1      35.742 -21.045 -20.487  0.00  0.00    -0.392 NA
ATOM     15  C   UNL     1      34.478 -17.307 -21.224  0.00  0.00    +0.124 C 
ATOM     16  C   UNL     1      35.906 -17.571 -21.578  0.00  0.00    +0.023 C 
ATOM     17  C   UNL     1      36.408 -18.802 -21.361  0.00  0.00    +0.025 C 
ATOM     18  C   UNL     1      35.533 -19.781 -20.802  0.00  0.00    +0.198 C 
ATOM     19  C   UNL     1      33.600 -20.505 -19.999  0.00  0.00    +0.173 C 
ATOM     20  C   UNL     1      34.548 -21.498 -19.989  0.00  0.00    +0.111 C 
ATOM     21  C   UNL     1      37.845 -19.092 -21.710  0.00  0.00    +0.035 C 
ATOM     22  C   UNL     1      34.408 -22.888 -19.531  0.00  0.00    +0.063 C 
ENDBRANCH  10  15
BRANCH   4  24
ATOM     23  N   UNL     1      31.292  -7.417 -22.234  0.00  0.00    +0.389 N 
ATOM     24  N   UNL     1      31.586 -10.162 -21.459  0.00  0.00    -0.311 N 
ATOM     25  C   UNL     1      32.139  -7.813 -21.079  0.00  0.00    -0.027 C 
ATOM     26  C   UNL     1      32.662  -6.720 -20.174  0.00  0.00    -0.020 C 
ATOM     27  C   UNL     1      33.605  -7.432 -21.098  0.00  0.00    -0.020 C 
ATOM     28  C   UNL     1      31.748  -9.126 -20.433  0.00  0.00    +0.071 C 
ATOM     29  C   UNL     1      31.260  -8.491 -23.228  0.00  0.00    -0.060 C 
ATOM     30  C   UNL     1      30.754  -9.794 -22.608  0.00  0.00    +0.067 C 
ATOM     31  H   UNL     1      31.676  -6.574 -22.661  0.00  0.00    -0.084 HD
ATOM     32  H   UNL     1      30.343  -7.239 -21.905  0.00  0.00    -0.084 HD
ENDBRANCH   4  24
TORSDOF 2
ENDMDL
MODEL 9
REMARK VINA RESULT:      -8.6      6.637     13.884
REMARK  Name = 118513932
REMARK  2 active torsions:
REMARK  status: ('A' for Active; 'I' for Inactive)
REMARK    1  A    between atoms: C_4  and  N_24
REMARK    2  A    between atoms: C_10  and  C_15
REMARK                            x       y       z     vdW  Elec       q    Type
REMARK                         _______ _______ _______ _____ _____    ______ ____
ROOT
ATOM      1  O   UNL     1      34.885 -10.807 -25.106  0.00  0.00    -0.274 OA
ATOM      2  N   UNL     1      33.516 -10.854 -23.196  0.00  0.00    -0.209 N 
ATOM      3  N   UNL     1      33.196 -12.933 -22.065  0.00  0.00    -0.389 NA
ATOM      4  C   UNL     1      32.436  -8.874 -22.359  0.00  0.00    +0.063 C 
ATOM      5  C   UNL     1      33.229  -9.494 -23.250  0.00  0.00    +0.089 C 
ATOM      6  C   UNL     1      31.858  -9.670 -21.297  0.00  0.00    +0.020 C 
ATOM      7  C   UNL     1      32.095 -10.982 -21.191  0.00  0.00    +0.050 C 
ATOM      8  C   UNL     1      32.975 -11.657 -22.182  0.00  0.00    +0.193 C 
ATOM      9  C   UNL     1      34.354 -11.406 -24.173  0.00  0.00    +0.242 C 
ATOM     10  C   UNL     1      34.011 -13.498 -23.005  0.00  0.00    +0.139 C 
ATOM     11  C   UNL     1      34.595 -12.861 -24.024  0.00  0.00    +0.146 C 
ENDROOT
BRANCH  10  15
ATOM     12  N   UNL     1      34.796 -16.812 -21.810  0.00  0.00    -0.178 N 
ATOM     13  N   UNL     1      34.584 -15.473 -21.747  0.00  0.00    -0.173 NA
ATOM     14  N   UNL     1      34.988 -18.877 -22.624  0.00  0.00    -0.392 NA
ATOM     15  C   UNL     1      34.275 -14.936 -22.894  0.00  0.00    +0.124 C 
ATOM     16  C   UNL     1      34.156 -15.688 -24.180  0.00  0.00    +0.023 C 
ATOM     17  C   UNL     1      34.380 -17.016 -24.175  0.00  0.00    +0.025 C 
ATOM     18  C   UNL     1      34.719 -17.622 -22.928  0.00  0.00    +0.198 C 
ATOM     19  C   UNL     1      35.132 -17.614 -20.752  0.00  0.00    +0.173 C 
ATOM     20  C   UNL     1      35.244 -18.878 -21.277  0.00  0.00    +0.111 C 
ATOM     21  C   UNL     1      34.266 -17.795 -25.459  0.00  0.00    +0.035 C 
ATOM     22  C   UNL     1      35.586 -20.128 -20.582  0.00  0.00    +0.063 C 
ENDBRANCH  10  15
BRANCH   4  24
ATOM     23  N   UNL     1      31.171  -4.942 -23.121  0.00  0.00    +0.389 N 
ATOM     24  N   UNL     1      32.146  -7.541 -22.399  0.00  0.00    -0.311 N 
ATOM     25  C   UNL     1      32.381  -5.524 -23.758  0.00  0.00    -0.027 C 
ATOM     26  C   UNL     1      33.226  -4.624 -24.632  0.00  0.00    -0.020 C 
ATOM     27  C   UNL     1      32.389  -5.697 -25.262  0.00  0.00    -0.020 C 
ATOM     28  C   UNL     1      33.102  -6.555 -22.914  0.00  0.00    +0.071 C 
ATOM     29  C   UNL     1      30.254  -6.008 -22.712  0.00  0.00    -0.060 C 
ATOM     30  C   UNL     1      30.945  -6.990 -21.765  0.00  0.00    +0.067 C 
ATOM     31  H   UNL     1      30.701  -4.329 -23.786  0.00  0.00    -0.084 HD
ATOM     32  H   UNL     1      31.452  -4.410 -22.297  0.00  0.00    -0.084 HD
ENDBRANCH   4  24
TORSDOF 2
ENDMDL
