MODEL 1
REMARK VINA RESULT:     -12.2      0.000      0.000
REMARK  Name = 448317
REMARK  6 active torsions:
REMARK  status: ('A' for Active; 'I' for Inactive)
REMARK    1  A    between atoms: C_1  and  C_18
REMARK    2  A    between atoms: C_4  and  N_24
REMARK    3  A    between atoms: C_5  and  S_25
REMARK    4  A    between atoms: S_25  and  C_26
REMARK    5  A    between atoms: C_27  and  O_32
REMARK    6  A    between atoms: O_32  and  C_33
REMARK                            x       y       z     vdW  Elec       q    Type
REMARK                         _______ _______ _______ _____ _____    ______ ____
ROOT
ATOM      1  C   UNL     1      34.373 -21.197 -19.514  0.00  0.00    +0.002 C 
ATOM      2  C   UNL     1      35.663 -20.673 -19.597  0.00  0.00    +0.025 C 
ATOM      3  C   UNL     1      33.424 -20.870 -20.482  0.00  0.00    +0.001 C 
ATOM      4  C   UNL     1      36.005 -19.822 -20.649  0.00  0.00    +0.149 C 
ATOM      5  C   UNL     1      35.055 -19.494 -21.616  0.00  0.00    +0.052 C 
ATOM      6  C   UNL     1      33.765 -20.018 -21.534  0.00  0.00    +0.008 C 
ENDROOT
BRANCH   1  18
ATOM      7  O   UNL     1      38.804 -24.268 -11.995  0.00  0.00    -0.275 OA
ATOM      8  N   UNL     1      35.653 -23.948 -15.697  0.00  0.00    -0.290 N 
ATOM      9  N   UNL     1      37.608 -24.880 -13.887  0.00  0.00    -0.276 N 
ATOM     10  N   UNL     1      33.333 -23.785 -16.319  0.00  0.00    -0.229 NA
ATOM     11  C   UNL     1      35.482 -25.265 -15.067  0.00  0.00    +0.114 C 
ATOM     12  C   UNL     1      36.471 -22.978 -14.951  0.00  0.00    +0.114 C 
ATOM     13  C   UNL     1      36.838 -25.849 -14.671  0.00  0.00    +0.115 C 
ATOM     14  C   UNL     1      37.810 -23.601 -14.561  0.00  0.00    +0.115 C 
ATOM     15  C   UNL     1      34.648 -23.446 -16.531  0.00  0.00    +0.132 C 
ATOM     16  C   UNL     1      38.144 -25.101 -12.622  0.00  0.00    +0.226 C 
ATOM     17  C   UNL     1      35.007 -22.588 -17.588  0.00  0.00    +0.034 C 
ATOM     18  C   UNL     1      34.019 -22.079 -18.425  0.00  0.00    +0.004 C 
ATOM     19  C   UNL     1      37.881 -26.451 -12.004  0.00  0.00    +0.095 C 
ATOM     20  C   UNL     1      32.689 -22.423 -18.209  0.00  0.00    +0.021 C 
ATOM     21  C   UNL     1      32.401 -23.272 -17.153  0.00  0.00    +0.100 C 
ENDBRANCH   1  18
BRANCH   4  24
ATOM     22  O   UNL     1      37.919 -19.245 -21.798  0.00  0.00    -0.126 OA
ATOM     23  O   UNL     1      37.872 -18.938 -19.624  0.00  0.00    -0.126 OA
ATOM     24  N   UNL     1      37.333 -19.309 -20.693  0.00  0.00    +0.058 N 
ENDBRANCH   4  24
BRANCH   5  25
ATOM     25  S   UNL     1      35.427 -18.408 -22.991  0.00  0.00    -0.082 S 
BRANCH  25  26
ATOM     26  C   UNL     1      34.900 -16.834 -22.334  0.00  0.00    +0.063 C 
ATOM     27  C   UNL     1      34.651 -15.743 -23.167  0.00  0.00    +0.144 C 
ATOM     28  C   UNL     1      34.739 -16.704 -20.952  0.00  0.00    +0.010 C 
ATOM     29  C   UNL     1      34.242 -14.526 -22.623  0.00  0.00    +0.037 C 
ATOM     30  C   UNL     1      34.330 -15.487 -20.408  0.00  0.00    +0.001 C 
ATOM     31  C   UNL     1      34.081 -14.397 -21.242  0.00  0.00    +0.003 C 
BRANCH  27  32
ATOM     32  O   UNL     1      34.796 -15.832 -24.520  0.00  0.00    -0.475 OA
BRANCH  32  33
ATOM     33  C   UNL     1      33.602 -15.926 -25.294  0.00  0.00    +0.206 C 
ATOM     34  C   UNL     1      33.416 -14.640 -26.071  0.00  0.00    +0.051 C 
ENDBRANCH  32  33
ENDBRANCH  27  32
ENDBRANCH  25  26
ENDBRANCH   5  25
TORSDOF 6
ENDMDL
MODEL 2
REMARK VINA RESULT:      -9.2      6.674     11.194
REMARK  Name = 448317
REMARK  6 active torsions:
REMARK  status: ('A' for Active; 'I' for Inactive)
REMARK    1  A    between atoms: C_1  and  C_18
REMARK    2  A    between atoms: C_4  and  N_24
REMARK    3  A    between atoms: C_5  and  S_25
REMARK    4  A    between atoms: S_25  and  C_26
REMARK    5  A    between atoms: C_27  and  O_32
REMARK    6  A    between atoms: O_32  and  C_33
REMARK                            x       y       z     vdW  Elec       q    Type
REMARK                         _______ _______ _______ _____ _____    ______ ____
ROOT
ATOM      1  C   UNL     1      33.801 -11.328 -23.891  0.00  0.00    +0.002 C 
ATOM      2  C   UNL     1      32.728 -10.846 -23.142  0.00  0.00    +0.025 C 
ATOM      3  C   UNL     1      34.888 -10.498 -24.165  0.00  0.00    +0.001 C 
ATOM      4  C   UNL     1      32.742  -9.535 -22.663  0.00  0.00    +0.149 C 
ATOM      5  C   UNL     1      33.829  -8.706 -22.936  0.00  0.00    +0.052 C 
ATOM      6  C   UNL     1      34.903  -9.187 -23.687  0.00  0.00    +0.008 C 
ENDROOT
BRANCH   1  18
ATOM      7  O   UNL     1      34.320 -19.660 -19.904  0.00  0.00    -0.275 OA
ATOM      8  N   UNL     1      34.560 -16.097 -23.218  0.00  0.00    -0.290 N 
ATOM      9  N   UNL     1      35.209 -18.266 -21.534  0.00  0.00    -0.276 N 
ATOM     10  N   UNL     1      33.758 -15.311 -25.347  0.00  0.00    -0.229 NA
ATOM     11  C   UNL     1      35.179 -17.297 -23.796  0.00  0.00    +0.114 C 
ATOM     12  C   UNL     1      33.803 -16.298 -21.972  0.00  0.00    +0.114 C 
ATOM     13  C   UNL     1      36.004 -18.034 -22.741  0.00  0.00    +0.115 C 
ATOM     14  C   UNL     1      34.652 -17.049 -20.949  0.00  0.00    +0.115 C 
ATOM     15  C   UNL     1      34.161 -15.052 -24.059  0.00  0.00    +0.132 C 
ATOM     16  C   UNL     1      34.982 -19.502 -20.933  0.00  0.00    +0.226 C 
ATOM     17  C   UNL     1      34.180 -13.734 -23.564  0.00  0.00    +0.034 C 
ATOM     18  C   UNL     1      33.786 -12.686 -24.387  0.00  0.00    +0.004 C 
ATOM     19  C   UNL     1      35.594 -20.702 -21.609  0.00  0.00    +0.095 C 
ATOM     20  C   UNL     1      33.377 -12.948 -25.690  0.00  0.00    +0.021 C 
ATOM     21  C   UNL     1      33.382 -14.266 -26.118  0.00  0.00    +0.100 C 
ENDBRANCH   1  18
BRANCH   4  24
ATOM     22  O   UNL     1      31.643  -9.234 -20.659  0.00  0.00    -0.126 OA
ATOM     23  O   UNL     1      30.660  -8.557 -22.502  0.00  0.00    -0.126 OA
ATOM     24  N   UNL     1      31.625  -9.086 -21.902  0.00  0.00    +0.058 N 
ENDBRANCH   4  24
BRANCH   5  25
ATOM     25  S   UNL     1      33.912  -7.014 -22.353  0.00  0.00    -0.082 S 
BRANCH  25  26
ATOM     26  C   UNL     1      33.675  -6.117 -23.878  0.00  0.00    +0.063 C 
ATOM     27  C   UNL     1      32.428  -5.598 -24.231  0.00  0.00    +0.144 C 
ATOM     28  C   UNL     1      34.768  -5.938 -24.729  0.00  0.00    +0.010 C 
ATOM     29  C   UNL     1      32.275  -4.902 -25.430  0.00  0.00    +0.037 C 
ATOM     30  C   UNL     1      34.614  -5.242 -25.928  0.00  0.00    +0.001 C 
ATOM     31  C   UNL     1      33.368  -4.724 -26.279  0.00  0.00    +0.003 C 
BRANCH  27  32
ATOM     32  O   UNL     1      31.338  -5.751 -23.426  0.00  0.00    -0.475 OA
BRANCH  32  33
ATOM     33  C   UNL     1      30.929  -4.615 -22.668  0.00  0.00    +0.206 C 
ATOM     34  C   UNL     1      30.168  -5.086 -21.447  0.00  0.00    +0.051 C 
ENDBRANCH  32  33
ENDBRANCH  27  32
ENDBRANCH  25  26
ENDBRANCH   5  25
TORSDOF 6
ENDMDL
