MODEL 1
REMARK VINA RESULT:     -11.2      0.000      0.000
REMARK  Name = 71360
REMARK  8 active torsions:
REMARK  status: ('A' for Active; 'I' for Inactive)
REMARK    1  A    between atoms: N_1  and  C_18
REMARK    2  A    between atoms: C_2  and  C_11
REMARK    3  A    between atoms: C_18  and  C_19
REMARK    4  A    between atoms: C_19  and  C_20
REMARK    5  A    between atoms: C_20  and  O_21
REMARK    6  A    between atoms: O_21  and  C_22
REMARK    7  A    between atoms: C_23  and  O_31
REMARK    8  A    between atoms: C_27  and  C_29
REMARK                            x       y       z     vdW  Elec       q    Type
REMARK                         _______ _______ _______ _____ _____    ______ ____
ROOT
ATOM      1  N   UNL     1      35.349 -17.294 -24.011  0.00  0.00    +0.387 N 
ATOM      2  C   UNL     1      34.923 -19.035 -21.688  0.00  0.00    +0.039 C 
ATOM      3  C   UNL     1      35.661 -17.691 -21.588  0.00  0.00    -0.017 C 
ATOM      4  C   UNL     1      35.028 -19.581 -23.122  0.00  0.00    -0.017 C 
ATOM      5  C   UNL     1      35.189 -16.715 -22.670  0.00  0.00    -0.077 C 
ATOM      6  C   UNL     1      34.578 -18.538 -24.147  0.00  0.00    -0.077 C 
ATOM      7  H   UNL     1      36.335 -17.519 -24.142  0.00  0.00    -0.080 HD
ENDROOT
BRANCH   2  11
ATOM      8  F   UNL     1      33.442 -23.801 -17.180  0.00  0.00    -0.204 F 
ATOM      9  O   UNL     1      36.765 -21.127 -19.404  0.00  0.00    -0.354 OA
ATOM     10  N   UNL     1      36.682 -20.144 -20.382  0.00  0.00    -0.081 NA
ATOM     11  C   UNL     1      35.383 -20.033 -20.648  0.00  0.00    +0.100 A 
ATOM     12  C   UNL     1      34.590 -20.904 -19.889  0.00  0.00    +0.054 A 
ATOM     13  C   UNL     1      35.514 -21.579 -19.111  0.00  0.00    +0.179 A 
ATOM     14  C   UNL     1      33.228 -21.213 -19.750  0.00  0.00    +0.007 C 
ATOM     15  C   UNL     1      35.190 -22.564 -18.183  0.00  0.00    +0.070 C 
ATOM     16  C   UNL     1      32.864 -22.201 -18.823  0.00  0.00    +0.030 C 
ATOM     17  C   UNL     1      33.828 -22.863 -18.055  0.00  0.00    +0.143 C 
ENDBRANCH   2  11
BRANCH   1  18
ATOM     18  C   UNL     1      34.947 -16.329 -25.035  0.00  0.00    -0.074 C 
BRANCH  18  19
ATOM     19  C   UNL     1      33.469 -15.984 -24.886  0.00  0.00    +0.025 C 
BRANCH  19  20
ATOM     20  C   UNL     1      33.239 -14.480 -24.924  0.00  0.00    +0.203 C 
BRANCH  20  21
ATOM     21  O   UNL     1      33.971 -13.876 -23.867  0.00  0.00    -0.472 OA
BRANCH  21  22
ATOM     22  C   UNL     1      33.446 -12.732 -23.325  0.00  0.00    +0.172 C 
ATOM     23  C   UNL     1      32.519 -12.809 -22.291  0.00  0.00    +0.172 C 
ATOM     24  C   UNL     1      33.849 -11.498 -23.824  0.00  0.00    +0.040 C 
ATOM     25  C   UNL     1      31.991 -11.637 -21.748  0.00  0.00    +0.043 C 
ATOM     26  C   UNL     1      33.321 -10.326 -23.281  0.00  0.00    +0.006 C 
ATOM     27  C   UNL     1      32.391 -10.396 -22.243  0.00  0.00    +0.038 C 
BRANCH  27  29
ATOM     28  O   UNL     1      31.873  -8.955 -20.449  0.00  0.00    -0.291 OA
ATOM     29  C   UNL     1      31.841  -9.174 -21.677  0.00  0.00    +0.174 C 
ATOM     30  C   UNL     1      31.208  -8.125 -22.583  0.00  0.00    +0.077 C 
ENDBRANCH  27  29
BRANCH  23  31
ATOM     31  O   UNL     1      32.120 -14.015 -21.798  0.00  0.00    -0.468 OA
ATOM     32  C   UNL     1      32.675 -14.419 -20.549  0.00  0.00    +0.253 C 
ENDBRANCH  23  31
ENDBRANCH  21  22
ENDBRANCH  20  21
ENDBRANCH  19  20
ENDBRANCH  18  19
ENDBRANCH   1  18
TORSDOF 8
ENDMDL
MODEL 2
REMARK VINA RESULT:     -11.2      2.653      4.561
REMARK  Name = 71360
REMARK  8 active torsions:
REMARK  status: ('A' for Active; 'I' for Inactive)
REMARK    1  A    between atoms: N_1  and  C_18
REMARK    2  A    between atoms: C_2  and  C_11
REMARK    3  A    between atoms: C_18  and  C_19
REMARK    4  A    between atoms: C_19  and  C_20
REMARK    5  A    between atoms: C_20  and  O_21
REMARK    6  A    between atoms: O_21  and  C_22
REMARK    7  A    between atoms: C_23  and  O_31
REMARK    8  A    between atoms: C_27  and  C_29
REMARK                            x       y       z     vdW  Elec       q    Type
REMARK                         _______ _______ _______ _____ _____    ______ ____
ROOT
ATOM      1  N   UNL     1      34.739 -20.458 -20.301  0.00  0.00    +0.387 N 
ATOM      2  C   UNL     1      34.330 -22.626 -18.366  0.00  0.00    +0.039 C 
ATOM      3  C   UNL     1      33.210 -21.651 -18.761  0.00  0.00    -0.017 C 
ATOM      4  C   UNL     1      35.700 -21.964 -18.587  0.00  0.00    -0.017 C 
ATOM      5  C   UNL     1      33.424 -21.102 -20.175  0.00  0.00    -0.077 C 
ATOM      6  C   UNL     1      35.824 -21.405 -20.007  0.00  0.00    -0.077 C 
ATOM      7  H   UNL     1      34.787 -19.703 -19.616  0.00  0.00    -0.080 HD
ENDROOT
BRANCH   2  11
ATOM      8  F   UNL     1      30.297 -24.475 -13.312  0.00  0.00    -0.204 F 
ATOM      9  O   UNL     1      34.755 -23.943 -15.039  0.00  0.00    -0.354 OA
ATOM     10  N   UNL     1      35.245 -23.483 -16.255  0.00  0.00    -0.081 NA
ATOM     11  C   UNL     1      34.164 -23.169 -16.964  0.00  0.00    +0.100 A 
ATOM     12  C   UNL     1      32.966 -23.401 -16.273  0.00  0.00    +0.054 A 
ATOM     13  C   UNL     1      33.394 -23.893 -15.052  0.00  0.00    +0.179 A 
ATOM     14  C   UNL     1      31.590 -23.263 -16.507  0.00  0.00    +0.007 C 
ATOM     15  C   UNL     1      32.545 -24.272 -14.018  0.00  0.00    +0.070 C 
ATOM     16  C   UNL     1      30.704 -23.636 -15.485  0.00  0.00    +0.030 C 
ATOM     17  C   UNL     1      31.175 -24.130 -14.265  0.00  0.00    +0.143 C 
ENDBRANCH   2  11
BRANCH   1  18
ATOM     18  C   UNL     1      34.905 -19.890 -21.639  0.00  0.00    -0.074 C 
BRANCH  18  19
ATOM     19  C   UNL     1      35.736 -18.615 -21.573  0.00  0.00    +0.025 C 
BRANCH  19  20
ATOM     20  C   UNL     1      34.944 -17.461 -20.975  0.00  0.00    +0.203 C 
BRANCH  20  21
ATOM     21  O   UNL     1      34.759 -16.465 -21.971  0.00  0.00    -0.472 OA
BRANCH  21  22
ATOM     22  C   UNL     1      33.941 -15.412 -21.650  0.00  0.00    +0.172 C 
ATOM     23  C   UNL     1      33.623 -14.456 -22.608  0.00  0.00    +0.172 C 
ATOM     24  C   UNL     1      33.438 -15.314 -20.357  0.00  0.00    +0.040 C 
ATOM     25  C   UNL     1      32.790 -13.389 -22.269  0.00  0.00    +0.043 C 
ATOM     26  C   UNL     1      32.605 -14.248 -20.018  0.00  0.00    +0.006 C 
ATOM     27  C   UNL     1      32.282 -13.285 -20.974  0.00  0.00    +0.038 C 
BRANCH  27  29
ATOM     28  O   UNL     1      30.734 -11.579 -21.482  0.00  0.00    -0.291 OA
ATOM     29  C   UNL     1      31.413 -12.173 -20.621  0.00  0.00    +0.174 C 
ATOM     30  C   UNL     1      31.313 -11.706 -19.173  0.00  0.00    +0.077 C 
ENDBRANCH  27  29
BRANCH  23  31
ATOM     31  O   UNL     1      34.113 -14.547 -23.876  0.00  0.00    -0.468 OA
ATOM     32  C   UNL     1      33.169 -14.467 -24.942  0.00  0.00    +0.253 C 
ENDBRANCH  23  31
ENDBRANCH  21  22
ENDBRANCH  20  21
ENDBRANCH  19  20
ENDBRANCH  18  19
ENDBRANCH   1  18
TORSDOF 8
ENDMDL
MODEL 3
REMARK VINA RESULT:     -11.1      2.775      4.721
REMARK  Name = 71360
REMARK  8 active torsions:
REMARK  status: ('A' for Active; 'I' for Inactive)
REMARK    1  A    between atoms: N_1  and  C_18
REMARK    2  A    between atoms: C_2  and  C_11
REMARK    3  A    between atoms: C_18  and  C_19
REMARK    4  A    between atoms: C_19  and  C_20
REMARK    5  A    between atoms: C_20  and  O_21
REMARK    6  A    between atoms: O_21  and  C_22
REMARK    7  A    between atoms: C_23  and  O_31
REMARK    8  A    between atoms: C_27  and  C_29
REMARK                            x       y       z     vdW  Elec       q    Type
REMARK                         _______ _______ _______ _____ _____    ______ ____
ROOT
ATOM      1  N   UNL     1      35.181 -20.469 -20.125  0.00  0.00    +0.387 N 
ATOM      2  C   UNL     1      33.786 -22.536 -18.580  0.00  0.00    +0.039 C 
ATOM      3  C   UNL     1      33.060 -21.317 -19.171  0.00  0.00    -0.017 C 
ATOM      4  C   UNL     1      35.271 -22.203 -18.362  0.00  0.00    -0.017 C 
ATOM      5  C   UNL     1      33.778 -20.794 -20.418  0.00  0.00    -0.077 C 
ATOM      6  C   UNL     1      35.909 -21.650 -19.637  0.00  0.00    -0.077 C 
ATOM      7  H   UNL     1      35.194 -19.765 -19.387  0.00  0.00    -0.080 HD
ENDROOT
BRANCH   2  11
ATOM      8  F   UNL     1      34.284 -25.018 -12.349  0.00  0.00    -0.204 F 
ATOM      9  O   UNL     1      31.501 -23.649 -16.025  0.00  0.00    -0.354 OA
ATOM     10  N   UNL     1      31.788 -23.133 -17.283  0.00  0.00    -0.081 NA
ATOM     11  C   UNL     1      33.116 -23.064 -17.330  0.00  0.00    +0.100 A 
ATOM     12  C   UNL     1      33.733 -23.513 -16.153  0.00  0.00    +0.054 A 
ATOM     13  C   UNL     1      32.663 -23.876 -15.353  0.00  0.00    +0.179 A 
ATOM     14  C   UNL     1      35.036 -23.663 -15.658  0.00  0.00    +0.007 C 
ATOM     15  C   UNL     1      32.785 -24.387 -14.065  0.00  0.00    +0.070 C 
ATOM     16  C   UNL     1      35.197 -24.177 -14.362  0.00  0.00    +0.030 C 
ATOM     17  C   UNL     1      34.091 -24.531 -13.582  0.00  0.00    +0.143 C 
ENDBRANCH   2  11
BRANCH   1  18
ATOM     18  C   UNL     1      35.837 -19.918 -21.311  0.00  0.00    -0.074 C 
BRANCH  18  19
ATOM     19  C   UNL     1      34.970 -18.833 -21.939  0.00  0.00    +0.025 C 
BRANCH  19  20
ATOM     20  C   UNL     1      35.213 -17.477 -21.291  0.00  0.00    +0.203 C 
BRANCH  20  21
ATOM     21  O   UNL     1      34.985 -16.459 -22.255  0.00  0.00    -0.472 OA
BRANCH  21  22
ATOM     22  C   UNL     1      34.148 -15.437 -21.890  0.00  0.00    +0.172 C 
ATOM     23  C   UNL     1      33.701 -14.525 -22.840  0.00  0.00    +0.172 C 
ATOM     24  C   UNL     1      33.753 -15.326 -20.561  0.00  0.00    +0.040 C 
ATOM     25  C   UNL     1      32.849 -13.489 -22.456  0.00  0.00    +0.043 C 
ATOM     26  C   UNL     1      32.901 -14.290 -20.178  0.00  0.00    +0.006 C 
ATOM     27  C   UNL     1      32.450 -13.371 -21.125  0.00  0.00    +0.038 C 
BRANCH  27  29
ATOM     28  O   UNL     1      30.920 -11.630 -21.567  0.00  0.00    -0.291 OA
ATOM     29  C   UNL     1      31.561 -12.291 -20.725  0.00  0.00    +0.174 C 
ATOM     30  C   UNL     1      31.391 -11.942 -19.251  0.00  0.00    +0.077 C 
ENDBRANCH  27  29
BRANCH  23  31
ATOM     31  O   UNL     1      34.084 -14.629 -24.143  0.00  0.00    -0.468 OA
ATOM     32  C   UNL     1      33.061 -14.515 -25.130  0.00  0.00    +0.253 C 
ENDBRANCH  23  31
ENDBRANCH  21  22
ENDBRANCH  20  21
ENDBRANCH  19  20
ENDBRANCH  18  19
ENDBRANCH   1  18
TORSDOF 8
ENDMDL
MODEL 4
REMARK VINA RESULT:     -11.1      1.518      2.221
REMARK  Name = 71360
REMARK  8 active torsions:
REMARK  status: ('A' for Active; 'I' for Inactive)
REMARK    1  A    between atoms: N_1  and  C_18
REMARK    2  A    between atoms: C_2  and  C_11
REMARK    3  A    between atoms: C_18  and  C_19
REMARK    4  A    between atoms: C_19  and  C_20
REMARK    5  A    between atoms: C_20  and  O_21
REMARK    6  A    between atoms: O_21  and  C_22
REMARK    7  A    between atoms: C_23  and  O_31
REMARK    8  A    between atoms: C_27  and  C_29
REMARK                            x       y       z     vdW  Elec       q    Type
REMARK                         _______ _______ _______ _____ _____    ______ ____
ROOT
ATOM      1  N   UNL     1      34.074 -15.831 -23.144  0.00  0.00    +0.387 N 
ATOM      2  C   UNL     1      35.767 -17.763 -21.728  0.00  0.00    +0.039 C 
ATOM      3  C   UNL     1      35.208 -18.031 -23.134  0.00  0.00    -0.017 C 
ATOM      4  C   UNL     1      34.866 -16.759 -20.991  0.00  0.00    -0.017 C 
ATOM      5  C   UNL     1      34.967 -16.724 -23.895  0.00  0.00    -0.077 C 
ATOM      6  C   UNL     1      34.638 -15.498 -21.828  0.00  0.00    -0.077 C 
ATOM      7  H   UNL     1      33.192 -16.321 -22.993  0.00  0.00    -0.080 HD
ENDROOT
BRANCH   2  11
ATOM      8  F   UNL     1      33.271 -23.219 -18.690  0.00  0.00    -0.204 F 
ATOM      9  O   UNL     1      37.099 -20.570 -19.902  0.00  0.00    -0.354 OA
ATOM     10  N   UNL     1      37.235 -19.380 -20.606  0.00  0.00    -0.081 NA
ATOM     11  C   UNL     1      35.995 -19.033 -20.939  0.00  0.00    +0.100 A 
ATOM     12  C   UNL     1      35.029 -19.944 -20.487  0.00  0.00    +0.054 A 
ATOM     13  C   UNL     1      35.780 -20.904 -19.832  0.00  0.00    +0.179 A 
ATOM     14  C   UNL     1      33.634 -20.089 -20.539  0.00  0.00    +0.007 C 
ATOM     15  C   UNL     1      35.247 -22.028 -19.210  0.00  0.00    +0.070 C 
ATOM     16  C   UNL     1      33.062 -21.210 -19.921  0.00  0.00    +0.030 C 
ATOM     17  C   UNL     1      33.855 -22.161 -19.269  0.00  0.00    +0.143 C 
ENDBRANCH   2  11
BRANCH   1  18
ATOM     18  C   UNL     1      33.808 -14.612 -23.909  0.00  0.00    -0.074 C 
BRANCH  18  19
ATOM     19  C   UNL     1      34.121 -13.381 -23.067  0.00  0.00    +0.025 C 
BRANCH  19  20
ATOM     20  C   UNL     1      34.187 -12.122 -23.920  0.00  0.00    +0.203 C 
BRANCH  20  21
ATOM     21  O   UNL     1      32.933 -11.457 -23.858  0.00  0.00    -0.472 OA
BRANCH  21  22
ATOM     22  C   UNL     1      32.833 -10.406 -22.985  0.00  0.00    +0.172 C 
ATOM     23  C   UNL     1      31.950 -10.470 -21.911  0.00  0.00    +0.172 C 
ATOM     24  C   UNL     1      33.621  -9.278 -23.187  0.00  0.00    +0.040 C 
ATOM     25  C   UNL     1      31.857  -9.393 -21.029  0.00  0.00    +0.043 C 
ATOM     26  C   UNL     1      33.527  -8.201 -22.305  0.00  0.00    +0.006 C 
ATOM     27  C   UNL     1      32.645  -8.259 -21.226  0.00  0.00    +0.038 C 
BRANCH  27  29
ATOM     28  O   UNL     1      33.237  -7.084 -19.268  0.00  0.00    -0.291 OA
ATOM     29  C   UNL     1      32.547  -7.136 -20.306  0.00  0.00    +0.174 C 
ATOM     30  C   UNL     1      31.589  -5.986 -20.596  0.00  0.00    +0.077 C 
ENDBRANCH  27  29
BRANCH  23  31
ATOM     31  O   UNL     1      31.176 -11.572 -21.707  0.00  0.00    -0.468 OA
ATOM     32  C   UNL     1      31.474 -12.370 -20.564  0.00  0.00    +0.253 C 
ENDBRANCH  23  31
ENDBRANCH  21  22
ENDBRANCH  20  21
ENDBRANCH  19  20
ENDBRANCH  18  19
ENDBRANCH   1  18
TORSDOF 8
ENDMDL
MODEL 5
REMARK VINA RESULT:     -11.0      4.350     11.638
REMARK  Name = 71360
REMARK  8 active torsions:
REMARK  status: ('A' for Active; 'I' for Inactive)
REMARK    1  A    between atoms: N_1  and  C_18
REMARK    2  A    between atoms: C_2  and  C_11
REMARK    3  A    between atoms: C_18  and  C_19
REMARK    4  A    between atoms: C_19  and  C_20
REMARK    5  A    between atoms: C_20  and  O_21
REMARK    6  A    between atoms: O_21  and  C_22
REMARK    7  A    between atoms: C_23  and  O_31
REMARK    8  A    between atoms: C_27  and  C_29
REMARK                            x       y       z     vdW  Elec       q    Type
REMARK                         _______ _______ _______ _____ _____    ______ ____
ROOT
ATOM      1  N   UNL     1      34.029 -22.741 -19.127  0.00  0.00    +0.387 N 
ATOM      2  C   UNL     1      34.624 -20.122 -20.307  0.00  0.00    +0.039 C 
ATOM      3  C   UNL     1      33.203 -20.707 -20.272  0.00  0.00    -0.017 C 
ATOM      4  C   UNL     1      35.658 -21.258 -20.256  0.00  0.00    -0.017 C 
ATOM      5  C   UNL     1      33.027 -21.667 -19.091  0.00  0.00    -0.077 C 
ATOM      6  C   UNL     1      35.394 -22.196 -19.076  0.00  0.00    -0.077 C 
ATOM      7  H   UNL     1      33.923 -23.241 -20.010  0.00  0.00    -0.080 HD
ENDROOT
BRANCH   2  11
ATOM      8  F   UNL     1      34.745 -13.869 -22.781  0.00  0.00    -0.204 F 
ATOM      9  O   UNL     1      35.301 -18.593 -23.499  0.00  0.00    -0.354 OA
ATOM     10  N   UNL     1      35.179 -19.693 -22.660  0.00  0.00    -0.081 NA
ATOM     11  C   UNL     1      34.841 -19.188 -21.477  0.00  0.00    +0.100 A 
ATOM     12  C   UNL     1      34.733 -17.789 -21.487  0.00  0.00    +0.054 A 
ATOM     13  C   UNL     1      35.033 -17.457 -22.797  0.00  0.00    +0.179 A 
ATOM     14  C   UNL     1      34.423 -16.766 -20.579  0.00  0.00    +0.007 C 
ATOM     15  C   UNL     1      35.055 -16.157 -23.291  0.00  0.00    +0.070 C 
ATOM     16  C   UNL     1      34.434 -15.443 -21.043  0.00  0.00    +0.030 C 
ATOM     17  C   UNL     1      34.745 -15.146 -22.374  0.00  0.00    +0.143 C 
ENDBRANCH   2  11
BRANCH   1  18
ATOM     18  C   UNL     1      33.812 -23.679 -18.026  0.00  0.00    -0.074 C 
BRANCH  18  19
ATOM     19  C   UNL     1      32.836 -23.091 -17.014  0.00  0.00    +0.025 C 
BRANCH  19  20
ATOM     20  C   UNL     1      33.164 -23.536 -15.595  0.00  0.00    +0.203 C 
BRANCH  20  21
ATOM     21  O   UNL     1      34.391 -22.940 -15.198  0.00  0.00    -0.472 OA
BRANCH  21  22
ATOM     22  C   UNL     1      35.447 -23.786 -14.978  0.00  0.00    +0.172 C 
ATOM     23  C   UNL     1      36.750 -23.298 -14.993  0.00  0.00    +0.172 C 
ATOM     24  C   UNL     1      35.199 -25.133 -14.741  0.00  0.00    +0.040 C 
ATOM     25  C   UNL     1      37.816 -24.168 -14.768  0.00  0.00    +0.043 C 
ATOM     26  C   UNL     1      36.266 -26.004 -14.516  0.00  0.00    +0.006 C 
ATOM     27  C   UNL     1      37.574 -25.521 -14.530  0.00  0.00    +0.038 C 
BRANCH  27  29
ATOM     28  O   UNL     1      38.542 -27.666 -14.362  0.00  0.00    -0.291 OA
ATOM     29  C   UNL     1      38.686 -26.429 -14.294  0.00  0.00    +0.174 C 
ATOM     30  C   UNL     1      40.068 -25.879 -13.955  0.00  0.00    +0.077 C 
ENDBRANCH  27  29
BRANCH  23  31
ATOM     31  O   UNL     1      36.999 -21.979 -15.224  0.00  0.00    -0.468 OA
ATOM     32  C   UNL     1      37.578 -21.639 -16.482  0.00  0.00    +0.253 C 
ENDBRANCH  23  31
ENDBRANCH  21  22
ENDBRANCH  20  21
ENDBRANCH  19  20
ENDBRANCH  18  19
ENDBRANCH   1  18
TORSDOF 8
ENDMDL
MODEL 6
REMARK VINA RESULT:     -10.7      5.547     12.136
REMARK  Name = 71360
REMARK  8 active torsions:
REMARK  status: ('A' for Active; 'I' for Inactive)
REMARK    1  A    between atoms: N_1  and  C_18
REMARK    2  A    between atoms: C_2  and  C_11
REMARK    3  A    between atoms: C_18  and  C_19
REMARK    4  A    between atoms: C_19  and  C_20
REMARK    5  A    between atoms: C_20  and  O_21
REMARK    6  A    between atoms: O_21  and  C_22
REMARK    7  A    between atoms: C_23  and  O_31
REMARK    8  A    between atoms: C_27  and  C_29
REMARK                            x       y       z     vdW  Elec       q    Type
REMARK                         _______ _______ _______ _____ _____    ______ ____
ROOT
ATOM      1  N   UNL     1      31.505 -10.099 -20.231  0.00  0.00    +0.387 N 
ATOM      2  C   UNL     1      32.273  -7.758 -21.823  0.00  0.00    +0.039 C 
ATOM      3  C   UNL     1      32.010  -7.678 -20.311  0.00  0.00    -0.017 C 
ATOM      4  C   UNL     1      31.507  -8.949 -22.422  0.00  0.00    -0.017 C 
ATOM      5  C   UNL     1      32.293  -9.018 -19.626  0.00  0.00    -0.077 C 
ATOM      6  C   UNL     1      31.809 -10.243 -21.662  0.00  0.00    -0.077 C 
ATOM      7  H   UNL     1      30.518  -9.857 -20.142  0.00  0.00    -0.080 HD
ENDROOT
BRANCH   2  11
ATOM      8  F   UNL     1      33.735  -3.373 -26.708  0.00  0.00    -0.204 F 
ATOM      9  O   UNL     1      30.972  -4.598 -22.966  0.00  0.00    -0.354 OA
ATOM     10  N   UNL     1      30.973  -5.696 -22.114  0.00  0.00    -0.081 NA
ATOM     11  C   UNL     1      31.979  -6.457 -22.536  0.00  0.00    +0.100 A 
ATOM     12  C   UNL     1      32.654  -5.915 -23.640  0.00  0.00    +0.054 A 
ATOM     13  C   UNL     1      31.977  -4.731 -23.875  0.00  0.00    +0.179 A 
ATOM     14  C   UNL     1      33.736  -6.256 -24.464  0.00  0.00    +0.007 C 
ATOM     15  C   UNL     1      32.292  -3.836 -24.892  0.00  0.00    +0.070 C 
ATOM     16  C   UNL     1      34.083  -5.376 -25.500  0.00  0.00    +0.030 C 
ATOM     17  C   UNL     1      33.373  -4.189 -25.708  0.00  0.00    +0.143 C 
ENDBRANCH   2  11
BRANCH   1  18
ATOM     18  C   UNL     1      31.743 -11.361 -19.529  0.00  0.00    -0.074 C 
BRANCH  18  19
ATOM     19  C   UNL     1      31.534 -12.539 -20.473  0.00  0.00    +0.025 C 
BRANCH  19  20
ATOM     20  C   UNL     1      32.609 -13.601 -20.289  0.00  0.00    +0.203 C 
BRANCH  20  21
ATOM     21  O   UNL     1      33.378 -13.688 -21.480  0.00  0.00    -0.472 OA
BRANCH  21  22
ATOM     22  C   UNL     1      33.983 -14.891 -21.740  0.00  0.00    +0.172 C 
ATOM     23  C   UNL     1      34.359 -15.218 -23.038  0.00  0.00    +0.172 C 
ATOM     24  C   UNL     1      34.212 -15.775 -20.692  0.00  0.00    +0.040 C 
ATOM     25  C   UNL     1      34.974 -16.445 -23.291  0.00  0.00    +0.043 C 
ATOM     26  C   UNL     1      34.826 -17.002 -20.944  0.00  0.00    +0.006 C 
ATOM     27  C   UNL     1      35.206 -17.337 -22.243  0.00  0.00    +0.038 C 
BRANCH  27  29
ATOM     28  O   UNL     1      37.044 -18.817 -22.214  0.00  0.00    -0.291 OA
ATOM     29  C   UNL     1      35.848 -18.616 -22.506  0.00  0.00    +0.174 C 
ATOM     30  C   UNL     1      35.061 -19.752 -23.152  0.00  0.00    +0.077 C 
ENDBRANCH  27  29
BRANCH  23  31
ATOM     31  O   UNL     1      34.138 -14.355 -24.069  0.00  0.00    -0.468 OA
ATOM     32  C   UNL     1      33.095 -14.690 -24.982  0.00  0.00    +0.253 C 
ENDBRANCH  23  31
ENDBRANCH  21  22
ENDBRANCH  20  21
ENDBRANCH  19  20
ENDBRANCH  18  19
ENDBRANCH   1  18
TORSDOF 8
ENDMDL
MODEL 7
REMARK VINA RESULT:     -10.7      3.332     10.275
REMARK  Name = 71360
REMARK  8 active torsions:
REMARK  status: ('A' for Active; 'I' for Inactive)
REMARK    1  A    between atoms: N_1  and  C_18
REMARK    2  A    between atoms: C_2  and  C_11
REMARK    3  A    between atoms: C_18  and  C_19
REMARK    4  A    between atoms: C_19  and  C_20
REMARK    5  A    between atoms: C_20  and  O_21
REMARK    6  A    between atoms: O_21  and  C_22
REMARK    7  A    between atoms: C_23  and  O_31
REMARK    8  A    between atoms: C_27  and  C_29
REMARK                            x       y       z     vdW  Elec       q    Type
REMARK                         _______ _______ _______ _____ _____    ______ ____
ROOT
ATOM      1  N   UNL     1      35.717 -17.528 -22.515  0.00  0.00    +0.387 N 
ATOM      2  C   UNL     1      33.819 -15.293 -22.607  0.00  0.00    +0.039 C 
ATOM      3  C   UNL     1      34.590 -15.773 -23.847  0.00  0.00    -0.017 C 
ATOM      4  C   UNL     1      34.597 -15.664 -21.334  0.00  0.00    -0.017 C 
ATOM      5  C   UNL     1      34.949 -17.257 -23.738  0.00  0.00    -0.077 C 
ATOM      6  C   UNL     1      34.955 -17.151 -21.315  0.00  0.00    -0.077 C 
ATOM      7  H   UNL     1      36.563 -16.959 -22.541  0.00  0.00    -0.080 HD
ENDROOT
BRANCH   2  11
ATOM      8  F   UNL     1      30.975  -9.890 -19.788  0.00  0.00    -0.204 F 
ATOM      9  O   UNL     1      33.369 -11.827 -23.483  0.00  0.00    -0.354 OA
ATOM     10  N   UNL     1      33.832 -13.112 -23.735  0.00  0.00    -0.081 NA
ATOM     11  C   UNL     1      33.469 -13.823 -22.671  0.00  0.00    +0.100 A 
ATOM     12  C   UNL     1      32.782 -13.065 -21.711  0.00  0.00    +0.054 A 
ATOM     13  C   UNL     1      32.742 -11.801 -22.275  0.00  0.00    +0.179 A 
ATOM     14  C   UNL     1      32.191 -13.270 -20.456  0.00  0.00    +0.007 C 
ATOM     15  C   UNL     1      32.150 -10.694 -21.676  0.00  0.00    +0.070 C 
ATOM     16  C   UNL     1      31.583 -12.175 -19.823  0.00  0.00    +0.030 C 
ATOM     17  C   UNL     1      31.564 -10.912 -20.424  0.00  0.00    +0.143 C 
ENDBRANCH   2  11
BRANCH   1  18
ATOM     18  C   UNL     1      36.100 -18.939 -22.454  0.00  0.00    -0.074 C 
BRANCH  18  19
ATOM     19  C   UNL     1      36.249 -19.384 -21.004  0.00  0.00    +0.025 C 
BRANCH  19  20
ATOM     20  C   UNL     1      35.242 -20.468 -20.646  0.00  0.00    +0.203 C 
BRANCH  20  21
ATOM     21  O   UNL     1      35.902 -21.481 -19.899  0.00  0.00    -0.472 OA
BRANCH  21  22
ATOM     22  C   UNL     1      35.200 -22.046 -18.867  0.00  0.00    +0.172 C 
ATOM     23  C   UNL     1      35.853 -22.410 -17.694  0.00  0.00    +0.172 C 
ATOM     24  C   UNL     1      33.832 -22.250 -19.008  0.00  0.00    +0.040 C 
ATOM     25  C   UNL     1      35.128 -22.985 -16.649  0.00  0.00    +0.043 C 
ATOM     26  C   UNL     1      33.107 -22.824 -17.963  0.00  0.00    +0.006 C 
ATOM     27  C   UNL     1      33.755 -23.192 -16.784  0.00  0.00    +0.038 C 
BRANCH  27  29
ATOM     28  O   UNL     1      33.564 -24.427 -14.783  0.00  0.00    -0.291 OA
ATOM     29  C   UNL     1      32.999 -23.790 -15.695  0.00  0.00    +0.174 C 
ATOM     30  C   UNL     1      31.482 -23.648 -15.645  0.00  0.00    +0.077 C 
ENDBRANCH  27  29
BRANCH  23  31
ATOM     31  O   UNL     1      37.193 -22.213 -17.549  0.00  0.00    -0.468 OA
ATOM     32  C   UNL     1      37.604 -21.198 -16.635  0.00  0.00    +0.253 C 
ENDBRANCH  23  31
ENDBRANCH  21  22
ENDBRANCH  20  21
ENDBRANCH  19  20
ENDBRANCH  18  19
ENDBRANCH   1  18
TORSDOF 8
ENDMDL
MODEL 8
REMARK VINA RESULT:     -10.7      4.736     12.009
REMARK  Name = 71360
REMARK  8 active torsions:
REMARK  status: ('A' for Active; 'I' for Inactive)
REMARK    1  A    between atoms: N_1  and  C_18
REMARK    2  A    between atoms: C_2  and  C_11
REMARK    3  A    between atoms: C_18  and  C_19
REMARK    4  A    between atoms: C_19  and  C_20
REMARK    5  A    between atoms: C_20  and  O_21
REMARK    6  A    between atoms: O_21  and  C_22
REMARK    7  A    between atoms: C_23  and  O_31
REMARK    8  A    between atoms: C_27  and  C_29
REMARK                            x       y       z     vdW  Elec       q    Type
REMARK                         _______ _______ _______ _____ _____    ______ ____
ROOT
ATOM      1  N   UNL     1      35.685 -21.163 -20.215  0.00  0.00    +0.387 N 
ATOM      2  C   UNL     1      35.171 -18.464 -21.246  0.00  0.00    +0.039 C 
ATOM      3  C   UNL     1      34.112 -19.577 -21.282  0.00  0.00    -0.017 C 
ATOM      4  C   UNL     1      36.578 -19.085 -21.219  0.00  0.00    -0.017 C 
ATOM      5  C   UNL     1      34.332 -20.591 -20.156  0.00  0.00    -0.077 C 
ATOM      6  C   UNL     1      36.710 -20.115 -20.096  0.00  0.00    -0.077 C 
ATOM      7  H   UNL     1      35.798 -21.611 -21.124  0.00  0.00    -0.080 HD
ENDROOT
BRANCH   2  11
ATOM      8  F   UNL     1      33.772 -12.188 -23.215  0.00  0.00    -0.204 F 
ATOM      9  O   UNL     1      34.949 -16.703 -24.382  0.00  0.00    -0.354 OA
ATOM     10  N   UNL     1      35.177 -17.843 -23.621  0.00  0.00    -0.081 NA
ATOM     11  C   UNL     1      34.998 -17.457 -22.361  0.00  0.00    +0.100 A 
ATOM     12  C   UNL     1      34.661 -16.101 -22.244  0.00  0.00    +0.054 A 
ATOM     13  C   UNL     1      34.641 -15.664 -23.557  0.00  0.00    +0.179 A 
ATOM     14  C   UNL     1      34.370 -15.189 -21.218  0.00  0.00    +0.007 C 
ATOM     15  C   UNL     1      34.350 -14.361 -23.946  0.00  0.00    +0.070 C 
ATOM     16  C   UNL     1      34.072 -13.865 -21.575  0.00  0.00    +0.030 C 
ATOM     17  C   UNL     1      34.062 -13.461 -22.914  0.00  0.00    +0.143 C 
ENDBRANCH   2  11
BRANCH   1  18
ATOM     18  C   UNL     1      35.860 -22.170 -19.168  0.00  0.00    -0.074 C 
BRANCH  18  19
ATOM     19  C   UNL     1      36.957 -21.742 -18.201  0.00  0.00    +0.025 C 
BRANCH  19  20
ATOM     20  C   UNL     1      36.605 -22.099 -16.763  0.00  0.00    +0.203 C 
BRANCH  20  21
ATOM     21  O   UNL     1      37.617 -22.948 -16.239  0.00  0.00    -0.472 OA
BRANCH  21  22
ATOM     22  C   UNL     1      37.337 -23.590 -15.061  0.00  0.00    +0.172 C 
ATOM     23  C   UNL     1      38.288 -24.416 -14.471  0.00  0.00    +0.172 C 
ATOM     24  C   UNL     1      36.093 -23.406 -14.467  0.00  0.00    +0.040 C 
ATOM     25  C   UNL     1      37.991 -25.065 -13.272  0.00  0.00    +0.043 C 
ATOM     26  C   UNL     1      35.796 -24.055 -13.269  0.00  0.00    +0.006 C 
ATOM     27  C   UNL     1      36.745 -24.885 -12.672  0.00  0.00    +0.038 C 
BRANCH  27  29
ATOM     28  O   UNL     1      36.813 -26.730 -11.203  0.00  0.00    -0.291 OA
ATOM     29  C   UNL     1      36.436 -25.561 -11.421  0.00  0.00    +0.174 C 
ATOM     30  C   UNL     1      35.635 -24.846 -10.339  0.00  0.00    +0.077 C 
ENDBRANCH  27  29
BRANCH  23  31
ATOM     31  O   UNL     1      39.508 -24.600 -15.048  0.00  0.00    -0.468 OA
ATOM     32  C   UNL     1      40.287 -25.699 -14.580  0.00  0.00    +0.253 C 
ENDBRANCH  23  31
ENDBRANCH  21  22
ENDBRANCH  20  21
ENDBRANCH  19  20
ENDBRANCH  18  19
ENDBRANCH   1  18
TORSDOF 8
ENDMDL
MODEL 9
REMARK VINA RESULT:     -10.6      3.433      6.434
REMARK  Name = 71360
REMARK  8 active torsions:
REMARK  status: ('A' for Active; 'I' for Inactive)
REMARK    1  A    between atoms: N_1  and  C_18
REMARK    2  A    between atoms: C_2  and  C_11
REMARK    3  A    between atoms: C_18  and  C_19
REMARK    4  A    between atoms: C_19  and  C_20
REMARK    5  A    between atoms: C_20  and  O_21
REMARK    6  A    between atoms: O_21  and  C_22
REMARK    7  A    between atoms: C_23  and  O_31
REMARK    8  A    between atoms: C_27  and  C_29
REMARK                            x       y       z     vdW  Elec       q    Type
REMARK                         _______ _______ _______ _____ _____    ______ ____
ROOT
ATOM      1  N   UNL     1      35.877 -22.447 -18.918  0.00  0.00    +0.387 N 
ATOM      2  C   UNL     1      34.190 -22.894 -16.560  0.00  0.00    +0.039 C 
ATOM      3  C   UNL     1      35.725 -22.925 -16.494  0.00  0.00    -0.017 C 
ATOM      4  C   UNL     1      33.722 -23.231 -17.985  0.00  0.00    -0.017 C 
ATOM      5  C   UNL     1      36.346 -22.047 -17.585  0.00  0.00    -0.077 C 
ATOM      6  C   UNL     1      34.414 -22.341 -19.021  0.00  0.00    -0.077 C 
ATOM      7  H   UNL     1      36.132 -23.424 -19.062  0.00  0.00    -0.080 HD
ENDROOT
BRANCH   2  11
ATOM      8  F   UNL     1      28.630 -25.477 -13.795  0.00  0.00    -0.204 F 
ATOM      9  O   UNL     1      33.427 -25.118 -13.830  0.00  0.00    -0.354 OA
ATOM     10  N   UNL     1      34.312 -24.416 -14.637  0.00  0.00    -0.081 NA
ATOM     11  C   UNL     1      33.544 -23.772 -15.511  0.00  0.00    +0.100 A 
ATOM     12  C   UNL     1      32.175 -24.015 -15.324  0.00  0.00    +0.054 A 
ATOM     13  C   UNL     1      32.151 -24.877 -14.242  0.00  0.00    +0.179 A 
ATOM     14  C   UNL     1      30.963 -23.628 -15.914  0.00  0.00    +0.007 C 
ATOM     15  C   UNL     1      30.991 -25.403 -13.683  0.00  0.00    +0.070 C 
ATOM     16  C   UNL     1      29.772 -24.139 -15.376  0.00  0.00    +0.030 C 
ATOM     17  C   UNL     1      29.788 -25.010 -14.281  0.00  0.00    +0.143 C 
ENDBRANCH   2  11
BRANCH   1  18
ATOM     18  C   UNL     1      36.521 -21.636 -19.952  0.00  0.00    -0.074 C 
BRANCH  18  19
ATOM     19  C   UNL     1      35.619 -20.475 -20.353  0.00  0.00    +0.025 C 
BRANCH  19  20
ATOM     20  C   UNL     1      36.422 -19.309 -20.911  0.00  0.00    +0.203 C 
BRANCH  20  21
ATOM     21  O   UNL     1      35.704 -18.105 -20.682  0.00  0.00    -0.472 OA
BRANCH  21  22
ATOM     22  C   UNL     1      35.223 -17.452 -21.787  0.00  0.00    +0.172 C 
ATOM     23  C   UNL     1      34.651 -16.190 -21.660  0.00  0.00    +0.172 C 
ATOM     24  C   UNL     1      35.311 -18.067 -23.031  0.00  0.00    +0.040 C 
ATOM     25  C   UNL     1      34.164 -15.535 -22.792  0.00  0.00    +0.043 C 
ATOM     26  C   UNL     1      34.824 -17.413 -24.163  0.00  0.00    +0.006 C 
ATOM     27  C   UNL     1      34.250 -16.147 -24.043  0.00  0.00    +0.038 C 
BRANCH  27  29
ATOM     28  O   UNL     1      33.553 -16.073 -26.296  0.00  0.00    -0.291 OA
ATOM     29  C   UNL     1      33.743 -15.464 -25.223  0.00  0.00    +0.174 C 
ATOM     30  C   UNL     1      33.428 -13.974 -25.172  0.00  0.00    +0.077 C 
ENDBRANCH  27  29
BRANCH  23  31
ATOM     31  O   UNL     1      34.562 -15.582 -20.445  0.00  0.00    -0.468 OA
ATOM     32  C   UNL     1      33.822 -14.365 -20.382  0.00  0.00    +0.253 C 
ENDBRANCH  23  31
ENDBRANCH  21  22
ENDBRANCH  20  21
ENDBRANCH  19  20
ENDBRANCH  18  19
ENDBRANCH   1  18
TORSDOF 8
ENDMDL
