MODEL 1
REMARK VINA RESULT:     -11.5      0.000      0.000
REMARK  Name = 49831257
REMARK  4 active torsions:
REMARK  status: ('A' for Active; 'I' for Inactive)
REMARK    1  A    between atoms: C_1  and  C_23
REMARK    2  A    between atoms: C_4  and  C_14
REMARK    3  A    between atoms: C_12  and  C_20
REMARK    4  A    between atoms: C_23  and  N_27
REMARK                            x       y       z     vdW  Elec       q    Type
REMARK                         _______ _______ _______ _____ _____    ______ ____
ROOT
ATOM      1  C   UNL     1      35.974 -19.248 -21.334  0.00  0.00    -0.043 C 
ATOM      2  C   UNL     1      35.688 -18.006 -20.768  0.00  0.00    -0.006 C 
ATOM      3  C   UNL     1      35.708 -19.476 -22.684  0.00  0.00    -0.006 C 
ATOM      4  C   UNL     1      34.870 -17.221 -22.901  0.00  0.00    +0.016 C 
ATOM      5  C   UNL     1      35.136 -16.993 -21.551  0.00  0.00    +0.001 C 
ATOM      6  C   UNL     1      35.156 -18.464 -23.468  0.00  0.00    +0.001 C 
ENDROOT
BRANCH   4  14
ATOM      7  O   UNL     1      31.098 -11.097 -21.677  0.00  0.00    -0.274 OA
ATOM      8  N   UNL     1      32.196 -12.988 -20.793  0.00  0.00    -0.217 N 
ATOM      9  N   UNL     1      33.589 -15.067 -23.157  0.00  0.00    -0.152 N 
ATOM     10  N   UNL     1      33.354 -14.795 -21.844  0.00  0.00    -0.092 NA
ATOM     11  N   UNL     1      32.432 -13.163 -23.148  0.00  0.00    -0.319 NA
ATOM     12  C   UNL     1      31.465 -11.788 -20.736  0.00  0.00    +0.234 C 
ATOM     13  C   UNL     1      32.663 -13.658 -21.904  0.00  0.00    +0.167 C 
ATOM     14  C   UNL     1      34.285 -16.152 -23.728  0.00  0.00    +0.077 C 
ATOM     15  C   UNL     1      33.015 -14.046 -23.928  0.00  0.00    +0.219 C 
ATOM     16  C   UNL     1      34.400 -16.203 -25.073  0.00  0.00    +0.017 C 
ATOM     17  C   UNL     1      33.149 -14.123 -25.340  0.00  0.00    +0.051 C 
ATOM     18  C   UNL     1      33.813 -15.155 -25.889  0.00  0.00    +0.005 C 
ATOM     19  H   UNL     1      32.402 -13.406 -19.925  0.00  0.00    +0.167 HD
BRANCH  12  20
ATOM     20  C   UNL     1      31.118 -11.342 -19.350  0.00  0.00    +0.077 C 
ATOM     21  C   UNL     1      31.057  -9.873 -19.051  0.00  0.00    +0.010 C 
ATOM     22  C   UNL     1      32.179 -10.704 -18.500  0.00  0.00    +0.010 C 
ENDBRANCH  12  20
ENDBRANCH   4  14
BRANCH   1  23
ATOM     23  C   UNL     1      36.572 -20.341 -20.489  0.00  0.00    -0.050 C 
BRANCH  23  27
ATOM     24  S   UNL     1      33.663 -22.973 -18.253  0.00  0.00    -0.014 S 
ATOM     25  O   UNL     1      32.793 -23.023 -17.095  0.00  0.00    -0.173 OA
ATOM     26  O   UNL     1      33.773 -24.102 -19.155  0.00  0.00    -0.173 OA
ATOM     27  N   UNL     1      35.608 -20.868 -19.518  0.00  0.00    +0.392 N 
ATOM     28  C   UNL     1      36.167 -22.057 -18.852  0.00  0.00    -0.051 C 
ATOM     29  C   UNL     1      34.333 -21.166 -20.192  0.00  0.00    -0.051 C 
ATOM     30  C   UNL     1      33.232 -21.535 -19.204  0.00  0.00    +0.128 C 
ATOM     31  C   UNL     1      35.293 -22.536 -17.698  0.00  0.00    +0.128 C 
ATOM     32  H   UNL     1      35.424 -20.168 -18.800  0.00  0.00    -0.079 HD
ENDBRANCH  23  27
ENDBRANCH   1  23
TORSDOF 4
ENDMDL
MODEL 2
REMARK VINA RESULT:     -11.3      3.966      9.797
REMARK  Name = 49831257
REMARK  4 active torsions:
REMARK  status: ('A' for Active; 'I' for Inactive)
REMARK    1  A    between atoms: C_1  and  C_23
REMARK    2  A    between atoms: C_4  and  C_14
REMARK    3  A    between atoms: C_12  and  C_20
REMARK    4  A    between atoms: C_23  and  N_27
REMARK                            x       y       z     vdW  Elec       q    Type
REMARK                         _______ _______ _______ _____ _____    ______ ____
ROOT
ATOM      1  C   UNL     1      34.989 -20.210 -21.302  0.00  0.00    -0.043 C 
ATOM      2  C   UNL     1      33.794 -20.606 -20.701  0.00  0.00    -0.006 C 
ATOM      3  C   UNL     1      36.209 -20.537 -20.711  0.00  0.00    -0.006 C 
ATOM      4  C   UNL     1      35.040 -21.657 -18.918  0.00  0.00    +0.016 C 
ATOM      5  C   UNL     1      33.820 -21.329 -19.508  0.00  0.00    +0.001 C 
ATOM      6  C   UNL     1      36.236 -21.260 -19.519  0.00  0.00    +0.001 C 
ENDROOT
BRANCH   4  14
ATOM      7  O   UNL     1      30.089 -24.697 -14.505  0.00  0.00    -0.274 OA
ATOM      8  N   UNL     1      30.546 -23.490 -16.479  0.00  0.00    -0.217 N 
ATOM      9  N   UNL     1      33.886 -22.878 -17.041  0.00  0.00    -0.152 N 
ATOM     10  N   UNL     1      32.596 -22.744 -17.453  0.00  0.00    -0.092 NA
ATOM     11  N   UNL     1      32.661 -23.900 -15.485  0.00  0.00    -0.319 NA
ATOM     12  C   UNL     1      29.730 -24.124 -15.525  0.00  0.00    +0.234 C 
ATOM     13  C   UNL     1      31.919 -23.366 -16.490  0.00  0.00    +0.167 C 
ATOM     14  C   UNL     1      35.068 -22.419 -17.657  0.00  0.00    +0.077 C 
ATOM     15  C   UNL     1      33.891 -23.593 -15.835  0.00  0.00    +0.219 C 
ATOM     16  C   UNL     1      36.249 -22.684 -17.058  0.00  0.00    +0.017 C 
ATOM     17  C   UNL     1      35.146 -23.860 -15.224  0.00  0.00    +0.051 C 
ATOM     18  C   UNL     1      36.276 -23.425 -15.809  0.00  0.00    +0.005 C 
ATOM     19  H   UNL     1      30.074 -23.079 -17.240  0.00  0.00    +0.167 HD
BRANCH  12  20
ATOM     20  C   UNL     1      28.266 -24.067 -15.828  0.00  0.00    +0.077 C 
ATOM     21  C   UNL     1      27.776 -23.115 -16.880  0.00  0.00    +0.010 C 
ATOM     22  C   UNL     1      27.484 -22.849 -15.432  0.00  0.00    +0.010 C 
ENDBRANCH  12  20
ENDBRANCH   4  14
BRANCH   1  23
ATOM     23  C   UNL     1      34.961 -19.430 -22.590  0.00  0.00    -0.050 C 
BRANCH  23  27
ATOM     24  S   UNL     1      34.322 -14.986 -22.112  0.00  0.00    -0.014 S 
ATOM     25  O   UNL     1      34.999 -13.738 -21.823  0.00  0.00    -0.173 OA
ATOM     26  O   UNL     1      32.896 -15.021 -22.375  0.00  0.00    -0.173 OA
ATOM     27  N   UNL     1      35.157 -17.995 -22.363  0.00  0.00    +0.392 N 
ATOM     28  C   UNL     1      34.368 -17.562 -21.197  0.00  0.00    -0.051 C 
ATOM     29  C   UNL     1      34.798 -17.244 -23.578  0.00  0.00    -0.051 C 
ATOM     30  C   UNL     1      35.160 -15.767 -23.470  0.00  0.00    +0.128 C 
ATOM     31  C   UNL     1      34.677 -16.124 -20.794  0.00  0.00    +0.128 C 
ATOM     32  H   UNL     1      36.138 -17.808 -22.160  0.00  0.00    -0.079 HD
ENDBRANCH  23  27
ENDBRANCH   1  23
TORSDOF 4
ENDMDL
MODEL 3
REMARK VINA RESULT:     -11.1      4.246     11.118
REMARK  Name = 49831257
REMARK  4 active torsions:
REMARK  status: ('A' for Active; 'I' for Inactive)
REMARK    1  A    between atoms: C_1  and  C_23
REMARK    2  A    between atoms: C_4  and  C_14
REMARK    3  A    between atoms: C_12  and  C_20
REMARK    4  A    between atoms: C_23  and  N_27
REMARK                            x       y       z     vdW  Elec       q    Type
REMARK                         _______ _______ _______ _____ _____    ______ ____
ROOT
ATOM      1  C   UNL     1      35.227 -20.587 -20.656  0.00  0.00    -0.043 C 
ATOM      2  C   UNL     1      33.854 -20.622 -20.412  0.00  0.00    -0.006 C 
ATOM      3  C   UNL     1      36.103 -21.275 -19.815  0.00  0.00    -0.006 C 
ATOM      4  C   UNL     1      34.232 -22.032 -18.487  0.00  0.00    +0.016 C 
ATOM      5  C   UNL     1      33.357 -21.344 -19.327  0.00  0.00    +0.001 C 
ATOM      6  C   UNL     1      35.606 -21.997 -18.730  0.00  0.00    +0.001 C 
ENDROOT
BRANCH   4  14
ATOM      7  O   UNL     1      37.087 -25.784 -12.919  0.00  0.00    -0.274 OA
ATOM      8  N   UNL     1      37.442 -24.474 -14.848  0.00  0.00    -0.217 N 
ATOM      9  N   UNL     1      34.562 -23.425 -16.413  0.00  0.00    -0.152 N 
ATOM     10  N   UNL     1      35.922 -23.441 -16.375  0.00  0.00    -0.092 NA
ATOM     11  N   UNL     1      35.086 -24.640 -14.621  0.00  0.00    -0.319 NA
ATOM     12  C   UNL     1      37.823 -25.233 -13.726  0.00  0.00    +0.234 C 
ATOM     13  C   UNL     1      36.172 -24.178 -15.294  0.00  0.00    +0.167 C 
ATOM     14  C   UNL     1      33.707 -22.794 -17.340  0.00  0.00    +0.077 C 
ATOM     15  C   UNL     1      34.082 -24.164 -15.324  0.00  0.00    +0.219 C 
ATOM     16  C   UNL     1      32.373 -22.910 -17.165  0.00  0.00    +0.017 C 
ATOM     17  C   UNL     1      32.674 -24.272 -15.160  0.00  0.00    +0.051 C 
ATOM     18  C   UNL     1      31.855 -23.671 -16.041  0.00  0.00    +0.005 C 
ATOM     19  H   UNL     1      38.181 -24.105 -15.385  0.00  0.00    +0.167 HD
BRANCH  12  20
ATOM     20  C   UNL     1      39.302 -25.354 -13.536  0.00  0.00    +0.077 C 
ATOM     21  C   UNL     1      40.194 -25.353 -14.743  0.00  0.00    +0.010 C 
ATOM     22  C   UNL     1      39.993 -26.618 -13.960  0.00  0.00    +0.010 C 
ENDBRANCH  12  20
ENDBRANCH   4  14
BRANCH   1  23
ATOM     23  C   UNL     1      35.764 -19.809 -21.828  0.00  0.00    -0.050 C 
BRANCH  23  27
ATOM     24  S   UNL     1      34.358 -15.682 -23.002  0.00  0.00    -0.014 S 
ATOM     25  O   UNL     1      33.179 -14.855 -23.152  0.00  0.00    -0.173 OA
ATOM     26  O   UNL     1      35.680 -15.161 -23.291  0.00  0.00    -0.173 OA
ATOM     27  N   UNL     1      34.942 -18.632 -22.123  0.00  0.00    +0.392 N 
ATOM     28  C   UNL     1      35.092 -18.260 -23.540  0.00  0.00    -0.051 C 
ATOM     29  C   UNL     1      35.311 -17.527 -21.223  0.00  0.00    -0.051 C 
ATOM     30  C   UNL     1      34.364 -16.339 -21.351  0.00  0.00    +0.128 C 
ATOM     31  C   UNL     1      34.118 -17.163 -23.955  0.00  0.00    +0.128 C 
ATOM     32  H   UNL     1      33.958 -18.849 -21.962  0.00  0.00    -0.079 HD
ENDBRANCH  23  27
ENDBRANCH   1  23
TORSDOF 4
ENDMDL
MODEL 4
REMARK VINA RESULT:      -9.9      6.450     12.686
REMARK  Name = 49831257
REMARK  4 active torsions:
REMARK  status: ('A' for Active; 'I' for Inactive)
REMARK    1  A    between atoms: C_1  and  C_23
REMARK    2  A    between atoms: C_4  and  C_14
REMARK    3  A    between atoms: C_12  and  C_20
REMARK    4  A    between atoms: C_23  and  N_27
REMARK                            x       y       z     vdW  Elec       q    Type
REMARK                         _______ _______ _______ _____ _____    ______ ____
ROOT
ATOM      1  C   UNL     1      31.800  -5.933 -22.619  0.00  0.00    -0.043 C 
ATOM      2  C   UNL     1      31.192  -7.045 -23.201  0.00  0.00    -0.006 C 
ATOM      3  C   UNL     1      32.393  -6.041 -21.361  0.00  0.00    -0.006 C 
ATOM      4  C   UNL     1      31.770  -8.373 -21.268  0.00  0.00    +0.016 C 
ATOM      5  C   UNL     1      31.176  -8.265 -22.526  0.00  0.00    +0.001 C 
ATOM      6  C   UNL     1      32.378  -7.261 -20.685  0.00  0.00    +0.001 C 
ENDROOT
BRANCH   4  14
ATOM      7  O   UNL     1      33.389 -15.302 -22.882  0.00  0.00    -0.274 OA
ATOM      8  N   UNL     1      33.269 -13.053 -23.583  0.00  0.00    -0.217 N 
ATOM      9  N   UNL     1      32.139 -10.864 -21.179  0.00  0.00    -0.152 N 
ATOM     10  N   UNL     1      32.590 -11.063 -22.448  0.00  0.00    -0.092 NA
ATOM     11  N   UNL     1      32.527 -13.053 -21.329  0.00  0.00    -0.319 NA
ATOM     12  C   UNL     1      33.530 -14.428 -23.726  0.00  0.00    +0.234 C 
ATOM     13  C   UNL     1      32.799 -12.378 -22.476  0.00  0.00    +0.167 C 
ATOM     14  C   UNL     1      31.752  -9.661 -20.553  0.00  0.00    +0.077 C 
ATOM     15  C   UNL     1      32.117 -12.101 -20.520  0.00  0.00    +0.219 C 
ATOM     16  C   UNL     1      31.345  -9.710 -19.266  0.00  0.00    +0.017 C 
ATOM     17  C   UNL     1      31.685 -12.127 -19.166  0.00  0.00    +0.051 C 
ATOM     18  C   UNL     1      31.316 -10.982 -18.565  0.00  0.00    +0.005 C 
ATOM     19  H   UNL     1      33.444 -12.499 -24.379  0.00  0.00    +0.167 HD
BRANCH  12  20
ATOM     20  C   UNL     1      34.036 -14.822 -25.078  0.00  0.00    +0.077 C 
ATOM     21  C   UNL     1      33.408 -14.213 -26.298  0.00  0.00    +0.010 C 
ATOM     22  C   UNL     1      33.164 -15.658 -25.970  0.00  0.00    +0.010 C 
ENDBRANCH  12  20
ENDBRANCH   4  14
BRANCH   1  23
ATOM     23  C   UNL     1      31.819  -4.616 -23.349  0.00  0.00    -0.050 C 
BRANCH  23  27
ATOM     24  S   UNL     1      34.215  -4.196 -27.153  0.00  0.00    -0.014 S 
ATOM     25  O   UNL     1      34.324  -4.671 -28.518  0.00  0.00    -0.173 OA
ATOM     26  O   UNL     1      35.139  -3.209 -26.628  0.00  0.00    -0.173 OA
ATOM     27  N   UNL     1      32.328  -4.759 -24.717  0.00  0.00    +0.392 N 
ATOM     28  C   UNL     1      33.714  -5.258 -24.685  0.00  0.00    -0.051 C 
ATOM     29  C   UNL     1      32.225  -3.472 -25.424  0.00  0.00    -0.051 C 
ATOM     30  C   UNL     1      32.560  -3.601 -26.906  0.00  0.00    +0.128 C 
ATOM     31  C   UNL     1      34.232  -5.608 -26.075  0.00  0.00    +0.128 C 
ATOM     32  H   UNL     1      31.765  -5.440 -25.226  0.00  0.00    -0.079 HD
ENDBRANCH  23  27
ENDBRANCH   1  23
TORSDOF 4
ENDMDL
MODEL 5
REMARK VINA RESULT:      -9.9      2.236      3.144
REMARK  Name = 49831257
REMARK  4 active torsions:
REMARK  status: ('A' for Active; 'I' for Inactive)
REMARK    1  A    between atoms: C_1  and  C_23
REMARK    2  A    between atoms: C_4  and  C_14
REMARK    3  A    between atoms: C_12  and  C_20
REMARK    4  A    between atoms: C_23  and  N_27
REMARK                            x       y       z     vdW  Elec       q    Type
REMARK                         _______ _______ _______ _____ _____    ______ ____
ROOT
ATOM      1  C   UNL     1      34.401 -21.477 -19.461  0.00  0.00    -0.043 C 
ATOM      2  C   UNL     1      33.251 -20.845 -19.931  0.00  0.00    -0.006 C 
ATOM      3  C   UNL     1      35.658 -21.033 -19.870  0.00  0.00    -0.006 C 
ATOM      4  C   UNL     1      34.614 -19.324 -21.222  0.00  0.00    +0.016 C 
ATOM      5  C   UNL     1      33.357 -19.769 -20.812  0.00  0.00    +0.001 C 
ATOM      6  C   UNL     1      35.766 -19.957 -20.751  0.00  0.00    +0.001 C 
ENDROOT
BRANCH   4  14
ATOM      7  O   UNL     1      32.554 -12.326 -21.249  0.00  0.00    -0.274 OA
ATOM      8  N   UNL     1      32.638 -14.388 -20.109  0.00  0.00    -0.217 N 
ATOM      9  N   UNL     1      34.199 -16.919 -21.843  0.00  0.00    -0.152 N 
ATOM     10  N   UNL     1      33.556 -16.509 -20.716  0.00  0.00    -0.092 NA
ATOM     11  N   UNL     1      33.717 -14.771 -22.188  0.00  0.00    -0.319 NA
ATOM     12  C   UNL     1      32.313 -13.030 -20.279  0.00  0.00    +0.234 C 
ATOM     13  C   UNL     1      33.293 -15.231 -20.982  0.00  0.00    +0.167 C 
ATOM     14  C   UNL     1      34.727 -18.189 -22.153  0.00  0.00    +0.077 C 
ATOM     15  C   UNL     1      34.285 -15.829 -22.722  0.00  0.00    +0.219 C 
ATOM     16  C   UNL     1      35.340 -18.355 -23.345  0.00  0.00    +0.017 C 
ATOM     17  C   UNL     1      34.935 -16.030 -23.970  0.00  0.00    +0.051 C 
ATOM     18  C   UNL     1      35.441 -17.239 -24.268  0.00  0.00    +0.005 C 
ATOM     19  H   UNL     1      32.360 -14.791 -19.254  0.00  0.00    +0.167 HD
BRANCH  12  20
ATOM     20  C   UNL     1      31.591 -12.419 -19.119  0.00  0.00    +0.077 C 
ATOM     21  C   UNL     1      30.579 -11.341 -19.376  0.00  0.00    +0.010 C 
ATOM     22  C   UNL     1      31.893 -10.999 -18.736  0.00  0.00    +0.010 C 
ENDBRANCH  12  20
ENDBRANCH   4  14
BRANCH   1  23
ATOM     23  C   UNL     1      34.286 -22.638 -18.508  0.00  0.00    -0.050 C 
BRANCH  23  27
ATOM     24  S   UNL     1      36.990 -23.144 -14.927  0.00  0.00    -0.014 S 
ATOM     25  O   UNL     1      37.526 -22.458 -13.769  0.00  0.00    -0.173 OA
ATOM     26  O   UNL     1      37.341 -24.522 -15.210  0.00  0.00    -0.173 OA
ATOM     27  N   UNL     1      35.055 -22.413 -17.280  0.00  0.00    +0.392 N 
ATOM     28  C   UNL     1      36.494 -22.573 -17.554  0.00  0.00    -0.051 C 
ATOM     29  C   UNL     1      34.591 -23.330 -16.226  0.00  0.00    -0.051 C 
ATOM     30  C   UNL     1      35.219 -23.016 -14.872  0.00  0.00    +0.128 C 
ATOM     31  C   UNL     1      37.355 -22.165 -16.365  0.00  0.00    +0.128 C 
ATOM     32  H   UNL     1      34.907 -21.460 -16.950  0.00  0.00    -0.079 HD
ENDBRANCH  23  27
ENDBRANCH   1  23
TORSDOF 4
ENDMDL
MODEL 6
REMARK VINA RESULT:      -9.8      4.027      6.447
REMARK  Name = 49831257
REMARK  4 active torsions:
REMARK  status: ('A' for Active; 'I' for Inactive)
REMARK    1  A    between atoms: C_1  and  C_23
REMARK    2  A    between atoms: C_4  and  C_14
REMARK    3  A    between atoms: C_12  and  C_20
REMARK    4  A    between atoms: C_23  and  N_27
REMARK                            x       y       z     vdW  Elec       q    Type
REMARK                         _______ _______ _______ _____ _____    ______ ____
ROOT
ATOM      1  C   UNL     1      33.639 -14.450 -23.152  0.00  0.00    -0.043 C 
ATOM      2  C   UNL     1      33.783 -13.135 -23.594  0.00  0.00    -0.006 C 
ATOM      3  C   UNL     1      33.022 -14.710 -21.928  0.00  0.00    -0.006 C 
ATOM      4  C   UNL     1      32.695 -12.341 -21.589  0.00  0.00    +0.016 C 
ATOM      5  C   UNL     1      33.312 -12.080 -22.813  0.00  0.00    +0.001 C 
ATOM      6  C   UNL     1      32.550 -13.656 -21.146  0.00  0.00    +0.001 C 
ENDROOT
BRANCH   4  14
ATOM      7  O   UNL     1      32.093  -5.107 -22.330  0.00  0.00    -0.274 OA
ATOM      8  N   UNL     1      32.737  -7.174 -23.266  0.00  0.00    -0.217 N 
ATOM      9  N   UNL     1      32.227  -9.893 -21.218  0.00  0.00    -0.152 N 
ATOM     10  N   UNL     1      32.657  -9.405 -22.413  0.00  0.00    -0.092 NA
ATOM     11  N   UNL     1      31.908  -7.691 -21.104  0.00  0.00    -0.319 NA
ATOM     12  C   UNL     1      32.554  -5.780 -23.242  0.00  0.00    +0.234 C 
ATOM     13  C   UNL     1      32.446  -8.097 -22.284  0.00  0.00    +0.167 C 
ATOM     14  C   UNL     1      32.198 -11.227 -20.763  0.00  0.00    +0.077 C 
ATOM     15  C   UNL     1      31.771  -8.819 -20.442  0.00  0.00    +0.219 C 
ATOM     16  C   UNL     1      31.710 -11.472 -19.527  0.00  0.00    +0.017 C 
ATOM     17  C   UNL     1      31.262  -9.102 -19.146  0.00  0.00    +0.051 C 
ATOM     18  C   UNL     1      31.231 -10.373 -18.708  0.00  0.00    +0.005 C 
ATOM     19  H   UNL     1      33.124  -7.540 -24.095  0.00  0.00    +0.167 HD
BRANCH  12  20
ATOM     20  C   UNL     1      32.983  -5.079 -24.493  0.00  0.00    +0.077 C 
ATOM     21  C   UNL     1      33.006  -5.842 -25.785  0.00  0.00    +0.010 C 
ATOM     22  C   UNL     1      34.295  -5.448 -25.124  0.00  0.00    +0.010 C 
ENDBRANCH  12  20
ENDBRANCH   4  14
BRANCH   1  23
ATOM     23  C   UNL     1      34.146 -15.589 -23.996  0.00  0.00    -0.050 C 
BRANCH  23  27
ATOM     24  S   UNL     1      35.794 -19.244 -21.920  0.00  0.00    -0.014 S 
ATOM     25  O   UNL     1      35.425 -20.385 -21.107  0.00  0.00    -0.173 OA
ATOM     26  O   UNL     1      37.170 -19.025 -22.321  0.00  0.00    -0.173 OA
ATOM     27  N   UNL     1      34.288 -16.823 -23.218  0.00  0.00    +0.392 N 
ATOM     28  C   UNL     1      35.171 -16.586 -22.062  0.00  0.00    -0.051 C 
ATOM     29  C   UNL     1      34.792 -17.903 -24.082  0.00  0.00    -0.051 C 
ATOM     30  C   UNL     1      34.780 -19.256 -23.379  0.00  0.00    +0.128 C 
ATOM     31  C   UNL     1      35.205 -17.776 -21.110  0.00  0.00    +0.128 C 
ATOM     32  H   UNL     1      33.378 -17.111 -22.859  0.00  0.00    -0.079 HD
ENDBRANCH  23  27
ENDBRANCH   1  23
TORSDOF 4
ENDMDL
MODEL 7
REMARK VINA RESULT:      -9.3      4.381     10.418
REMARK  Name = 49831257
REMARK  4 active torsions:
REMARK  status: ('A' for Active; 'I' for Inactive)
REMARK    1  A    between atoms: C_1  and  C_23
REMARK    2  A    between atoms: C_4  and  C_14
REMARK    3  A    between atoms: C_12  and  C_20
REMARK    4  A    between atoms: C_23  and  N_27
REMARK                            x       y       z     vdW  Elec       q    Type
REMARK                         _______ _______ _______ _____ _____    ______ ____
ROOT
ATOM      1  C   UNL     1      32.313 -10.845 -21.548  0.00  0.00    -0.043 C 
ATOM      2  C   UNL     1      33.090 -10.566 -22.673  0.00  0.00    -0.006 C 
ATOM      3  C   UNL     1      31.893 -12.151 -21.298  0.00  0.00    -0.006 C 
ATOM      4  C   UNL     1      33.024 -12.899 -23.297  0.00  0.00    +0.016 C 
ATOM      5  C   UNL     1      33.444 -11.592 -23.548  0.00  0.00    +0.001 C 
ATOM      6  C   UNL     1      32.247 -13.178 -22.172  0.00  0.00    +0.001 C 
ENDROOT
BRANCH   4  14
ATOM      7  O   UNL     1      35.821 -19.608 -22.673  0.00  0.00    -0.274 OA
ATOM      8  N   UNL     1      35.074 -17.639 -21.612  0.00  0.00    -0.217 N 
ATOM      9  N   UNL     1      33.934 -15.202 -23.759  0.00  0.00    -0.152 N 
ATOM     10  N   UNL     1      34.176 -15.602 -22.481  0.00  0.00    -0.092 NA
ATOM     11  N   UNL     1      34.774 -17.258 -23.935  0.00  0.00    -0.319 NA
ATOM     12  C   UNL     1      35.606 -18.939 -21.671  0.00  0.00    +0.234 C 
ATOM     13  C   UNL     1      34.675 -16.825 -22.651  0.00  0.00    +0.167 C 
ATOM     14  C   UNL     1      33.397 -13.983 -24.222  0.00  0.00    +0.077 C 
ATOM     15  C   UNL     1      34.308 -16.240 -24.624  0.00  0.00    +0.219 C 
ATOM     16  C   UNL     1      33.238 -13.816 -25.553  0.00  0.00    +0.017 C 
ATOM     17  C   UNL     1      34.130 -16.041 -26.020  0.00  0.00    +0.051 C 
ATOM     18  C   UNL     1      33.617 -14.881 -26.465  0.00  0.00    +0.005 C 
ATOM     19  H   UNL     1      34.972 -17.259 -20.709  0.00  0.00    +0.167 HD
BRANCH  12  20
ATOM     20  C   UNL     1      35.934 -19.533 -20.337  0.00  0.00    +0.077 C 
ATOM     21  C   UNL     1      36.768 -20.779 -20.279  0.00  0.00    +0.010 C 
ATOM     22  C   UNL     1      35.306 -20.839 -19.945  0.00  0.00    +0.010 C 
ENDBRANCH  12  20
ENDBRANCH   4  14
BRANCH   1  23
ATOM     23  C   UNL     1      31.932  -9.737 -20.602  0.00  0.00    -0.050 C 
BRANCH  23  27
ATOM     24  S   UNL     1      31.185  -5.508 -21.997  0.00  0.00    -0.014 S 
ATOM     25  O   UNL     1      31.753  -4.420 -22.768  0.00  0.00    -0.173 OA
ATOM     26  O   UNL     1      29.893  -5.374 -21.353  0.00  0.00    -0.173 OA
ATOM     27  N   UNL     1      32.056  -8.418 -21.231  0.00  0.00    +0.392 N 
ATOM     28  C   UNL     1      32.058  -7.370 -20.196  0.00  0.00    -0.051 C 
ATOM     29  C   UNL     1      30.968  -8.225 -22.205  0.00  0.00    -0.051 C 
ATOM     30  C   UNL     1      31.151  -6.955 -23.028  0.00  0.00    +0.128 C 
ATOM     31  C   UNL     1      32.375  -5.994 -20.770  0.00  0.00    +0.128 C 
ATOM     32  H   UNL     1      32.940  -8.358 -21.735  0.00  0.00    -0.079 HD
ENDBRANCH  23  27
ENDBRANCH   1  23
TORSDOF 4
ENDMDL
MODEL 8
REMARK VINA RESULT:      -9.2      7.428     11.147
REMARK  Name = 49831257
REMARK  4 active torsions:
REMARK  status: ('A' for Active; 'I' for Inactive)
REMARK    1  A    between atoms: C_1  and  C_23
REMARK    2  A    between atoms: C_4  and  C_14
REMARK    3  A    between atoms: C_12  and  C_20
REMARK    4  A    between atoms: C_23  and  N_27
REMARK                            x       y       z     vdW  Elec       q    Type
REMARK                         _______ _______ _______ _____ _____    ______ ____
ROOT
ATOM      1  C   UNL     1      32.121  -8.946 -21.958  0.00  0.00    -0.043 C 
ATOM      2  C   UNL     1      33.094  -8.009 -21.612  0.00  0.00    -0.006 C 
ATOM      3  C   UNL     1      31.210  -8.662 -22.976  0.00  0.00    -0.006 C 
ATOM      4  C   UNL     1      32.244  -6.503 -23.299  0.00  0.00    +0.016 C 
ATOM      5  C   UNL     1      33.155  -6.787 -22.281  0.00  0.00    +0.001 C 
ATOM      6  C   UNL     1      31.271  -7.441 -23.646  0.00  0.00    +0.001 C 
ENDROOT
BRANCH   4  14
ATOM      7  O   UNL     1      36.549  -3.488 -28.359  0.00  0.00    -0.274 OA
ATOM      8  N   UNL     1      36.035  -5.358 -27.017  0.00  0.00    -0.217 N 
ATOM      9  N   UNL     1      33.307  -4.937 -24.961  0.00  0.00    -0.152 N 
ATOM     10  N   UNL     1      34.312  -5.739 -25.406  0.00  0.00    -0.092 NA
ATOM     11  N   UNL     1      34.408  -3.720 -26.468  0.00  0.00    -0.319 NA
ATOM     12  C   UNL     1      36.762  -4.630 -27.977  0.00  0.00    +0.234 C 
ATOM     13  C   UNL     1      34.930  -4.962 -26.293  0.00  0.00    +0.167 C 
ATOM     14  C   UNL     1      32.308  -5.212 -24.005  0.00  0.00    +0.077 C 
ATOM     15  C   UNL     1      33.391  -3.710 -25.635  0.00  0.00    +0.219 C 
ATOM     16  C   UNL     1      31.399  -4.251 -23.732  0.00  0.00    +0.017 C 
ATOM     17  C   UNL     1      32.423  -2.715 -25.330  0.00  0.00    +0.051 C 
ATOM     18  C   UNL     1      31.468  -2.974 -24.420  0.00  0.00    +0.005 C 
ATOM     19  H   UNL     1      36.358  -6.271 -26.838  0.00  0.00    +0.167 HD
BRANCH  12  20
ATOM     20  C   UNL     1      37.916  -5.374 -28.571  0.00  0.00    +0.077 C 
ATOM     21  C   UNL     1      38.335  -5.066 -29.979  0.00  0.00    +0.010 C 
ATOM     22  C   UNL     1      37.660  -6.370 -29.665  0.00  0.00    +0.010 C 
ENDBRANCH  12  20
ENDBRANCH   4  14
BRANCH   1  23
ATOM     23  C   UNL     1      32.056 -10.266 -21.237  0.00  0.00    -0.050 C 
BRANCH  23  27
ATOM     24  S   UNL     1      33.711 -13.915 -23.320  0.00  0.00    -0.014 S 
ATOM     25  O   UNL     1      33.477 -14.835 -24.414  0.00  0.00    -0.173 OA
ATOM     26  O   UNL     1      34.864 -14.060 -22.453  0.00  0.00    -0.173 OA
ATOM     27  N   UNL     1      32.262 -11.396 -22.148  0.00  0.00    +0.392 N 
ATOM     28  C   UNL     1      32.232 -12.660 -21.393  0.00  0.00    -0.051 C 
ATOM     29  C   UNL     1      33.529 -11.223 -22.878  0.00  0.00    -0.051 C 
ATOM     30  C   UNL     1      33.708 -12.264 -23.977  0.00  0.00    +0.128 C 
ATOM     31  C   UNL     1      32.250 -13.879 -22.308  0.00  0.00    +0.128 C 
ATOM     32  H   UNL     1      31.509 -11.427 -22.836  0.00  0.00    -0.079 HD
ENDBRANCH  23  27
ENDBRANCH   1  23
TORSDOF 4
ENDMDL
MODEL 9
REMARK VINA RESULT:      -9.2      5.107     11.394
REMARK  Name = 49831257
REMARK  4 active torsions:
REMARK  status: ('A' for Active; 'I' for Inactive)
REMARK    1  A    between atoms: C_1  and  C_23
REMARK    2  A    between atoms: C_4  and  C_14
REMARK    3  A    between atoms: C_12  and  C_20
REMARK    4  A    between atoms: C_23  and  N_27
REMARK                            x       y       z     vdW  Elec       q    Type
REMARK                         _______ _______ _______ _____ _____    ______ ____
ROOT
ATOM      1  C   UNL     1      34.887 -21.775 -19.460  0.00  0.00    -0.043 C 
ATOM      2  C   UNL     1      33.495 -21.694 -19.468  0.00  0.00    -0.006 C 
ATOM      3  C   UNL     1      35.546 -22.359 -18.378  0.00  0.00    -0.006 C 
ATOM      4  C   UNL     1      33.420 -22.779 -17.310  0.00  0.00    +0.016 C 
ATOM      5  C   UNL     1      32.761 -22.196 -18.393  0.00  0.00    +0.001 C 
ATOM      6  C   UNL     1      34.813 -22.860 -17.303  0.00  0.00    +0.001 C 
ENDROOT
BRANCH   4  14
ATOM      7  O   UNL     1      34.957 -25.543 -10.735  0.00  0.00    -0.274 OA
ATOM      8  N   UNL     1      35.743 -24.611 -12.754  0.00  0.00    -0.217 N 
ATOM      9  N   UNL     1      33.274 -23.784 -15.005  0.00  0.00    -0.152 N 
ATOM     10  N   UNL     1      34.599 -23.830 -14.701  0.00  0.00    -0.092 NA
ATOM     11  N   UNL     1      33.380 -24.671 -12.964  0.00  0.00    -0.319 NA
ATOM     12  C   UNL     1      35.862 -25.165 -11.467  0.00  0.00    +0.234 C 
ATOM     13  C   UNL     1      34.598 -24.367 -13.483  0.00  0.00    +0.167 C 
ATOM     14  C   UNL     1      32.646 -23.308 -16.174  0.00  0.00    +0.077 C 
ATOM     15  C   UNL     1      32.555 -24.303 -13.919  0.00  0.00    +0.219 C 
ATOM     16  C   UNL     1      31.298 -23.355 -16.244  0.00  0.00    +0.017 C 
ATOM     17  C   UNL     1      31.138 -24.341 -14.015  0.00  0.00    +0.051 C 
ATOM     18  C   UNL     1      30.535 -23.887 -15.128  0.00  0.00    +0.005 C 
ATOM     19  H   UNL     1      36.590 -24.365 -13.194  0.00  0.00    +0.167 HD
BRANCH  12  20
ATOM     20  C   UNL     1      37.270 -25.290 -10.976  0.00  0.00    +0.077 C 
ATOM     21  C   UNL     1      38.343 -24.464 -11.623  0.00  0.00    +0.010 C 
ATOM     22  C   UNL     1      38.295 -25.947 -11.854  0.00  0.00    +0.010 C 
ENDBRANCH  12  20
ENDBRANCH   4  14
BRANCH   1  23
ATOM     23  C   UNL     1      35.679 -21.235 -20.622  0.00  0.00    -0.050 C 
BRANCH  23  27
ATOM     24  S   UNL     1      35.055 -17.044 -22.180  0.00  0.00    -0.014 S 
ATOM     25  O   UNL     1      35.043 -15.648 -21.790  0.00  0.00    -0.173 OA
ATOM     26  O   UNL     1      34.789 -17.441 -23.549  0.00  0.00    -0.173 OA
ATOM     27  N   UNL     1      35.554 -19.779 -20.736  0.00  0.00    +0.392 N 
ATOM     28  C   UNL     1      34.187 -19.427 -21.160  0.00  0.00    -0.051 C 
ATOM     29  C   UNL     1      36.568 -19.263 -21.671  0.00  0.00    -0.051 C 
ATOM     30  C   UNL     1      36.614 -17.739 -21.687  0.00  0.00    +0.128 C 
ATOM     31  C   UNL     1      33.939 -17.923 -21.113  0.00  0.00    +0.128 C 
ATOM     32  H   UNL     1      35.718 -19.346 -19.828  0.00  0.00    -0.079 HD
ENDBRANCH  23  27
ENDBRANCH   1  23
TORSDOF 4
ENDMDL
