MODEL 1
REMARK VINA RESULT:     -11.4      0.000      0.000
REMARK  Name = 66000
REMARK  8 active torsions:
REMARK  status: ('A' for Active; 'I' for Inactive)
REMARK    1  A    between atoms: C_1  and  O_19
REMARK    2  A    between atoms: C_4  and  C_7
REMARK    3  A    between atoms: C_10  and  C_15
REMARK    4  A    between atoms: O_19  and  C_20
REMARK    5  A    between atoms: C_20  and  C_24
REMARK    6  A    between atoms: C_23  and  C_28
REMARK    7  A    between atoms: C_28  and  C_30
REMARK    8  A    between atoms: C_30  and  O_31
REMARK                            x       y       z     vdW  Elec       q    Type
REMARK                         _______ _______ _______ _____ _____    ______ ____
ROOT
ATOM      1  C   UNL     1      34.623 -22.572 -18.516  0.00  0.00    +0.139 C 
ATOM      2  C   UNL     1      35.851 -22.100 -18.965  0.00  0.00    +0.037 C 
ATOM      3  C   UNL     1      33.436 -22.031 -18.994  0.00  0.00    +0.037 C 
ATOM      4  C   UNL     1      34.705 -20.521 -20.388  0.00  0.00    +0.000 C 
ATOM      5  C   UNL     1      35.892 -21.071 -19.904  0.00  0.00    +0.003 C 
ATOM      6  C   UNL     1      33.477 -21.000 -19.933  0.00  0.00    +0.003 C 
ENDROOT
BRANCH   4   7
ATOM      7  C   UNL     1      34.747 -19.452 -21.362  0.00  0.00    +0.000 C 
ATOM      8  C   UNL     1      34.880 -18.129 -20.941  0.00  0.00    +0.000 C 
ATOM      9  C   UNL     1      34.656 -19.744 -22.723  0.00  0.00    +0.000 C 
ATOM     10  C   UNL     1      34.831 -17.391 -23.240  0.00  0.00    +0.031 C 
ATOM     11  C   UNL     1      34.922 -17.098 -21.880  0.00  0.00    +0.003 C 
ATOM     12  C   UNL     1      34.698 -18.713 -23.663  0.00  0.00    +0.003 C 
BRANCH  10  15
ATOM     13  N   UNL     1      34.852 -14.978 -23.830  0.00  0.00    -0.343 N 
ATOM     14  N   UNL     1      34.930 -16.601 -25.509  0.00  0.00    -0.285 NA
ATOM     15  C   UNL     1      34.874 -16.315 -24.219  0.00  0.00    +0.117 C 
ATOM     16  H   UNL     1      34.881 -14.267 -24.510  0.00  0.00    +0.144 HD
ATOM     17  H   UNL     1      34.806 -14.745 -22.875  0.00  0.00    +0.144 HD
ATOM     18  H   UNL     1      34.959 -15.876 -26.173  0.00  0.00    +0.188 HD
ENDBRANCH  10  15
ENDBRANCH   4   7
BRANCH   1  19
ATOM     19  O   UNL     1      34.583 -23.585 -17.591  0.00  0.00    -0.474 OA
BRANCH  19  20
ATOM     20  C   UNL     1      33.830 -23.352 -16.414  0.00  0.00    +0.225 C 
BRANCH  20  24
ATOM     21  O   UNL     1      34.239 -25.012 -12.370  0.00  0.00    -0.275 OA
ATOM     22  N   UNL     1      34.185 -23.325 -13.991  0.00  0.00    -0.302 N 
ATOM     23  C   UNL     1      35.559 -25.169 -14.422  0.00  0.00    +0.089 C 
ATOM     24  C   UNL     1      34.793 -23.053 -15.272  0.00  0.00    +0.116 C 
ATOM     25  C   UNL     1      36.010 -23.971 -15.264  0.00  0.00    +0.033 C 
ATOM     26  C   UNL     1      34.600 -24.531 -13.434  0.00  0.00    +0.223 C 
ATOM     27  H   UNL     1      33.543 -22.719 -13.556  0.00  0.00    +0.149 HD
BRANCH  23  28
ATOM     28  C   UNL     1      36.709 -25.891 -13.745  0.00  0.00    +0.118 C 
BRANCH  28  30
ATOM     29  O   UNL     1      38.231 -27.689 -14.369  0.00  0.00    -0.250 OA
ATOM     30  C   UNL     1      37.202 -27.059 -14.560  0.00  0.00    +0.314 C 
BRANCH  30  31
ATOM     31  O   UNL     1      36.327 -27.331 -15.563  0.00  0.00    -0.480 OA
ATOM     32  H   UNL     1      35.928 -28.177 -15.621  0.00  0.00    +0.295 HD
ENDBRANCH  30  31
ENDBRANCH  28  30
ENDBRANCH  23  28
ENDBRANCH  20  24
ENDBRANCH  19  20
ENDBRANCH   1  19
TORSDOF 8
ENDMDL
MODEL 2
REMARK VINA RESULT:     -11.4      2.084      3.686
REMARK  Name = 66000
REMARK  8 active torsions:
REMARK  status: ('A' for Active; 'I' for Inactive)
REMARK    1  A    between atoms: C_1  and  O_19
REMARK    2  A    between atoms: C_4  and  C_7
REMARK    3  A    between atoms: C_10  and  C_15
REMARK    4  A    between atoms: O_19  and  C_20
REMARK    5  A    between atoms: C_20  and  C_24
REMARK    6  A    between atoms: C_23  and  C_28
REMARK    7  A    between atoms: C_28  and  C_30
REMARK    8  A    between atoms: C_30  and  O_31
REMARK                            x       y       z     vdW  Elec       q    Type
REMARK                         _______ _______ _______ _____ _____    ______ ____
ROOT
ATOM      1  C   UNL     1      34.761 -24.003 -15.477  0.00  0.00    +0.139 C 
ATOM      2  C   UNL     1      35.953 -23.347 -15.759  0.00  0.00    +0.037 C 
ATOM      3  C   UNL     1      33.670 -23.893 -16.331  0.00  0.00    +0.037 C 
ATOM      4  C   UNL     1      34.965 -22.453 -17.774  0.00  0.00    +0.000 C 
ATOM      5  C   UNL     1      36.056 -22.569 -16.912  0.00  0.00    +0.003 C 
ATOM      6  C   UNL     1      33.772 -23.114 -17.483  0.00  0.00    +0.003 C 
ENDROOT
BRANCH   4   7
ATOM      7  C   UNL     1      35.071 -21.645 -18.970  0.00  0.00    +0.000 C 
ATOM      8  C   UNL     1      33.918 -21.231 -19.636  0.00  0.00    +0.000 C 
ATOM      9  C   UNL     1      36.327 -21.279 -19.456  0.00  0.00    +0.000 C 
ATOM     10  C   UNL     1      35.274 -20.085 -21.274  0.00  0.00    +0.031 C 
ATOM     11  C   UNL     1      34.019 -20.451 -20.788  0.00  0.00    +0.003 C 
ATOM     12  C   UNL     1      36.428 -20.499 -20.609  0.00  0.00    +0.003 C 
BRANCH  10  15
ATOM     13  N   UNL     1      34.562 -19.501 -23.580  0.00  0.00    -0.343 N 
ATOM     14  N   UNL     1      36.270 -18.298 -22.534  0.00  0.00    -0.285 NA
ATOM     15  C   UNL     1      35.380 -19.273 -22.475  0.00  0.00    +0.117 C 
ATOM     16  H   UNL     1      34.651 -18.939 -24.383  0.00  0.00    +0.144 HD
ATOM     17  H   UNL     1      33.895 -20.224 -23.557  0.00  0.00    +0.144 HD
ATOM     18  H   UNL     1      36.344 -17.747 -23.346  0.00  0.00    +0.188 HD
ENDBRANCH  10  15
ENDBRANCH   4   7
BRANCH   1  19
ATOM     19  O   UNL     1      34.660 -24.768 -14.342  0.00  0.00    -0.474 OA
BRANCH  19  20
ATOM     20  C   UNL     1      35.395 -24.339 -13.210  0.00  0.00    +0.225 C 
BRANCH  20  24
ATOM     21  O   UNL     1      37.706 -27.591 -15.042  0.00  0.00    -0.275 OA
ATOM     22  N   UNL     1      36.169 -26.636 -13.558  0.00  0.00    -0.302 N 
ATOM     23  C   UNL     1      38.283 -25.640 -13.688  0.00  0.00    +0.089 C 
ATOM     24  C   UNL     1      36.129 -25.538 -12.622  0.00  0.00    +0.116 C 
ATOM     25  C   UNL     1      37.606 -25.263 -12.365  0.00  0.00    +0.033 C 
ATOM     26  C   UNL     1      37.399 -26.762 -14.199  0.00  0.00    +0.223 C 
ATOM     27  H   UNL     1      35.406 -27.235 -13.725  0.00  0.00    +0.149 HD
BRANCH  23  28
ATOM     28  C   UNL     1      39.731 -26.060 -13.520  0.00  0.00    +0.118 C 
BRANCH  28  30
ATOM     29  O   UNL     1      41.364 -24.617 -14.611  0.00  0.00    -0.250 OA
ATOM     30  C   UNL     1      40.598 -25.567 -14.651  0.00  0.00    +0.314 C 
BRANCH  30  31
ATOM     31  O   UNL     1      40.413 -26.342 -15.751  0.00  0.00    -0.480 OA
ATOM     32  H   UNL     1      41.104 -26.441 -16.376  0.00  0.00    +0.295 HD
ENDBRANCH  30  31
ENDBRANCH  28  30
ENDBRANCH  23  28
ENDBRANCH  20  24
ENDBRANCH  19  20
ENDBRANCH   1  19
TORSDOF 8
ENDMDL
MODEL 3
REMARK VINA RESULT:     -11.2      1.576      2.335
REMARK  Name = 66000
REMARK  8 active torsions:
REMARK  status: ('A' for Active; 'I' for Inactive)
REMARK    1  A    between atoms: C_1  and  O_19
REMARK    2  A    between atoms: C_4  and  C_7
REMARK    3  A    between atoms: C_10  and  C_15
REMARK    4  A    between atoms: O_19  and  C_20
REMARK    5  A    between atoms: C_20  and  C_24
REMARK    6  A    between atoms: C_23  and  C_28
REMARK    7  A    between atoms: C_28  and  C_30
REMARK    8  A    between atoms: C_30  and  O_31
REMARK                            x       y       z     vdW  Elec       q    Type
REMARK                         _______ _______ _______ _____ _____    ______ ____
ROOT
ATOM      1  C   UNL     1      35.374 -22.411 -17.987  0.00  0.00    +0.139 C 
ATOM      2  C   UNL     1      34.138 -22.180 -18.580  0.00  0.00    +0.037 C 
ATOM      3  C   UNL     1      36.516 -21.769 -18.451  0.00  0.00    +0.037 C 
ATOM      4  C   UNL     1      35.185 -20.648 -20.126  0.00  0.00    +0.000 C 
ATOM      5  C   UNL     1      34.044 -21.296 -19.653  0.00  0.00    +0.003 C 
ATOM      6  C   UNL     1      36.421 -20.885 -19.526  0.00  0.00    +0.003 C 
ENDROOT
BRANCH   4   7
ATOM      7  C   UNL     1      35.087 -19.731 -21.241  0.00  0.00    +0.000 C 
ATOM      8  C   UNL     1      35.342 -18.372 -21.050  0.00  0.00    +0.000 C 
ATOM      9  C   UNL     1      34.738 -20.204 -22.506  0.00  0.00    +0.000 C 
ATOM     10  C   UNL     1      34.901 -17.962 -23.390  0.00  0.00    +0.031 C 
ATOM     11  C   UNL     1      35.249 -17.488 -22.125  0.00  0.00    +0.003 C 
ATOM     12  C   UNL     1      34.645 -19.319 -23.581  0.00  0.00    +0.003 C 
BRANCH  10  15
ATOM     13  N   UNL     1      35.540 -15.857 -24.543  0.00  0.00    -0.343 N 
ATOM     14  N   UNL     1      33.998 -17.315 -25.522  0.00  0.00    -0.285 NA
ATOM     15  C   UNL     1      34.803 -17.039 -24.510  0.00  0.00    +0.117 C 
ATOM     16  H   UNL     1      35.457 -15.247 -25.311  0.00  0.00    +0.144 HD
ATOM     17  H   UNL     1      36.142 -15.632 -23.798  0.00  0.00    +0.144 HD
ATOM     18  H   UNL     1      33.930 -16.692 -26.281  0.00  0.00    +0.188 HD
ENDBRANCH  10  15
ENDBRANCH   4   7
BRANCH   1  19
ATOM     19  O   UNL     1      35.468 -23.282 -16.930  0.00  0.00    -0.474 OA
BRANCH  19  20
ATOM     20  C   UNL     1      36.574 -23.121 -16.060  0.00  0.00    +0.225 C 
BRANCH  20  24
ATOM     21  O   UNL     1      37.208 -27.392 -15.266  0.00  0.00    -0.275 OA
ATOM     22  N   UNL     1      36.067 -25.350 -15.183  0.00  0.00    -0.302 N 
ATOM     23  C   UNL     1      38.317 -25.338 -14.542  0.00  0.00    +0.089 C 
ATOM     24  C   UNL     1      36.351 -23.982 -14.824  0.00  0.00    +0.116 C 
ATOM     25  C   UNL     1      37.599 -24.116 -13.959  0.00  0.00    +0.033 C 
ATOM     26  C   UNL     1      37.163 -26.195 -15.026  0.00  0.00    +0.223 C 
ATOM     27  H   UNL     1      35.189 -25.655 -15.506  0.00  0.00    +0.149 HD
BRANCH  23  28
ATOM     28  C   UNL     1      39.198 -26.051 -13.534  0.00  0.00    +0.118 C 
BRANCH  28  30
ATOM     29  O   UNL     1      41.343 -27.208 -13.592  0.00  0.00    -0.250 OA
ATOM     30  C   UNL     1      40.474 -26.559 -14.155  0.00  0.00    +0.314 C 
BRANCH  30  31
ATOM     31  O   UNL     1      40.534 -26.193 -15.462  0.00  0.00    -0.480 OA
ATOM     32  H   UNL     1      40.376 -25.303 -15.707  0.00  0.00    +0.295 HD
ENDBRANCH  30  31
ENDBRANCH  28  30
ENDBRANCH  23  28
ENDBRANCH  20  24
ENDBRANCH  19  20
ENDBRANCH   1  19
TORSDOF 8
ENDMDL
MODEL 4
REMARK VINA RESULT:     -11.2      1.821      2.535
REMARK  Name = 66000
REMARK  8 active torsions:
REMARK  status: ('A' for Active; 'I' for Inactive)
REMARK    1  A    between atoms: C_1  and  O_19
REMARK    2  A    between atoms: C_4  and  C_7
REMARK    3  A    between atoms: C_10  and  C_15
REMARK    4  A    between atoms: O_19  and  C_20
REMARK    5  A    between atoms: C_20  and  C_24
REMARK    6  A    between atoms: C_23  and  C_28
REMARK    7  A    between atoms: C_28  and  C_30
REMARK    8  A    between atoms: C_30  and  O_31
REMARK                            x       y       z     vdW  Elec       q    Type
REMARK                         _______ _______ _______ _____ _____    ______ ____
ROOT
ATOM      1  C   UNL     1      34.654 -22.513 -18.366  0.00  0.00    +0.139 C 
ATOM      2  C   UNL     1      35.881 -22.030 -18.805  0.00  0.00    +0.037 C 
ATOM      3  C   UNL     1      33.466 -22.014 -18.885  0.00  0.00    +0.037 C 
ATOM      4  C   UNL     1      34.733 -20.523 -20.303  0.00  0.00    +0.000 C 
ATOM      5  C   UNL     1      35.920 -21.031 -19.776  0.00  0.00    +0.003 C 
ATOM      6  C   UNL     1      33.505 -21.014 -19.857  0.00  0.00    +0.003 C 
ENDROOT
BRANCH   4   7
ATOM      7  C   UNL     1      34.773 -19.486 -21.311  0.00  0.00    +0.000 C 
ATOM      8  C   UNL     1      34.953 -18.154 -20.935  0.00  0.00    +0.000 C 
ATOM      9  C   UNL     1      34.632 -19.817 -22.659  0.00  0.00    +0.000 C 
ATOM     10  C   UNL     1      34.853 -17.486 -23.254  0.00  0.00    +0.031 C 
ATOM     11  C   UNL     1      34.993 -17.154 -21.907  0.00  0.00    +0.003 C 
ATOM     12  C   UNL     1      34.672 -18.817 -23.631  0.00  0.00    +0.003 C 
BRANCH  10  15
ATOM     13  N   UNL     1      34.918 -15.094 -23.920  0.00  0.00    -0.343 N 
ATOM     14  N   UNL     1      34.904 -16.769 -25.548  0.00  0.00    -0.285 NA
ATOM     15  C   UNL     1      34.894 -16.443 -24.267  0.00  0.00    +0.117 C 
ATOM     16  H   UNL     1      34.944 -14.405 -24.622  0.00  0.00    +0.144 HD
ATOM     17  H   UNL     1      34.907 -14.830 -22.972  0.00  0.00    +0.144 HD
ATOM     18  H   UNL     1      34.932 -16.066 -26.236  0.00  0.00    +0.188 HD
ENDBRANCH  10  15
ENDBRANCH   4   7
BRANCH   1  19
ATOM     19  O   UNL     1      34.616 -23.496 -17.409  0.00  0.00    -0.474 OA
BRANCH  19  20
ATOM     20  C   UNL     1      35.171 -23.183 -16.143  0.00  0.00    +0.225 C 
BRANCH  20  24
ATOM     21  O   UNL     1      38.678 -24.533 -13.874  0.00  0.00    -0.275 OA
ATOM     22  N   UNL     1      36.907 -24.737 -15.390  0.00  0.00    -0.302 N 
ATOM     23  C   UNL     1      36.399 -23.886 -13.270  0.00  0.00    +0.089 C 
ATOM     24  C   UNL     1      35.486 -24.483 -15.414  0.00  0.00    +0.116 C 
ATOM     25  C   UNL     1      35.131 -24.435 -13.932  0.00  0.00    +0.033 C 
ATOM     26  C   UNL     1      37.496 -24.428 -14.167  0.00  0.00    +0.223 C 
ATOM     27  H   UNL     1      37.407 -25.093 -16.159  0.00  0.00    +0.149 HD
BRANCH  23  28
ATOM     28  C   UNL     1      36.553 -24.318 -11.824  0.00  0.00    +0.118 C 
BRANCH  28  30
ATOM     29  O   UNL     1      36.931 -23.074  -9.763  0.00  0.00    -0.250 OA
ATOM     30  C   UNL     1      37.119 -23.219 -10.961  0.00  0.00    +0.314 C 
BRANCH  30  31
ATOM     31  O   UNL     1      37.887 -22.387 -11.711  0.00  0.00    -0.480 OA
ATOM     32  H   UNL     1      38.671 -22.020 -11.350  0.00  0.00    +0.295 HD
ENDBRANCH  30  31
ENDBRANCH  28  30
ENDBRANCH  23  28
ENDBRANCH  20  24
ENDBRANCH  19  20
ENDBRANCH   1  19
TORSDOF 8
ENDMDL
MODEL 5
REMARK VINA RESULT:     -11.2      1.447      2.244
REMARK  Name = 66000
REMARK  8 active torsions:
REMARK  status: ('A' for Active; 'I' for Inactive)
REMARK    1  A    between atoms: C_1  and  O_19
REMARK    2  A    between atoms: C_4  and  C_7
REMARK    3  A    between atoms: C_10  and  C_15
REMARK    4  A    between atoms: O_19  and  C_20
REMARK    5  A    between atoms: C_20  and  C_24
REMARK    6  A    between atoms: C_23  and  C_28
REMARK    7  A    between atoms: C_28  and  C_30
REMARK    8  A    between atoms: C_30  and  O_31
REMARK                            x       y       z     vdW  Elec       q    Type
REMARK                         _______ _______ _______ _____ _____    ______ ____
ROOT
ATOM      1  C   UNL     1      34.676 -22.551 -18.356  0.00  0.00    +0.139 C 
ATOM      2  C   UNL     1      33.484 -22.051 -18.868  0.00  0.00    +0.037 C 
ATOM      3  C   UNL     1      35.899 -22.068 -18.802  0.00  0.00    +0.037 C 
ATOM      4  C   UNL     1      34.741 -20.563 -20.295  0.00  0.00    +0.000 C 
ATOM      5  C   UNL     1      33.517 -21.054 -19.841  0.00  0.00    +0.003 C 
ATOM      6  C   UNL     1      35.932 -21.071 -19.777  0.00  0.00    +0.003 C 
ENDROOT
BRANCH   4   7
ATOM      7  C   UNL     1      34.776 -19.528 -21.306  0.00  0.00    +0.000 C 
ATOM      8  C   UNL     1      34.943 -18.194 -20.933  0.00  0.00    +0.000 C 
ATOM      9  C   UNL     1      34.644 -19.864 -22.654  0.00  0.00    +0.000 C 
ATOM     10  C   UNL     1      34.847 -17.533 -23.255  0.00  0.00    +0.031 C 
ATOM     11  C   UNL     1      34.978 -17.196 -21.908  0.00  0.00    +0.003 C 
ATOM     12  C   UNL     1      34.679 -18.866 -23.628  0.00  0.00    +0.003 C 
BRANCH  10  15
ATOM     13  N   UNL     1      34.947 -15.144 -23.926  0.00  0.00    -0.343 N 
ATOM     14  N   UNL     1      34.848 -16.820 -25.550  0.00  0.00    -0.285 NA
ATOM     15  C   UNL     1      34.882 -16.492 -24.270  0.00  0.00    +0.117 C 
ATOM     16  H   UNL     1      34.970 -14.456 -24.630  0.00  0.00    +0.144 HD
ATOM     17  H   UNL     1      34.970 -14.879 -22.978  0.00  0.00    +0.144 HD
ATOM     18  H   UNL     1      34.872 -16.118 -26.239  0.00  0.00    +0.188 HD
ENDBRANCH  10  15
ENDBRANCH   4   7
BRANCH   1  19
ATOM     19  O   UNL     1      34.643 -23.534 -17.398  0.00  0.00    -0.474 OA
BRANCH  19  20
ATOM     20  C   UNL     1      34.935 -23.145 -16.068  0.00  0.00    +0.225 C 
BRANCH  20  24
ATOM     21  O   UNL     1      38.591 -24.385 -13.979  0.00  0.00    -0.275 OA
ATOM     22  N   UNL     1      36.701 -24.671 -15.329  0.00  0.00    -0.302 N 
ATOM     23  C   UNL     1      36.379 -23.643 -13.252  0.00  0.00    +0.089 C 
ATOM     24  C   UNL     1      35.288 -24.388 -15.263  0.00  0.00    +0.116 C 
ATOM     25  C   UNL     1      35.053 -24.215 -13.766  0.00  0.00    +0.033 C 
ATOM     26  C   UNL     1      37.392 -24.278 -14.186  0.00  0.00    +0.223 C 
ATOM     27  H   UNL     1      37.133 -25.098 -16.104  0.00  0.00    +0.149 HD
BRANCH  23  28
ATOM     28  C   UNL     1      36.641 -23.961 -11.793  0.00  0.00    +0.118 C 
BRANCH  28  30
ATOM     29  O   UNL     1      36.808 -26.389 -11.667  0.00  0.00    -0.250 OA
ATOM     30  C   UNL     1      36.201 -25.356 -11.429  0.00  0.00    +0.314 C 
BRANCH  30  31
ATOM     31  O   UNL     1      35.008 -25.315 -10.781  0.00  0.00    -0.480 OA
ATOM     32  H   UNL     1      34.564 -24.498 -10.668  0.00  0.00    +0.295 HD
ENDBRANCH  30  31
ENDBRANCH  28  30
ENDBRANCH  23  28
ENDBRANCH  20  24
ENDBRANCH  19  20
ENDBRANCH   1  19
TORSDOF 8
ENDMDL
MODEL 6
REMARK VINA RESULT:     -11.0      2.345      3.893
REMARK  Name = 66000
REMARK  8 active torsions:
REMARK  status: ('A' for Active; 'I' for Inactive)
REMARK    1  A    between atoms: C_1  and  O_19
REMARK    2  A    between atoms: C_4  and  C_7
REMARK    3  A    between atoms: C_10  and  C_15
REMARK    4  A    between atoms: O_19  and  C_20
REMARK    5  A    between atoms: C_20  and  C_24
REMARK    6  A    between atoms: C_23  and  C_28
REMARK    7  A    between atoms: C_28  and  C_30
REMARK    8  A    between atoms: C_30  and  O_31
REMARK                            x       y       z     vdW  Elec       q    Type
REMARK                         _______ _______ _______ _____ _____    ______ ____
ROOT
ATOM      1  C   UNL     1      34.659 -22.537 -18.440  0.00  0.00    +0.139 C 
ATOM      2  C   UNL     1      35.885 -22.071 -18.899  0.00  0.00    +0.037 C 
ATOM      3  C   UNL     1      33.469 -22.007 -18.923  0.00  0.00    +0.037 C 
ATOM      4  C   UNL     1      34.732 -20.519 -20.347  0.00  0.00    +0.000 C 
ATOM      5  C   UNL     1      35.921 -21.058 -19.856  0.00  0.00    +0.003 C 
ATOM      6  C   UNL     1      33.506 -20.993 -19.880  0.00  0.00    +0.003 C 
ENDROOT
BRANCH   4   7
ATOM      7  C   UNL     1      34.769 -19.467 -21.340  0.00  0.00    +0.000 C 
ATOM      8  C   UNL     1      34.660 -19.782 -22.695  0.00  0.00    +0.000 C 
ATOM      9  C   UNL     1      34.913 -18.137 -20.943  0.00  0.00    +0.000 C 
ATOM     10  C   UNL     1      34.838 -17.439 -23.255  0.00  0.00    +0.031 C 
ATOM     11  C   UNL     1      34.694 -18.768 -23.652  0.00  0.00    +0.003 C 
ATOM     12  C   UNL     1      34.947 -17.123 -21.901  0.00  0.00    +0.003 C 
BRANCH  10  15
ATOM     13  N   UNL     1      34.913 -15.038 -23.887  0.00  0.00    -0.343 N 
ATOM     14  N   UNL     1      34.868 -16.690 -25.539  0.00  0.00    -0.285 NA
ATOM     15  C   UNL     1      34.875 -16.382 -24.253  0.00  0.00    +0.117 C 
ATOM     16  H   UNL     1      34.937 -14.340 -24.579  0.00  0.00    +0.144 HD
ATOM     17  H   UNL     1      34.915 -14.788 -22.935  0.00  0.00    +0.144 HD
ATOM     18  H   UNL     1      34.893 -15.977 -26.216  0.00  0.00    +0.188 HD
ENDBRANCH  10  15
ENDBRANCH   4   7
BRANCH   1  19
ATOM     19  O   UNL     1      34.623 -23.534 -17.496  0.00  0.00    -0.474 OA
BRANCH  19  20
ATOM     20  C   UNL     1      34.200 -23.172 -16.194  0.00  0.00    +0.225 C 
BRANCH  20  24
ATOM     21  O   UNL     1      31.842 -23.501 -12.505  0.00  0.00    -0.275 OA
ATOM     22  N   UNL     1      33.202 -24.272 -14.247  0.00  0.00    -0.302 N 
ATOM     23  C   UNL     1      31.297 -23.051 -14.845  0.00  0.00    +0.089 C 
ATOM     24  C   UNL     1      33.220 -24.224 -15.690  0.00  0.00    +0.116 C 
ATOM     25  C   UNL     1      31.771 -23.898 -16.031  0.00  0.00    +0.033 C 
ATOM     26  C   UNL     1      32.101 -23.624 -13.693  0.00  0.00    +0.223 C 
ATOM     27  H   UNL     1      33.896 -24.718 -13.711  0.00  0.00    +0.149 HD
BRANCH  23  28
ATOM     28  C   UNL     1      29.800 -23.128 -14.615  0.00  0.00    +0.118 C 
BRANCH  28  30
ATOM     29  O   UNL     1      28.628 -24.590 -16.173  0.00  0.00    -0.250 OA
ATOM     30  C   UNL     1      29.051 -23.484 -15.874  0.00  0.00    +0.314 C 
BRANCH  30  31
ATOM     31  O   UNL     1      28.902 -22.383 -16.655  0.00  0.00    -0.480 OA
ATOM     32  H   UNL     1      28.567 -22.467 -17.526  0.00  0.00    +0.295 HD
ENDBRANCH  30  31
ENDBRANCH  28  30
ENDBRANCH  23  28
ENDBRANCH  20  24
ENDBRANCH  19  20
ENDBRANCH   1  19
TORSDOF 8
ENDMDL
MODEL 7
REMARK VINA RESULT:     -10.5      4.090     10.519
REMARK  Name = 66000
REMARK  8 active torsions:
REMARK  status: ('A' for Active; 'I' for Inactive)
REMARK    1  A    between atoms: C_1  and  O_19
REMARK    2  A    between atoms: C_4  and  C_7
REMARK    3  A    between atoms: C_10  and  C_15
REMARK    4  A    between atoms: O_19  and  C_20
REMARK    5  A    between atoms: C_20  and  C_24
REMARK    6  A    between atoms: C_23  and  C_28
REMARK    7  A    between atoms: C_28  and  C_30
REMARK    8  A    between atoms: C_30  and  O_31
REMARK                            x       y       z     vdW  Elec       q    Type
REMARK                         _______ _______ _______ _____ _____    ______ ____
ROOT
ATOM      1  C   UNL     1      34.831 -20.921 -20.476  0.00  0.00    +0.139 C 
ATOM      2  C   UNL     1      33.480 -20.902 -20.151  0.00  0.00    +0.037 C 
ATOM      3  C   UNL     1      35.742 -21.615 -19.690  0.00  0.00    +0.037 C 
ATOM      4  C   UNL     1      33.941 -22.287 -18.226  0.00  0.00    +0.000 C 
ATOM      5  C   UNL     1      33.034 -21.588 -19.022  0.00  0.00    +0.003 C 
ATOM      6  C   UNL     1      35.295 -22.300 -18.559  0.00  0.00    +0.003 C 
ENDROOT
BRANCH   4   7
ATOM      7  C   UNL     1      33.478 -22.997 -17.054  0.00  0.00    +0.000 C 
ATOM      8  C   UNL     1      32.112 -23.196 -16.853  0.00  0.00    +0.000 C 
ATOM      9  C   UNL     1      34.398 -23.486 -16.126  0.00  0.00    +0.000 C 
ATOM     10  C   UNL     1      32.586 -24.370 -14.796  0.00  0.00    +0.031 C 
ATOM     11  C   UNL     1      31.666 -23.883 -15.723  0.00  0.00    +0.003 C 
ATOM     12  C   UNL     1      33.951 -24.172 -14.996  0.00  0.00    +0.003 C 
BRANCH  10  15
ATOM     13  N   UNL     1      30.789 -25.476 -13.484  0.00  0.00    -0.343 N 
ATOM     14  N   UNL     1      32.967 -25.372 -12.644  0.00  0.00    -0.285 NA
ATOM     15  C   UNL     1      32.120 -25.085 -13.618  0.00  0.00    +0.117 C 
ATOM     16  H   UNL     1      30.496 -25.958 -12.678  0.00  0.00    +0.144 HD
ATOM     17  H   UNL     1      30.142 -25.269 -14.197  0.00  0.00    +0.144 HD
ATOM     18  H   UNL     1      32.654 -25.856 -11.846  0.00  0.00    +0.188 HD
ENDBRANCH  10  15
ENDBRANCH   4   7
BRANCH   1  19
ATOM     19  O   UNL     1      35.270 -20.245 -21.587  0.00  0.00    -0.474 OA
BRANCH  19  20
ATOM     20  C   UNL     1      34.596 -19.044 -21.918  0.00  0.00    +0.225 C 
BRANCH  20  24
ATOM     21  O   UNL     1      34.978 -15.080 -23.766  0.00  0.00    -0.275 OA
ATOM     22  N   UNL     1      35.745 -17.093 -22.850  0.00  0.00    -0.302 N 
ATOM     23  C   UNL     1      34.178 -15.884 -21.601  0.00  0.00    +0.089 C 
ATOM     24  C   UNL     1      35.532 -17.872 -21.654  0.00  0.00    +0.116 C 
ATOM     25  C   UNL     1      34.946 -16.848 -20.689  0.00  0.00    +0.033 C 
ATOM     26  C   UNL     1      35.001 -15.916 -22.875  0.00  0.00    +0.223 C 
ATOM     27  H   UNL     1      36.354 -17.365 -23.574  0.00  0.00    +0.149 HD
BRANCH  23  28
ATOM     28  C   UNL     1      34.045 -14.489 -21.020  0.00  0.00    +0.118 C 
BRANCH  28  30
ATOM     29  O   UNL     1      31.966 -14.005 -19.844  0.00  0.00    -0.250 OA
ATOM     30  C   UNL     1      32.604 -14.067 -20.884  0.00  0.00    +0.314 C 
BRANCH  30  31
ATOM     31  O   UNL     1      32.093 -13.754 -22.102  0.00  0.00    -0.480 OA
ATOM     32  H   UNL     1      31.837 -14.435 -22.692  0.00  0.00    +0.295 HD
ENDBRANCH  30  31
ENDBRANCH  28  30
ENDBRANCH  23  28
ENDBRANCH  20  24
ENDBRANCH  19  20
ENDBRANCH   1  19
TORSDOF 8
ENDMDL
MODEL 8
REMARK VINA RESULT:     -10.4      5.698     11.567
REMARK  Name = 66000
REMARK  8 active torsions:
REMARK  status: ('A' for Active; 'I' for Inactive)
REMARK    1  A    between atoms: C_1  and  O_19
REMARK    2  A    between atoms: C_4  and  C_7
REMARK    3  A    between atoms: C_10  and  C_15
REMARK    4  A    between atoms: O_19  and  C_20
REMARK    5  A    between atoms: C_20  and  C_24
REMARK    6  A    between atoms: C_23  and  C_28
REMARK    7  A    between atoms: C_28  and  C_30
REMARK    8  A    between atoms: C_30  and  O_31
REMARK                            x       y       z     vdW  Elec       q    Type
REMARK                         _______ _______ _______ _____ _____    ______ ____
ROOT
ATOM      1  C   UNL     1      34.940 -17.554 -23.567  0.00  0.00    +0.139 C 
ATOM      2  C   UNL     1      34.630 -18.872 -23.883  0.00  0.00    +0.037 C 
ATOM      3  C   UNL     1      35.190 -17.177 -22.254  0.00  0.00    +0.037 C 
ATOM      4  C   UNL     1      34.818 -19.457 -21.547  0.00  0.00    +0.000 C 
ATOM      5  C   UNL     1      34.569 -19.826 -22.869  0.00  0.00    +0.003 C 
ATOM      6  C   UNL     1      35.127 -18.133 -21.239  0.00  0.00    +0.003 C 
ENDROOT
BRANCH   4   7
ATOM      7  C   UNL     1      34.753 -20.448 -20.495  0.00  0.00    +0.000 C 
ATOM      8  C   UNL     1      35.929 -20.953 -19.939  0.00  0.00    +0.000 C 
ATOM      9  C   UNL     1      33.515 -20.898 -20.035  0.00  0.00    +0.000 C 
ATOM     10  C   UNL     1      34.629 -22.356 -18.463  0.00  0.00    +0.031 C 
ATOM     11  C   UNL     1      35.867 -21.907 -18.923  0.00  0.00    +0.003 C 
ATOM     12  C   UNL     1      33.453 -21.852 -19.019  0.00  0.00    +0.003 C 
BRANCH  10  15
ATOM     13  N   UNL     1      35.515 -23.391 -16.386  0.00  0.00    -0.343 N 
ATOM     14  N   UNL     1      33.592 -24.246 -17.401  0.00  0.00    -0.285 NA
ATOM     15  C   UNL     1      34.565 -23.352 -17.405  0.00  0.00    +0.117 C 
ATOM     16  H   UNL     1      35.452 -24.074 -15.680  0.00  0.00    +0.144 HD
ATOM     17  H   UNL     1      36.249 -22.735 -16.373  0.00  0.00    +0.144 HD
ATOM     18  H   UNL     1      33.546 -24.921 -16.686  0.00  0.00    +0.188 HD
ENDBRANCH  10  15
ENDBRANCH   4   7
BRANCH   1  19
ATOM     19  O   UNL     1      35.000 -16.614 -24.566  0.00  0.00    -0.474 OA
BRANCH  19  20
ATOM     20  C   UNL     1      35.057 -15.255 -24.167  0.00  0.00    +0.225 C 
BRANCH  20  24
ATOM     21  O   UNL     1      32.563 -12.820 -21.499  0.00  0.00    -0.275 OA
ATOM     22  N   UNL     1      33.006 -14.510 -23.055  0.00  0.00    -0.302 N 
ATOM     23  C   UNL     1      33.811 -12.369 -23.551  0.00  0.00    +0.089 C 
ATOM     24  C   UNL     1      33.672 -14.642 -24.329  0.00  0.00    +0.116 C 
ATOM     25  C   UNL     1      33.714 -13.204 -24.833  0.00  0.00    +0.033 C 
ATOM     26  C   UNL     1      33.035 -13.211 -22.555  0.00  0.00    +0.223 C 
ATOM     27  H   UNL     1      32.575 -15.262 -22.588  0.00  0.00    +0.149 HD
BRANCH  23  28
ATOM     28  C   UNL     1      33.248 -10.969 -23.705  0.00  0.00    +0.118 C 
BRANCH  28  30
ATOM     29  O   UNL     1      34.167  -8.826 -22.998  0.00  0.00    -0.250 OA
ATOM     30  C   UNL     1      34.309  -9.911 -23.541  0.00  0.00    +0.314 C 
BRANCH  30  31
ATOM     31  O   UNL     1      35.477 -10.332 -24.091  0.00  0.00    -0.480 OA
ATOM     32  H   UNL     1      35.659 -10.161 -24.994  0.00  0.00    +0.295 HD
ENDBRANCH  30  31
ENDBRANCH  28  30
ENDBRANCH  23  28
ENDBRANCH  20  24
ENDBRANCH  19  20
ENDBRANCH   1  19
TORSDOF 8
ENDMDL
MODEL 9
REMARK VINA RESULT:     -10.2      4.086     10.806
REMARK  Name = 66000
REMARK  8 active torsions:
REMARK  status: ('A' for Active; 'I' for Inactive)
REMARK    1  A    between atoms: C_1  and  O_19
REMARK    2  A    between atoms: C_4  and  C_7
REMARK    3  A    between atoms: C_10  and  C_15
REMARK    4  A    between atoms: O_19  and  C_20
REMARK    5  A    between atoms: C_20  and  C_24
REMARK    6  A    between atoms: C_23  and  C_28
REMARK    7  A    between atoms: C_28  and  C_30
REMARK    8  A    between atoms: C_30  and  O_31
REMARK                            x       y       z     vdW  Elec       q    Type
REMARK                         _______ _______ _______ _____ _____    ______ ____
ROOT
ATOM      1  C   UNL     1      35.210 -21.128 -20.000  0.00  0.00    +0.139 C 
ATOM      2  C   UNL     1      36.437 -21.282 -19.365  0.00  0.00    +0.037 C 
ATOM      3  C   UNL     1      34.050 -21.654 -19.445  0.00  0.00    +0.037 C 
ATOM      4  C   UNL     1      35.344 -22.506 -17.592  0.00  0.00    +0.000 C 
ATOM      5  C   UNL     1      36.503 -21.974 -18.156  0.00  0.00    +0.003 C 
ATOM      6  C   UNL     1      34.118 -22.347 -18.237  0.00  0.00    +0.003 C 
ENDROOT
BRANCH   4   7
ATOM      7  C   UNL     1      35.413 -23.226 -16.338  0.00  0.00    +0.000 C 
ATOM      8  C   UNL     1      34.264 -23.809 -15.805  0.00  0.00    +0.000 C 
ATOM      9  C   UNL     1      36.630 -23.337 -15.664  0.00  0.00    +0.000 C 
ATOM     10  C   UNL     1      35.547 -24.614 -13.923  0.00  0.00    +0.031 C 
ATOM     11  C   UNL     1      34.331 -24.503 -14.596  0.00  0.00    +0.003 C 
ATOM     12  C   UNL     1      36.696 -24.031 -14.455  0.00  0.00    +0.003 C 
BRANCH  10  15
ATOM     13  N   UNL     1      36.660 -26.219 -12.388  0.00  0.00    -0.343 N 
ATOM     14  N   UNL     1      34.672 -25.167 -11.753  0.00  0.00    -0.285 NA
ATOM     15  C   UNL     1      35.616 -25.338 -12.663  0.00  0.00    +0.117 C 
ATOM     16  H   UNL     1      36.686 -26.698 -11.529  0.00  0.00    +0.144 HD
ATOM     17  H   UNL     1      37.370 -26.362 -13.053  0.00  0.00    +0.144 HD
ATOM     18  H   UNL     1      34.716 -25.656 -10.900  0.00  0.00    +0.188 HD
ENDBRANCH  10  15
ENDBRANCH   4   7
BRANCH   1  19
ATOM     19  O   UNL     1      35.145 -20.447 -21.190  0.00  0.00    -0.474 OA
BRANCH  19  20
ATOM     20  C   UNL     1      34.461 -19.206 -21.184  0.00  0.00    +0.225 C 
BRANCH  20  24
ATOM     21  O   UNL     1      35.244 -16.374 -24.446  0.00  0.00    -0.275 OA
ATOM     22  N   UNL     1      35.804 -17.879 -22.743  0.00  0.00    -0.302 N 
ATOM     23  C   UNL     1      34.296 -16.174 -22.203  0.00  0.00    +0.089 C 
ATOM     24  C   UNL     1      35.481 -18.087 -21.352  0.00  0.00    +0.116 C 
ATOM     25  C   UNL     1      34.944 -16.725 -20.928  0.00  0.00    +0.033 C 
ATOM     26  C   UNL     1      35.162 -16.773 -23.294  0.00  0.00    +0.223 C 
ATOM     27  H   UNL     1      36.416 -18.459 -23.251  0.00  0.00    +0.149 HD
BRANCH  23  28
ATOM     28  C   UNL     1      34.257 -14.658 -22.246  0.00  0.00    +0.118 C 
BRANCH  28  30
ATOM     29  O   UNL     1      32.856 -14.091 -24.158  0.00  0.00    -0.250 OA
ATOM     30  C   UNL     1      33.027 -14.142 -22.950  0.00  0.00    +0.314 C 
BRANCH  30  31
ATOM     31  O   UNL     1      32.107 -13.732 -22.039  0.00  0.00    -0.480 OA
ATOM     32  H   UNL     1      31.245 -14.101 -22.044  0.00  0.00    +0.295 HD
ENDBRANCH  30  31
ENDBRANCH  28  30
ENDBRANCH  23  28
ENDBRANCH  20  24
ENDBRANCH  19  20
ENDBRANCH   1  19
TORSDOF 8
ENDMDL
