MODEL 1
REMARK VINA RESULT:     -13.0      0.000      0.000
REMARK  Name = 6105620
REMARK  4 active torsions:
REMARK  status: ('A' for Active; 'I' for Inactive)
REMARK    1  A    between atoms: N_2  and  C_7
REMARK    2  A    between atoms: N_3  and  C_21
REMARK    3  A    between atoms: C_9  and  C_29
REMARK    4  A    between atoms: C_30  and  C_31
REMARK                            x       y       z     vdW  Elec       q    Type
REMARK                         _______ _______ _______ _____ _____    ______ ____
ROOT
ATOM      1  N   UNL     1      35.644 -22.889 -16.986  0.00  0.00    -0.086 NA
ATOM      2  N   UNL     1      34.229 -22.907 -17.345  0.00  0.00    -0.132 N 
ATOM      3  N   UNL     1      36.279 -22.072 -17.964  0.00  0.00    -0.240 N 
ATOM      4  N   UNL     1      34.066 -22.212 -18.536  0.00  0.00    -0.146 NA
ATOM      5  C   UNL     1      35.270 -21.757 -18.847  0.00  0.00    +0.162 C 
ATOM      6  H   UNL     1      37.224 -21.796 -18.001  0.00  0.00    +0.170 HD
ENDROOT
BRANCH   2  11
ATOM      7  O   UNL     1      33.321 -25.133 -12.842  0.00  0.00    -0.220 OA
ATOM      8  O   UNL     1      28.561 -24.198 -14.709  0.00  0.00    -0.220 OA
ATOM      9  N   UNL     1      31.055 -25.246 -12.618  0.00  0.00    -0.062 NA
ATOM     10  N   UNL     1      29.912 -25.022 -13.066  0.00  0.00    -0.062 NA
ATOM     11  C   UNL     1      33.094 -23.277 -16.594  0.00  0.00    +0.089 C 
ATOM     12  C   UNL     1      33.231 -23.898 -15.340  0.00  0.00    +0.030 C 
ATOM     13  C   UNL     1      31.798 -23.032 -17.084  0.00  0.00    +0.019 C 
ATOM     14  C   UNL     1      32.100 -24.260 -14.603  0.00  0.00    +0.097 C 
ATOM     15  C   UNL     1      30.835 -24.013 -15.100  0.00  0.00    +0.096 C 
ATOM     16  C   UNL     1      30.672 -23.396 -16.344  0.00  0.00    +0.014 C 
ATOM     17  C   UNL     1      32.202 -24.909 -13.293  0.00  0.00    +0.174 C 
ATOM     18  C   UNL     1      29.689 -24.416 -14.278  0.00  0.00    +0.174 C 
ENDBRANCH   2  11
BRANCH   1  21
ATOM     19  S   UNL     1      37.705 -22.913 -15.280  0.00  0.00    -0.074 S 
ATOM     20  N   UNL     1      35.932 -24.806 -15.657  0.00  0.00    -0.310 N 
ATOM     21  C   UNL     1      36.280 -23.582 -16.068  0.00  0.00    +0.222 C 
ATOM     22  C   UNL     1      36.764 -25.289 -14.699  0.00  0.00    +0.052 C 
ATOM     23  C   UNL     1      37.801 -24.420 -14.342  0.00  0.00    +0.041 C 
ATOM     24  C   UNL     1      36.644 -26.530 -14.090  0.00  0.00    +0.015 C 
ATOM     25  C   UNL     1      38.734 -24.767 -13.378  0.00  0.00    +0.007 C 
ATOM     26  C   UNL     1      37.578 -26.891 -13.117  0.00  0.00    +0.001 C 
ATOM     27  C   UNL     1      38.616 -26.015 -12.764  0.00  0.00    +0.001 C 
ATOM     28  H   UNL     1      35.158 -25.303 -16.009  0.00  0.00    +0.149 HD
ENDBRANCH   1  21
BRANCH   5  29
ATOM     29  C   UNL     1      35.484 -20.971 -20.071  0.00  0.00    +0.037 C 
ATOM     30  C   UNL     1      34.609 -20.068 -20.481  0.00  0.00    +0.003 C 
BRANCH  30  31
ATOM     31  C   UNL     1      34.774 -19.263 -21.704  0.00  0.00    +0.000 C 
ATOM     32  C   UNL     1      35.177 -17.941 -21.598  0.00  0.00    +0.000 C 
ATOM     33  C   UNL     1      34.522 -19.843 -22.937  0.00  0.00    +0.000 C 
ATOM     34  C   UNL     1      35.334 -17.179 -22.756  0.00  0.00    +0.000 C 
ATOM     35  C   UNL     1      34.679 -19.081 -24.095  0.00  0.00    +0.000 C 
ATOM     36  C   UNL     1      35.085 -17.749 -24.005  0.00  0.00    +0.000 C 
ENDBRANCH  30  31
ENDBRANCH   5  29
TORSDOF 4
ENDMDL
MODEL 2
REMARK VINA RESULT:     -12.9      2.289      5.410
REMARK  Name = 6105620
REMARK  4 active torsions:
REMARK  status: ('A' for Active; 'I' for Inactive)
REMARK    1  A    between atoms: N_2  and  C_7
REMARK    2  A    between atoms: N_3  and  C_21
REMARK    3  A    between atoms: C_9  and  C_29
REMARK    4  A    between atoms: C_30  and  C_31
REMARK                            x       y       z     vdW  Elec       q    Type
REMARK                         _______ _______ _______ _____ _____    ______ ____
ROOT
ATOM      1  N   UNL     1      33.733 -23.079 -17.167  0.00  0.00    -0.086 NA
ATOM      2  N   UNL     1      35.125 -22.842 -16.800  0.00  0.00    -0.132 N 
ATOM      3  N   UNL     1      33.582 -22.543 -18.478  0.00  0.00    -0.240 N 
ATOM      4  N   UNL     1      35.732 -22.112 -17.815  0.00  0.00    -0.146 NA
ATOM      5  C   UNL     1      34.804 -21.967 -18.749  0.00  0.00    +0.162 C 
ATOM      6  H   UNL     1      32.787 -22.576 -19.058  0.00  0.00    +0.170 HD
ENDROOT
BRANCH   2  11
ATOM      7  O   UNL     1      36.372 -27.546 -15.262  0.00  0.00    -0.220 OA
ATOM      8  O   UNL     1      38.917 -24.471 -11.931  0.00  0.00    -0.220 OA
ATOM      9  N   UNL     1      37.753 -27.297 -13.464  0.00  0.00    -0.062 NA
ATOM     10  N   UNL     1      38.364 -26.559 -12.664  0.00  0.00    -0.062 NA
ATOM     11  C   UNL     1      35.919 -23.411 -15.783  0.00  0.00    +0.089 C 
ATOM     12  C   UNL     1      36.034 -24.807 -15.656  0.00  0.00    +0.030 C 
ATOM     13  C   UNL     1      36.614 -22.595 -14.873  0.00  0.00    +0.019 C 
ATOM     14  C   UNL     1      36.823 -25.362 -14.645  0.00  0.00    +0.097 C 
ATOM     15  C   UNL     1      37.498 -24.545 -13.759  0.00  0.00    +0.096 C 
ATOM     16  C   UNL     1      37.401 -23.154 -13.865  0.00  0.00    +0.014 C 
ATOM     17  C   UNL     1      36.967 -26.811 -14.479  0.00  0.00    +0.174 C 
ATOM     18  C   UNL     1      38.310 -25.189 -12.721  0.00  0.00    +0.174 C 
ENDBRANCH   2  11
BRANCH   1  21
ATOM     19  S   UNL     1      33.017 -23.980 -14.751  0.00  0.00    -0.074 S 
ATOM     20  N   UNL     1      31.487 -23.703 -16.861  0.00  0.00    -0.310 N 
ATOM     21  C   UNL     1      32.743 -23.536 -16.433  0.00  0.00    +0.222 C 
ATOM     22  C   UNL     1      30.668 -24.190 -15.894  0.00  0.00    +0.052 C 
ATOM     23  C   UNL     1      31.295 -24.413 -14.663  0.00  0.00    +0.041 C 
ATOM     24  C   UNL     1      29.317 -24.460 -16.055  0.00  0.00    +0.015 C 
ATOM     25  C   UNL     1      30.594 -24.908 -13.576  0.00  0.00    +0.007 C 
ATOM     26  C   UNL     1      28.600 -24.959 -14.966  0.00  0.00    +0.001 C 
ATOM     27  C   UNL     1      29.234 -25.182 -13.735  0.00  0.00    +0.001 C 
ATOM     28  H   UNL     1      31.189 -23.496 -17.777  0.00  0.00    +0.149 HD
ENDBRANCH   1  21
BRANCH   5  29
ATOM     29  C   UNL     1      35.092 -21.227 -19.986  0.00  0.00    +0.037 C 
ATOM     30  C   UNL     1      34.458 -20.107 -20.291  0.00  0.00    +0.003 C 
BRANCH  30  31
ATOM     31  C   UNL     1      34.705 -19.335 -21.522  0.00  0.00    +0.000 C 
ATOM     32  C   UNL     1      35.097 -18.009 -21.425  0.00  0.00    +0.000 C 
ATOM     33  C   UNL     1      34.540 -19.950 -22.753  0.00  0.00    +0.000 C 
ATOM     34  C   UNL     1      35.331 -17.279 -22.591  0.00  0.00    +0.000 C 
ATOM     35  C   UNL     1      34.774 -19.219 -23.918  0.00  0.00    +0.000 C 
ATOM     36  C   UNL     1      35.169 -17.884 -23.837  0.00  0.00    +0.000 C 
ENDBRANCH  30  31
ENDBRANCH   5  29
TORSDOF 4
ENDMDL
MODEL 3
REMARK VINA RESULT:     -12.1      2.228      5.247
REMARK  Name = 6105620
REMARK  4 active torsions:
REMARK  status: ('A' for Active; 'I' for Inactive)
REMARK    1  A    between atoms: N_2  and  C_7
REMARK    2  A    between atoms: N_3  and  C_21
REMARK    3  A    between atoms: C_9  and  C_29
REMARK    4  A    between atoms: C_30  and  C_31
REMARK                            x       y       z     vdW  Elec       q    Type
REMARK                         _______ _______ _______ _____ _____    ______ ____
ROOT
ATOM      1  N   UNL     1      33.811 -23.052 -17.030  0.00  0.00    -0.086 NA
ATOM      2  N   UNL     1      35.193 -22.766 -16.657  0.00  0.00    -0.132 N 
ATOM      3  N   UNL     1      33.662 -22.563 -18.359  0.00  0.00    -0.240 N 
ATOM      4  N   UNL     1      35.791 -22.054 -17.688  0.00  0.00    -0.146 NA
ATOM      5  C   UNL     1      34.871 -21.964 -18.636  0.00  0.00    +0.162 C 
ATOM      6  H   UNL     1      32.874 -22.635 -18.946  0.00  0.00    +0.170 HD
ENDROOT
BRANCH   2  11
ATOM      7  O   UNL     1      34.487 -24.196 -11.808  0.00  0.00    -0.220 OA
ATOM      8  O   UNL     1      39.554 -25.052 -12.594  0.00  0.00    -0.220 OA
ATOM      9  N   UNL     1      36.516 -24.888 -11.032  0.00  0.00    -0.062 NA
ATOM     10  N   UNL     1      37.733 -25.093 -11.221  0.00  0.00    -0.062 NA
ATOM     11  C   UNL     1      35.990 -23.281 -15.614  0.00  0.00    +0.089 C 
ATOM     12  C   UNL     1      35.430 -23.569 -14.356  0.00  0.00    +0.030 C 
ATOM     13  C   UNL     1      37.362 -23.519 -15.808  0.00  0.00    +0.019 C 
ATOM     14  C   UNL     1      36.228 -24.080 -13.328  0.00  0.00    +0.097 C 
ATOM     15  C   UNL     1      37.575 -24.307 -13.536  0.00  0.00    +0.096 C 
ATOM     16  C   UNL     1      38.154 -24.028 -14.778  0.00  0.00    +0.014 C 
ATOM     17  C   UNL     1      35.682 -24.393 -12.003  0.00  0.00    +0.174 C 
ATOM     18  C   UNL     1      38.356 -24.844 -12.418  0.00  0.00    +0.174 C 
ENDBRANCH   2  11
BRANCH   1  21
ATOM     19  S   UNL     1      31.156 -23.136 -16.706  0.00  0.00    -0.074 S 
ATOM     20  N   UNL     1      32.977 -24.273 -15.204  0.00  0.00    -0.310 N 
ATOM     21  C   UNL     1      32.826 -23.511 -16.292  0.00  0.00    +0.222 C 
ATOM     22  C   UNL     1      31.791 -24.606 -14.633  0.00  0.00    +0.052 C 
ATOM     23  C   UNL     1      30.668 -24.092 -15.290  0.00  0.00    +0.041 C 
ATOM     24  C   UNL     1      31.645 -25.387 -13.495  0.00  0.00    +0.015 C 
ATOM     25  C   UNL     1      29.386 -24.344 -14.831  0.00  0.00    +0.007 C 
ATOM     26  C   UNL     1      30.357 -25.647 -13.023  0.00  0.00    +0.001 C 
ATOM     27  C   UNL     1      29.235 -25.129 -13.686  0.00  0.00    +0.001 C 
ATOM     28  H   UNL     1      33.852 -24.561 -14.854  0.00  0.00    +0.149 HD
ENDBRANCH   1  21
BRANCH   5  29
ATOM     29  C   UNL     1      35.154 -21.256 -19.893  0.00  0.00    +0.037 C 
ATOM     30  C   UNL     1      34.502 -20.158 -20.237  0.00  0.00    +0.003 C 
BRANCH  30  31
ATOM     31  C   UNL     1      34.742 -19.420 -21.489  0.00  0.00    +0.000 C 
ATOM     32  C   UNL     1      34.572 -20.068 -22.702  0.00  0.00    +0.000 C 
ATOM     33  C   UNL     1      35.134 -18.093 -21.430  0.00  0.00    +0.000 C 
ATOM     34  C   UNL     1      34.799 -19.370 -23.888  0.00  0.00    +0.000 C 
ATOM     35  C   UNL     1      35.362 -17.394 -22.616  0.00  0.00    +0.000 C 
ATOM     36  C   UNL     1      35.194 -18.032 -23.845  0.00  0.00    +0.000 C 
ENDBRANCH  30  31
ENDBRANCH   5  29
TORSDOF 4
ENDMDL
