MODEL 1
REMARK VINA RESULT:     -11.4      0.000      0.000
REMARK  Name = 25184541
REMARK  4 active torsions:
REMARK  status: ('A' for Active; 'I' for Inactive)
REMARK    1  A    between atoms: C_4  and  N_19
REMARK    2  A    between atoms: C_5  and  N_11
REMARK    3  A    between atoms: C_20  and  C_23
REMARK    4  A    between atoms: C_23  and  N_25
REMARK                            x       y       z     vdW  Elec       q    Type
REMARK                         _______ _______ _______ _____ _____    ______ ____
ROOT
ATOM      1  F   UNL     1      35.252 -23.363 -16.988  0.00  0.00    -0.200 F 
ATOM      2  F   UNL     1      32.572 -22.945 -17.118  0.00  0.00    -0.200 F 
ATOM      3  F   UNL     1      32.019 -25.204 -12.977  0.00  0.00    -0.203 F 
ATOM      4  C   UNL     1      35.012 -24.498 -14.916  0.00  0.00    +0.089 C 
ATOM      5  C   UNL     1      32.259 -24.070 -15.050  0.00  0.00    +0.110 C 
ATOM      6  C   UNL     1      34.464 -23.817 -16.003  0.00  0.00    +0.182 C 
ATOM      7  C   UNL     1      34.183 -24.965 -13.895  0.00  0.00    +0.048 C 
ATOM      8  C   UNL     1      33.087 -23.603 -16.070  0.00  0.00    +0.184 C 
ATOM      9  C   UNL     1      32.807 -24.751 -13.963  0.00  0.00    +0.157 C 
ENDROOT
BRANCH   5  11
ATOM     10  O   UNL     1      26.840 -23.238 -15.408  0.00  0.00    -0.291 OA
ATOM     11  N   UNL     1      30.857 -23.854 -15.120  0.00  0.00    -0.282 N 
ATOM     12  C   UNL     1      30.018 -24.979 -15.570  0.00  0.00    +0.104 C 
ATOM     13  C   UNL     1      28.734 -24.474 -16.226  0.00  0.00    +0.091 C 
ATOM     14  C   UNL     1      30.236 -22.719 -14.621  0.00  0.00    +0.068 C 
ATOM     15  C   UNL     1      28.060 -23.390 -15.411  0.00  0.00    +0.176 C 
ATOM     16  C   UNL     1      28.930 -22.442 -14.679  0.00  0.00    +0.054 C 
ENDBRANCH   5  11
BRANCH   4  19
ATOM     17  O   UNL     1      38.648 -24.388 -14.766  0.00  0.00    -0.434 OA
ATOM     18  O   UNL     1      37.341 -22.541 -14.925  0.00  0.00    -0.226 OA
ATOM     19  N   UNL     1      36.417 -24.718 -14.844  0.00  0.00    -0.219 N 
ATOM     20  C   UNL     1      38.442 -25.777 -14.477  0.00  0.00    +0.210 C 
ATOM     21  C   UNL     1      37.002 -26.032 -14.869  0.00  0.00    +0.147 C 
ATOM     22  C   UNL     1      37.426 -23.759 -14.844  0.00  0.00    +0.409 C 
BRANCH  20  23
ATOM     23  C   UNL     1      38.713 -26.017 -12.997  0.00  0.00    +0.134 C 
BRANCH  23  25
ATOM     24  O   UNL     1      35.401 -25.641 -10.253  0.00  0.00    -0.349 OA
ATOM     25  N   UNL     1      38.224 -24.906 -12.222  0.00  0.00    -0.312 N 
ATOM     26  N   UNL     1      36.368 -26.055 -11.161  0.00  0.00    -0.062 NA
ATOM     27  C   UNL     1      37.124 -24.976 -11.379  0.00  0.00    +0.171 C 
ATOM     28  C   UNL     1      36.687 -23.861 -10.644  0.00  0.00    +0.081 C 
ATOM     29  C   UNL     1      35.602 -24.331  -9.953  0.00  0.00    +0.215 C 
ATOM     30  H   UNL     1      38.698 -24.045 -12.296  0.00  0.00    +0.148 HD
ENDBRANCH  23  25
ENDBRANCH  20  23
ENDBRANCH   4  19
TORSDOF 4
ENDMDL
MODEL 2
REMARK VINA RESULT:     -11.1      5.558      8.122
REMARK  Name = 25184541
REMARK  4 active torsions:
REMARK  status: ('A' for Active; 'I' for Inactive)
REMARK    1  A    between atoms: C_4  and  N_19
REMARK    2  A    between atoms: C_5  and  N_11
REMARK    3  A    between atoms: C_20  and  C_23
REMARK    4  A    between atoms: C_23  and  N_25
REMARK                            x       y       z     vdW  Elec       q    Type
REMARK                         _______ _______ _______ _____ _____    ______ ____
ROOT
ATOM      1  F   UNL     1      32.344 -21.730 -18.729  0.00  0.00    -0.200 F 
ATOM      2  F   UNL     1      32.447 -20.070 -20.876  0.00  0.00    -0.200 F 
ATOM      3  F   UNL     1      37.189 -20.341 -20.857  0.00  0.00    -0.203 F 
ATOM      4  C   UNL     1      34.713 -21.889 -18.691  0.00  0.00    +0.089 C 
ATOM      5  C   UNL     1      34.819 -20.182 -20.894  0.00  0.00    +0.110 C 
ATOM      6  C   UNL     1      33.534 -21.392 -19.246  0.00  0.00    +0.182 C 
ATOM      7  C   UNL     1      35.946 -21.532 -19.238  0.00  0.00    +0.048 C 
ATOM      8  C   UNL     1      33.587 -20.539 -20.348  0.00  0.00    +0.184 C 
ATOM      9  C   UNL     1      35.998 -20.679 -20.339  0.00  0.00    +0.157 C 
ENDROOT
BRANCH   5  11
ATOM     10  O   UNL     1      34.968 -16.762 -25.191  0.00  0.00    -0.291 OA
ATOM     11  N   UNL     1      34.874 -19.312 -22.015  0.00  0.00    -0.282 N 
ATOM     12  C   UNL     1      35.478 -17.983 -21.814  0.00  0.00    +0.104 C 
ATOM     13  C   UNL     1      34.899 -16.966 -22.796  0.00  0.00    +0.091 C 
ATOM     14  C   UNL     1      34.558 -19.711 -23.305  0.00  0.00    +0.068 C 
ATOM     15  C   UNL     1      34.852 -17.497 -24.213  0.00  0.00    +0.176 C 
ATOM     16  C   UNL     1      34.561 -18.938 -24.395  0.00  0.00    +0.054 C 
ENDBRANCH   5  11
BRANCH   4  19
ATOM     17  O   UNL     1      35.159 -23.816 -15.634  0.00  0.00    -0.434 OA
ATOM     18  O   UNL     1      36.605 -22.214 -16.331  0.00  0.00    -0.226 OA
ATOM     19  N   UNL     1      34.662 -22.760 -17.566  0.00  0.00    -0.219 N 
ATOM     20  C   UNL     1      33.833 -24.234 -15.985  0.00  0.00    +0.210 C 
ATOM     21  C   UNL     1      33.668 -23.791 -17.424  0.00  0.00    +0.147 C 
ATOM     22  C   UNL     1      35.571 -22.841 -16.514  0.00  0.00    +0.409 C 
BRANCH  20  23
ATOM     23  C   UNL     1      32.842 -23.572 -15.037  0.00  0.00    +0.134 C 
BRANCH  23  25
ATOM     24  O   UNL     1      28.995 -22.805 -16.841  0.00  0.00    -0.349 OA
ATOM     25  N   UNL     1      31.605 -24.311 -15.024  0.00  0.00    -0.312 N 
ATOM     26  N   UNL     1      30.311 -22.782 -16.395  0.00  0.00    -0.062 NA
ATOM     27  C   UNL     1      30.452 -23.899 -15.675  0.00  0.00    +0.171 C 
ATOM     28  C   UNL     1      29.270 -24.658 -15.631  0.00  0.00    +0.081 C 
ATOM     29  C   UNL     1      28.385 -23.927 -16.379  0.00  0.00    +0.215 C 
ATOM     30  H   UNL     1      31.578 -25.159 -14.523  0.00  0.00    +0.148 HD
ENDBRANCH  23  25
ENDBRANCH  20  23
ENDBRANCH   4  19
TORSDOF 4
ENDMDL
MODEL 3
REMARK VINA RESULT:     -11.1      5.454      8.083
REMARK  Name = 25184541
REMARK  4 active torsions:
REMARK  status: ('A' for Active; 'I' for Inactive)
REMARK    1  A    between atoms: C_4  and  N_19
REMARK    2  A    between atoms: C_5  and  N_11
REMARK    3  A    between atoms: C_20  and  C_23
REMARK    4  A    between atoms: C_23  and  N_25
REMARK                            x       y       z     vdW  Elec       q    Type
REMARK                         _______ _______ _______ _____ _____    ______ ____
ROOT
ATOM      1  F   UNL     1      36.936 -22.140 -18.539  0.00  0.00    -0.200 F 
ATOM      2  F   UNL     1      37.115 -20.427 -20.639  0.00  0.00    -0.200 F 
ATOM      3  F   UNL     1      32.379 -20.095 -20.770  0.00  0.00    -0.203 F 
ATOM      4  C   UNL     1      34.566 -21.997 -18.576  0.00  0.00    +0.089 C 
ATOM      5  C   UNL     1      34.750 -20.238 -20.734  0.00  0.00    +0.110 C 
ATOM      6  C   UNL     1      35.816 -21.642 -19.083  0.00  0.00    +0.182 C 
ATOM      7  C   UNL     1      33.408 -21.471 -19.149  0.00  0.00    +0.048 C 
ATOM      8  C   UNL     1      35.908 -20.763 -20.162  0.00  0.00    +0.184 C 
ATOM      9  C   UNL     1      33.500 -20.593 -20.227  0.00  0.00    +0.157 C 
ENDROOT
BRANCH   5  11
ATOM     10  O   UNL     1      35.045 -16.733 -24.954  0.00  0.00    -0.291 OA
ATOM     11  N   UNL     1      34.843 -19.346 -21.834  0.00  0.00    -0.282 N 
ATOM     12  C   UNL     1      35.447 -18.025 -21.588  0.00  0.00    +0.104 C 
ATOM     13  C   UNL     1      34.903 -16.985 -22.566  0.00  0.00    +0.091 C 
ATOM     14  C   UNL     1      34.564 -19.717 -23.141  0.00  0.00    +0.068 C 
ATOM     15  C   UNL     1      34.896 -17.488 -23.995  0.00  0.00    +0.176 C 
ATOM     16  C   UNL     1      34.604 -18.922 -24.215  0.00  0.00    +0.054 C 
ENDBRANCH   5  11
BRANCH   4  19
ATOM     17  O   UNL     1      34.894 -24.003 -15.556  0.00  0.00    -0.434 OA
ATOM     18  O   UNL     1      36.385 -22.409 -16.173  0.00  0.00    -0.226 OA
ATOM     19  N   UNL     1      34.469 -22.894 -17.475  0.00  0.00    -0.219 N 
ATOM     20  C   UNL     1      33.572 -24.389 -15.954  0.00  0.00    +0.210 C 
ATOM     21  C   UNL     1      33.455 -23.911 -17.385  0.00  0.00    +0.147 C 
ATOM     22  C   UNL     1      35.346 -23.015 -16.400  0.00  0.00    +0.409 C 
BRANCH  20  23
ATOM     23  C   UNL     1      32.565 -23.733 -15.018  0.00  0.00    +0.134 C 
BRANCH  23  25
ATOM     24  O   UNL     1      28.814 -22.730 -16.907  0.00  0.00    -0.349 OA
ATOM     25  N   UNL     1      31.304 -24.427 -15.089  0.00  0.00    -0.312 N 
ATOM     26  N   UNL     1      30.113 -22.780 -16.416  0.00  0.00    -0.062 NA
ATOM     27  C   UNL     1      30.189 -23.938 -15.754  0.00  0.00    +0.171 C 
ATOM     28  C   UNL     1      28.982 -24.655 -15.793  0.00  0.00    +0.081 C 
ATOM     29  C   UNL     1      28.150 -23.853 -16.530  0.00  0.00    +0.215 C 
ATOM     30  H   UNL     1      31.229 -25.299 -14.637  0.00  0.00    +0.148 HD
ENDBRANCH  23  25
ENDBRANCH  20  23
ENDBRANCH   4  19
TORSDOF 4
ENDMDL
MODEL 4
REMARK VINA RESULT:     -10.9     15.823     18.241
REMARK  Name = 25184541
REMARK  4 active torsions:
REMARK  status: ('A' for Active; 'I' for Inactive)
REMARK    1  A    between atoms: C_4  and  N_19
REMARK    2  A    between atoms: C_5  and  N_11
REMARK    3  A    between atoms: C_20  and  C_23
REMARK    4  A    between atoms: C_23  and  N_25
REMARK                            x       y       z     vdW  Elec       q    Type
REMARK                         _______ _______ _______ _____ _____    ______ ____
ROOT
ATOM      1  F   UNL     1      31.023 -11.369 -20.678  0.00  0.00    -0.200 F 
ATOM      2  F   UNL     1      31.830 -13.734 -21.742  0.00  0.00    -0.200 F 
ATOM      3  F   UNL     1      34.693 -11.410 -24.736  0.00  0.00    -0.203 F 
ATOM      4  C   UNL     1      32.444 -10.175 -22.160  0.00  0.00    +0.089 C 
ATOM      5  C   UNL     1      33.271 -12.604 -23.254  0.00  0.00    +0.110 C 
ATOM      6  C   UNL     1      31.922 -11.373 -21.673  0.00  0.00    +0.182 C 
ATOM      7  C   UNL     1      33.380 -10.192 -23.194  0.00  0.00    +0.048 C 
ATOM      8  C   UNL     1      32.336 -12.588 -22.220  0.00  0.00    +0.184 C 
ATOM      9  C   UNL     1      33.793 -11.406 -23.741  0.00  0.00    +0.157 C 
ENDROOT
BRANCH   5  11
ATOM     10  O   UNL     1      34.808 -17.414 -25.418  0.00  0.00    -0.291 OA
ATOM     11  N   UNL     1      33.690 -13.840 -23.813  0.00  0.00    -0.282 N 
ATOM     12  C   UNL     1      33.360 -14.094 -25.226  0.00  0.00    +0.104 C 
ATOM     13  C   UNL     1      33.240 -15.593 -25.498  0.00  0.00    +0.091 C 
ATOM     14  C   UNL     1      34.536 -14.723 -23.158  0.00  0.00    +0.068 C 
ATOM     15  C   UNL     1      34.390 -16.379 -24.904  0.00  0.00    +0.176 C 
ATOM     16  C   UNL     1      34.946 -15.912 -23.614  0.00  0.00    +0.054 C 
ENDBRANCH   5  11
BRANCH   4  19
ATOM     17  O   UNL     1      31.643  -7.236 -20.166  0.00  0.00    -0.434 OA
ATOM     18  O   UNL     1      32.719  -9.056 -19.345  0.00  0.00    -0.226 OA
ATOM     19  N   UNL     1      32.024  -8.934 -21.603  0.00  0.00    -0.219 N 
ATOM     20  C   UNL     1      31.296  -6.741 -21.466  0.00  0.00    +0.210 C 
ATOM     21  C   UNL     1      31.235  -7.979 -22.335  0.00  0.00    +0.147 C 
ATOM     22  C   UNL     1      32.199  -8.489 -20.296  0.00  0.00    +0.409 C 
BRANCH  20  23
ATOM     23  C   UNL     1      32.359  -5.746 -21.914  0.00  0.00    +0.134 C 
BRANCH  23  25
ATOM     24  O   UNL     1      32.429  -3.431 -25.557  0.00  0.00    -0.349 OA
ATOM     25  N   UNL     1      32.796  -6.063 -23.250  0.00  0.00    -0.312 N 
ATOM     26  N   UNL     1      32.285  -3.917 -24.263  0.00  0.00    -0.062 NA
ATOM     27  C   UNL     1      32.740  -5.172 -24.312  0.00  0.00    +0.171 C 
ATOM     28  C   UNL     1      33.179  -5.531 -25.597  0.00  0.00    +0.081 C 
ATOM     29  C   UNL     1      32.963  -4.402 -26.343  0.00  0.00    +0.215 C 
ATOM     30  H   UNL     1      33.154  -6.965 -23.419  0.00  0.00    +0.148 HD
ENDBRANCH  23  25
ENDBRANCH  20  23
ENDBRANCH   4  19
TORSDOF 4
ENDMDL
MODEL 5
REMARK VINA RESULT:     -10.9     15.877     18.214
REMARK  Name = 25184541
REMARK  4 active torsions:
REMARK  status: ('A' for Active; 'I' for Inactive)
REMARK    1  A    between atoms: C_4  and  N_19
REMARK    2  A    between atoms: C_5  and  N_11
REMARK    3  A    between atoms: C_20  and  C_23
REMARK    4  A    between atoms: C_23  and  N_25
REMARK                            x       y       z     vdW  Elec       q    Type
REMARK                         _______ _______ _______ _____ _____    ______ ____
ROOT
ATOM      1  F   UNL     1      33.902  -9.070 -23.632  0.00  0.00    -0.200 F 
ATOM      2  F   UNL     1      34.693 -11.425 -24.729  0.00  0.00    -0.200 F 
ATOM      3  F   UNL     1      31.840 -13.772 -21.744  0.00  0.00    -0.203 F 
ATOM      4  C   UNL     1      32.465 -10.211 -22.125  0.00  0.00    +0.089 C 
ATOM      5  C   UNL     1      33.278 -12.630 -23.251  0.00  0.00    +0.110 C 
ATOM      6  C   UNL     1      33.395 -10.219 -23.165  0.00  0.00    +0.182 C 
ATOM      7  C   UNL     1      31.942 -11.413 -21.648  0.00  0.00    +0.048 C 
ATOM      8  C   UNL     1      33.801 -11.429 -23.728  0.00  0.00    +0.184 C 
ATOM      9  C   UNL     1      32.349 -12.622 -22.211  0.00  0.00    +0.157 C 
ENDROOT
BRANCH   5  11
ATOM     10  O   UNL     1      34.802 -17.424 -25.460  0.00  0.00    -0.291 OA
ATOM     11  N   UNL     1      33.694 -13.862 -23.821  0.00  0.00    -0.282 N 
ATOM     12  C   UNL     1      33.357 -14.104 -25.235  0.00  0.00    +0.104 C 
ATOM     13  C   UNL     1      33.235 -15.601 -25.518  0.00  0.00    +0.091 C 
ATOM     14  C   UNL     1      34.542 -14.751 -23.178  0.00  0.00    +0.068 C 
ATOM     15  C   UNL     1      34.387 -16.392 -24.936  0.00  0.00    +0.176 C 
ATOM     16  C   UNL     1      34.949 -15.936 -23.644  0.00  0.00    +0.054 C 
ENDBRANCH   5  11
BRANCH   4  19
ATOM     17  O   UNL     1      31.675  -7.300 -20.087  0.00  0.00    -0.434 OA
ATOM     18  O   UNL     1      32.762  -9.127 -19.299  0.00  0.00    -0.226 OA
ATOM     19  N   UNL     1      32.048  -8.978 -21.549  0.00  0.00    -0.219 N 
ATOM     20  C   UNL     1      31.315  -6.789 -21.377  0.00  0.00    +0.210 C 
ATOM     21  C   UNL     1      31.250  -8.016 -22.262  0.00  0.00    +0.147 C 
ATOM     22  C   UNL     1      32.232  -8.549 -20.238  0.00  0.00    +0.409 C 
BRANCH  20  23
ATOM     23  C   UNL     1      32.373  -5.786 -21.821  0.00  0.00    +0.134 C 
BRANCH  23  25
ATOM     24  O   UNL     1      32.294  -3.466 -25.462  0.00  0.00    -0.349 OA
ATOM     25  N   UNL     1      32.799  -6.084 -23.165  0.00  0.00    -0.312 N 
ATOM     26  N   UNL     1      32.190  -3.958 -24.167  0.00  0.00    -0.062 NA
ATOM     27  C   UNL     1      32.692  -5.196 -24.225  0.00  0.00    +0.171 C 
ATOM     28  C   UNL     1      33.122  -5.536 -25.518  0.00  0.00    +0.081 C 
ATOM     29  C   UNL     1      32.851  -4.416 -26.258  0.00  0.00    +0.215 C 
ATOM     30  H   UNL     1      33.188  -6.972 -23.341  0.00  0.00    +0.148 HD
ENDBRANCH  23  25
ENDBRANCH  20  23
ENDBRANCH   4  19
TORSDOF 4
ENDMDL
MODEL 6
REMARK VINA RESULT:     -10.8      5.896      9.075
REMARK  Name = 25184541
REMARK  4 active torsions:
REMARK  status: ('A' for Active; 'I' for Inactive)
REMARK    1  A    between atoms: C_4  and  N_19
REMARK    2  A    between atoms: C_5  and  N_11
REMARK    3  A    between atoms: C_20  and  C_23
REMARK    4  A    between atoms: C_23  and  N_25
REMARK                            x       y       z     vdW  Elec       q    Type
REMARK                         _______ _______ _______ _____ _____    ______ ____
ROOT
ATOM      1  F   UNL     1      37.297 -21.293 -18.182  0.00  0.00    -0.200 F 
ATOM      2  F   UNL     1      37.869 -22.674 -15.914  0.00  0.00    -0.200 F 
ATOM      3  F   UNL     1      33.455 -24.428 -15.872  0.00  0.00    -0.203 F 
ATOM      4  C   UNL     1      35.083 -22.152 -18.192  0.00  0.00    +0.089 C 
ATOM      5  C   UNL     1      35.669 -23.569 -15.862  0.00  0.00    +0.110 C 
ATOM      6  C   UNL     1      36.352 -22.060 -17.620  0.00  0.00    +0.182 C 
ATOM      7  C   UNL     1      34.108 -22.954 -17.599  0.00  0.00    +0.048 C 
ATOM      8  C   UNL     1      36.645 -22.769 -16.454  0.00  0.00    +0.184 C 
ATOM      9  C   UNL     1      34.401 -23.661 -16.434  0.00  0.00    +0.157 C 
ENDROOT
BRANCH   5  11
ATOM     10  O   UNL     1      36.875 -26.288 -11.243  0.00  0.00    -0.291 OA
ATOM     11  N   UNL     1      35.966 -24.288 -14.674  0.00  0.00    -0.282 N 
ATOM     12  C   UNL     1      35.468 -23.735 -13.402  0.00  0.00    +0.104 C 
ATOM     13  C   UNL     1      36.360 -24.159 -12.236  0.00  0.00    +0.091 C 
ATOM     14  C   UNL     1      36.534 -25.554 -14.673  0.00  0.00    +0.068 C 
ATOM     15  C   UNL     1      36.685 -25.638 -12.269  0.00  0.00    +0.176 C 
ATOM     16  C   UNL     1      36.863 -26.272 -13.595  0.00  0.00    +0.054 C 
ENDBRANCH   5  11
BRANCH   4  19
ATOM     17  O   UNL     1      33.676 -20.322 -21.007  0.00  0.00    -0.434 OA
ATOM     18  O   UNL     1      32.443 -21.086 -19.263  0.00  0.00    -0.226 OA
ATOM     19  N   UNL     1      34.781 -21.430 -19.382  0.00  0.00    -0.219 N 
ATOM     20  C   UNL     1      35.071 -20.153 -21.289  0.00  0.00    +0.210 C 
ATOM     21  C   UNL     1      35.759 -21.170 -20.404  0.00  0.00    +0.147 C 
ATOM     22  C   UNL     1      33.537 -20.966 -19.798  0.00  0.00    +0.409 C 
BRANCH  20  23
ATOM     23  C   UNL     1      35.467 -18.716 -20.972  0.00  0.00    +0.134 C 
BRANCH  23  25
ATOM     24  O   UNL     1      34.310 -14.607 -21.614  0.00  0.00    -0.349 OA
ATOM     25  N   UNL     1      35.388 -17.911 -22.165  0.00  0.00    -0.312 N 
ATOM     26  N   UNL     1      34.621 -15.864 -21.110  0.00  0.00    -0.062 NA
ATOM     27  C   UNL     1      34.987 -16.584 -22.175  0.00  0.00    +0.171 C 
ATOM     28  C   UNL     1      34.927 -15.841 -23.366  0.00  0.00    +0.081 C 
ATOM     29  C   UNL     1      34.496 -14.606 -22.960  0.00  0.00    +0.215 C 
ATOM     30  H   UNL     1      35.633 -18.329 -23.023  0.00  0.00    +0.148 HD
ENDBRANCH  23  25
ENDBRANCH  20  23
ENDBRANCH   4  19
TORSDOF 4
ENDMDL
MODEL 7
REMARK VINA RESULT:     -10.5     16.209     18.622
REMARK  Name = 25184541
REMARK  4 active torsions:
REMARK  status: ('A' for Active; 'I' for Inactive)
REMARK    1  A    between atoms: C_4  and  N_19
REMARK    2  A    between atoms: C_5  and  N_11
REMARK    3  A    between atoms: C_20  and  C_23
REMARK    4  A    between atoms: C_23  and  N_25
REMARK                            x       y       z     vdW  Elec       q    Type
REMARK                         _______ _______ _______ _____ _____    ______ ____
ROOT
ATOM      1  F   UNL     1      33.997  -8.857 -23.657  0.00  0.00    -0.200 F 
ATOM      2  F   UNL     1      34.798 -11.242 -24.680  0.00  0.00    -0.200 F 
ATOM      3  F   UNL     1      31.722 -13.491 -21.844  0.00  0.00    -0.203 F 
ATOM      4  C   UNL     1      32.448  -9.949 -22.226  0.00  0.00    +0.089 C 
ATOM      5  C   UNL     1      33.272 -12.399 -23.275  0.00  0.00    +0.110 C 
ATOM      6  C   UNL     1      33.436  -9.990 -23.209  0.00  0.00    +0.182 C 
ATOM      7  C   UNL     1      31.870 -11.134 -21.768  0.00  0.00    +0.048 C 
ATOM      8  C   UNL     1      33.848 -11.215 -23.734  0.00  0.00    +0.184 C 
ATOM      9  C   UNL     1      32.283 -12.358 -22.293  0.00  0.00    +0.157 C 
ENDROOT
BRANCH   5  11
ATOM     10  O   UNL     1      34.816 -17.251 -25.337  0.00  0.00    -0.291 OA
ATOM     11  N   UNL     1      33.693 -13.646 -23.807  0.00  0.00    -0.282 N 
ATOM     12  C   UNL     1      33.404 -13.912 -25.227  0.00  0.00    +0.104 C 
ATOM     13  C   UNL     1      33.274 -15.412 -25.486  0.00  0.00    +0.091 C 
ATOM     14  C   UNL     1      34.506 -14.532 -23.116  0.00  0.00    +0.068 C 
ATOM     15  C   UNL     1      34.395 -16.205 -24.848  0.00  0.00    +0.176 C 
ATOM     16  C   UNL     1      34.915 -15.730 -23.546  0.00  0.00    +0.054 C 
ENDBRANCH   5  11
BRANCH   4  19
ATOM     17  O   UNL     1      31.629  -6.986 -20.275  0.00  0.00    -0.434 OA
ATOM     18  O   UNL     1      32.688  -8.800 -19.420  0.00  0.00    -0.226 OA
ATOM     19  N   UNL     1      32.024  -8.700 -21.689  0.00  0.00    -0.219 N 
ATOM     20  C   UNL     1      31.301  -6.504 -21.585  0.00  0.00    +0.210 C 
ATOM     21  C   UNL     1      31.248  -7.752 -22.442  0.00  0.00    +0.147 C 
ATOM     22  C   UNL     1      32.182  -8.242 -20.384  0.00  0.00    +0.409 C 
BRANCH  20  23
ATOM     23  C   UNL     1      32.373  -5.518 -22.029  0.00  0.00    +0.134 C 
BRANCH  23  25
ATOM     24  O   UNL     1      29.845  -2.259 -23.303  0.00  0.00    -0.349 OA
ATOM     25  N   UNL     1      32.052  -4.998 -23.335  0.00  0.00    -0.312 N 
ATOM     26  N   UNL     1      30.567  -3.221 -22.609  0.00  0.00    -0.062 NA
ATOM     27  C   UNL     1      31.203  -3.924 -23.551  0.00  0.00    +0.171 C 
ATOM     28  C   UNL     1      30.922  -3.456 -24.845  0.00  0.00    +0.081 C 
ATOM     29  C   UNL     1      30.064  -2.409 -24.635  0.00  0.00    +0.215 C 
ATOM     30  H   UNL     1      32.460  -5.434 -24.119  0.00  0.00    +0.148 HD
ENDBRANCH  23  25
ENDBRANCH  20  23
ENDBRANCH   4  19
TORSDOF 4
ENDMDL
MODEL 8
REMARK VINA RESULT:     -10.4     16.030     18.470
REMARK  Name = 25184541
REMARK  4 active torsions:
REMARK  status: ('A' for Active; 'I' for Inactive)
REMARK    1  A    between atoms: C_4  and  N_19
REMARK    2  A    between atoms: C_5  and  N_11
REMARK    3  A    between atoms: C_20  and  C_23
REMARK    4  A    between atoms: C_23  and  N_25
REMARK                            x       y       z     vdW  Elec       q    Type
REMARK                         _______ _______ _______ _____ _____    ______ ____
ROOT
ATOM      1  F   UNL     1      30.991 -11.237 -20.636  0.00  0.00    -0.200 F 
ATOM      2  F   UNL     1      31.717 -13.680 -21.575  0.00  0.00    -0.200 F 
ATOM      3  F   UNL     1      34.590 -11.609 -24.740  0.00  0.00    -0.203 F 
ATOM      4  C   UNL     1      32.419 -10.169 -22.205  0.00  0.00    +0.089 C 
ATOM      5  C   UNL     1      33.162 -12.678 -23.171  0.00  0.00    +0.110 C 
ATOM      6  C   UNL     1      31.873 -11.323 -21.642  0.00  0.00    +0.182 C 
ATOM      7  C   UNL     1      33.337 -10.270 -23.250  0.00  0.00    +0.048 C 
ATOM      8  C   UNL     1      32.246 -12.578 -22.125  0.00  0.00    +0.184 C 
ATOM      9  C   UNL     1      33.708 -11.524 -23.733  0.00  0.00    +0.157 C 
ENDROOT
BRANCH   5  11
ATOM     10  O   UNL     1      34.705 -17.593 -25.081  0.00  0.00    -0.291 OA
ATOM     11  N   UNL     1      33.539 -13.955 -23.665  0.00  0.00    -0.282 N 
ATOM     12  C   UNL     1      34.228 -14.867 -22.735  0.00  0.00    +0.104 C 
ATOM     13  C   UNL     1      35.132 -15.838 -23.493  0.00  0.00    +0.091 C 
ATOM     14  C   UNL     1      33.136 -14.442 -24.899  0.00  0.00    +0.068 C 
ATOM     15  C   UNL     1      34.437 -16.460 -24.685  0.00  0.00    +0.176 C 
ATOM     16  C   UNL     1      33.476 -15.619 -25.435  0.00  0.00    +0.054 C 
ENDBRANCH   5  11
BRANCH   4  19
ATOM     17  O   UNL     1      31.708  -7.110 -20.363  0.00  0.00    -0.434 OA
ATOM     18  O   UNL     1      32.694  -8.932 -19.439  0.00  0.00    -0.226 OA
ATOM     19  N   UNL     1      32.042  -8.887 -21.713  0.00  0.00    -0.219 N 
ATOM     20  C   UNL     1      31.402  -6.663 -21.690  0.00  0.00    +0.210 C 
ATOM     21  C   UNL     1      31.304  -7.936 -22.503  0.00  0.00    +0.147 C 
ATOM     22  C   UNL     1      32.213  -8.389 -20.425  0.00  0.00    +0.409 C 
BRANCH  20  23
ATOM     23  C   UNL     1      32.513  -5.734 -22.164  0.00  0.00    +0.134 C 
BRANCH  23  25
ATOM     24  O   UNL     1      31.347  -1.899 -23.768  0.00  0.00    -0.349 OA
ATOM     25  N   UNL     1      32.244  -5.292 -23.508  0.00  0.00    -0.312 N 
ATOM     26  N   UNL     1      31.716  -2.982 -22.980  0.00  0.00    -0.062 NA
ATOM     27  C   UNL     1      31.875  -3.996 -23.836  0.00  0.00    +0.171 C 
ATOM     28  C   UNL     1      31.623  -3.616 -25.165  0.00  0.00    +0.081 C 
ATOM     29  C   UNL     1      31.296  -2.289 -25.068  0.00  0.00    +0.215 C 
ATOM     30  H   UNL     1      32.326  -5.950 -24.237  0.00  0.00    +0.148 HD
ENDBRANCH  23  25
ENDBRANCH  20  23
ENDBRANCH   4  19
TORSDOF 4
ENDMDL
MODEL 9
REMARK VINA RESULT:     -10.4      5.308      7.065
REMARK  Name = 25184541
REMARK  4 active torsions:
REMARK  status: ('A' for Active; 'I' for Inactive)
REMARK    1  A    between atoms: C_4  and  N_19
REMARK    2  A    between atoms: C_5  and  N_11
REMARK    3  A    between atoms: C_20  and  C_23
REMARK    4  A    between atoms: C_23  and  N_25
REMARK                            x       y       z     vdW  Elec       q    Type
REMARK                         _______ _______ _______ _____ _____    ______ ____
ROOT
ATOM      1  F   UNL     1      37.005 -22.263 -18.005  0.00  0.00    -0.200 F 
ATOM      2  F   UNL     1      37.182 -20.641 -20.176  0.00  0.00    -0.200 F 
ATOM      3  F   UNL     1      32.443 -20.491 -20.450  0.00  0.00    -0.203 F 
ATOM      4  C   UNL     1      34.633 -22.210 -18.113  0.00  0.00    +0.089 C 
ATOM      5  C   UNL     1      34.815 -20.545 -20.343  0.00  0.00    +0.110 C 
ATOM      6  C   UNL     1      35.884 -21.832 -18.601  0.00  0.00    +0.182 C 
ATOM      7  C   UNL     1      33.473 -21.754 -18.740  0.00  0.00    +0.048 C 
ATOM      8  C   UNL     1      35.975 -20.999 -19.717  0.00  0.00    +0.184 C 
ATOM      9  C   UNL     1      33.565 -20.923 -19.855  0.00  0.00    +0.157 C 
ENDROOT
BRANCH   5  11
ATOM     10  O   UNL     1      35.108 -17.223 -24.709  0.00  0.00    -0.291 OA
ATOM     11  N   UNL     1      34.907 -19.700 -21.481  0.00  0.00    -0.282 N 
ATOM     12  C   UNL     1      35.522 -18.374 -21.294  0.00  0.00    +0.104 C 
ATOM     13  C   UNL     1      34.979 -17.372 -22.312  0.00  0.00    +0.091 C 
ATOM     14  C   UNL     1      34.619 -20.124 -22.769  0.00  0.00    +0.068 C 
ATOM     15  C   UNL     1      34.960 -17.935 -23.718  0.00  0.00    +0.176 C 
ATOM     16  C   UNL     1      34.658 -19.376 -23.876  0.00  0.00    +0.054 C 
ENDBRANCH   5  11
BRANCH   4  19
ATOM     17  O   UNL     1      33.830 -24.615 -15.501  0.00  0.00    -0.434 OA
ATOM     18  O   UNL     1      32.577 -24.324 -17.368  0.00  0.00    -0.226 OA
ATOM     19  N   UNL     1      34.537 -23.059 -16.974  0.00  0.00    -0.219 N 
ATOM     20  C   UNL     1      35.133 -24.213 -15.058  0.00  0.00    +0.210 C 
ATOM     21  C   UNL     1      35.425 -22.954 -15.847  0.00  0.00    +0.147 C 
ATOM     22  C   UNL     1      33.561 -24.016 -16.710  0.00  0.00    +0.409 C 
BRANCH  20  23
ATOM     23  C   UNL     1      36.118 -25.340 -15.341  0.00  0.00    +0.134 C 
BRANCH  23  25
ATOM     24  O   UNL     1      39.755 -27.376 -14.217  0.00  0.00    -0.349 OA
ATOM     25  N   UNL     1      37.467 -24.871 -15.153  0.00  0.00    -0.312 N 
ATOM     26  N   UNL     1      38.459 -27.004 -14.552  0.00  0.00    -0.062 NA
ATOM     27  C   UNL     1      38.525 -25.689 -14.784  0.00  0.00    +0.171 C 
ATOM     28  C   UNL     1      39.824 -25.182 -14.613  0.00  0.00    +0.081 C 
ATOM     29  C   UNL     1      40.559 -26.282 -14.257  0.00  0.00    +0.215 C 
ATOM     30  H   UNL     1      37.649 -23.913 -15.294  0.00  0.00    +0.148 HD
ENDBRANCH  23  25
ENDBRANCH  20  23
ENDBRANCH   4  19
TORSDOF 4
ENDMDL
