MODEL 1
REMARK VINA RESULT:     -11.7      0.000      0.000
REMARK  Name = 118161062
REMARK  4 active torsions:
REMARK  status: ('A' for Active; 'I' for Inactive)
REMARK    1  A    between atoms: N_1  and  C_26
REMARK    2  A    between atoms: C_7  and  C_15
REMARK    3  A    between atoms: C_21  and  N_28
REMARK    4  A    between atoms: N_27  and  C_35
REMARK                            x       y       z     vdW  Elec       q    Type
REMARK                         _______ _______ _______ _____ _____    ______ ____
ROOT
ATOM      1  N   UNL     1      36.337 -23.044 -17.256  0.00  0.00    -0.286 N 
ATOM      2  N   UNL     1      35.186 -24.164 -13.922  0.00  0.00    -0.260 N 
ATOM      3  N   UNL     1      34.196 -23.402 -16.392  0.00  0.00    -0.384 NA
ATOM      4  N   UNL     1      37.297 -23.878 -14.579  0.00  0.00    -0.224 NA
ATOM      5  C   UNL     1      35.504 -23.409 -16.225  0.00  0.00    +0.216 C 
ATOM      6  C   UNL     1      36.036 -23.808 -14.936  0.00  0.00    +0.180 C 
ATOM      7  C   UNL     1      33.361 -23.777 -15.340  0.00  0.00    +0.162 C 
ATOM      8  C   UNL     1      33.822 -24.146 -14.124  0.00  0.00    +0.159 C 
ATOM      9  C   UNL     1      35.958 -24.481 -12.840  0.00  0.00    +0.088 C 
ATOM     10  C   UNL     1      37.256 -24.298 -13.270  0.00  0.00    +0.117 C 
ATOM     11  H   UNL     1      37.223 -23.471 -17.270  0.00  0.00    +0.155 HD
ENDROOT
BRANCH   7  15
ATOM     12  N   UNL     1      31.138 -24.584 -14.875  0.00  0.00    -0.386 NA
ATOM     13  N   UNL     1      30.037 -22.813 -16.751  0.00  0.00    -0.257 NA
ATOM     14  N   UNL     1      28.938 -25.390 -14.410  0.00  0.00    -0.335 N 
ATOM     15  C   UNL     1      31.902 -23.734 -15.589  0.00  0.00    +0.178 C 
ATOM     16  C   UNL     1      31.362 -22.864 -16.510  0.00  0.00    +0.128 C 
ATOM     17  C   UNL     1      29.813 -24.532 -15.116  0.00  0.00    +0.179 C 
ATOM     18  C   UNL     1      29.271 -23.662 -16.037  0.00  0.00    +0.199 C 
ATOM     19  H   UNL     1      29.298 -26.021 -13.746  0.00  0.00    +0.144 HD
ATOM     20  H   UNL     1      27.970 -25.355 -14.583  0.00  0.00    +0.144 HD
ENDBRANCH   7  15
BRANCH   1  26
ATOM     21  C   UNL     1      35.544 -20.322 -20.355  0.00  0.00    +0.048 C 
ATOM     22  C   UNL     1      34.536 -21.169 -19.896  0.00  0.00    +0.016 C 
ATOM     23  C   UNL     1      36.816 -20.379 -19.785  0.00  0.00    +0.016 C 
ATOM     24  C   UNL     1      34.798 -22.072 -18.866  0.00  0.00    +0.016 C 
ATOM     25  C   UNL     1      37.079 -21.282 -18.755  0.00  0.00    +0.016 C 
ATOM     26  C   UNL     1      36.071 -22.129 -18.296  0.00  0.00    +0.050 C 
BRANCH  21  28
ATOM     27  N   UNL     1      34.500 -17.541 -23.393  0.00  0.00    +0.394 N 
ATOM     28  N   UNL     1      35.280 -19.416 -21.389  0.00  0.00    -0.312 N 
ATOM     29  C   UNL     1      35.302 -17.104 -22.244  0.00  0.00    -0.055 C 
ATOM     30  C   UNL     1      34.866 -18.913 -23.765  0.00  0.00    -0.055 C 
ATOM     31  C   UNL     1      35.057 -18.009 -21.034  0.00  0.00    +0.068 C 
ATOM     32  C   UNL     1      34.607 -19.879 -22.607  0.00  0.00    +0.068 C 
ATOM     33  H   UNL     1      33.512 -17.513 -23.143  0.00  0.00    -0.079 HD
BRANCH  27  35
ATOM     34  O   UNL     1      33.276 -15.316 -25.312  0.00  0.00    -0.358 OA
ATOM     35  C   UNL     1      34.754 -16.644 -24.533  0.00  0.00    +0.002 C 
ATOM     36  C   UNL     1      33.576 -16.722 -25.505  0.00  0.00    +0.124 C 
ATOM     37  C   UNL     1      34.208 -15.254 -24.202  0.00  0.00    +0.124 C 
ENDBRANCH  27  35
ENDBRANCH  21  28
ENDBRANCH   1  26
TORSDOF 4
ENDMDL
MODEL 2
REMARK VINA RESULT:     -10.9      1.298      2.142
REMARK  Name = 118161062
REMARK  4 active torsions:
REMARK  status: ('A' for Active; 'I' for Inactive)
REMARK    1  A    between atoms: N_1  and  C_26
REMARK    2  A    between atoms: C_7  and  C_15
REMARK    3  A    between atoms: C_21  and  N_28
REMARK    4  A    between atoms: N_27  and  C_35
REMARK                            x       y       z     vdW  Elec       q    Type
REMARK                         _______ _______ _______ _____ _____    ______ ____
ROOT
ATOM      1  N   UNL     1      36.309 -23.746 -15.690  0.00  0.00    -0.286 N 
ATOM      2  N   UNL     1      34.756 -24.610 -12.443  0.00  0.00    -0.260 N 
ATOM      3  N   UNL     1      34.082 -24.108 -15.081  0.00  0.00    -0.384 NA
ATOM      4  N   UNL     1      36.928 -24.303 -12.846  0.00  0.00    -0.224 NA
ATOM      5  C   UNL     1      35.357 -24.050 -14.746  0.00  0.00    +0.216 C 
ATOM      6  C   UNL     1      35.724 -24.313 -13.367  0.00  0.00    +0.180 C 
ATOM      7  C   UNL     1      33.126 -24.420 -14.115  0.00  0.00    +0.162 C 
ATOM      8  C   UNL     1      33.431 -24.662 -12.821  0.00  0.00    +0.159 C 
ATOM      9  C   UNL     1      35.386 -24.801 -11.246  0.00  0.00    +0.088 C 
ATOM     10  C   UNL     1      36.725 -24.607 -11.520  0.00  0.00    +0.117 C 
ATOM     11  H   UNL     1      37.200 -24.139 -15.550  0.00  0.00    +0.155 HD
ENDROOT
BRANCH   7  15
ATOM     12  N   UNL     1      31.329 -23.526 -15.452  0.00  0.00    -0.386 NA
ATOM     13  N   UNL     1      29.546 -25.443 -14.445  0.00  0.00    -0.257 NA
ATOM     14  N   UNL     1      29.555 -22.635 -16.777  0.00  0.00    -0.335 N 
ATOM     15  C   UNL     1      31.712 -24.455 -14.554  0.00  0.00    +0.178 C 
ATOM     16  C   UNL     1      30.837 -25.397 -14.060  0.00  0.00    +0.128 C 
ATOM     17  C   UNL     1      30.039 -23.573 -15.838  0.00  0.00    +0.179 C 
ATOM     18  C   UNL     1      29.163 -24.514 -15.344  0.00  0.00    +0.199 C 
ATOM     19  H   UNL     1      30.159 -21.951 -17.147  0.00  0.00    +0.144 HD
ATOM     20  H   UNL     1      28.613 -22.665 -17.062  0.00  0.00    +0.144 HD
ENDBRANCH   7  15
BRANCH   1  26
ATOM     21  C   UNL     1      35.859 -21.335 -19.100  0.00  0.00    +0.048 C 
ATOM     22  C   UNL     1      37.030 -21.264 -18.345  0.00  0.00    +0.016 C 
ATOM     23  C   UNL     1      34.838 -22.207 -18.722  0.00  0.00    +0.016 C 
ATOM     24  C   UNL     1      37.180 -22.065 -17.213  0.00  0.00    +0.016 C 
ATOM     25  C   UNL     1      34.988 -23.008 -17.590  0.00  0.00    +0.016 C 
ATOM     26  C   UNL     1      36.158 -22.938 -16.835  0.00  0.00    +0.050 C 
BRANCH  21  28
ATOM     27  N   UNL     1      35.347 -18.690 -22.385  0.00  0.00    +0.394 N 
ATOM     28  N   UNL     1      35.709 -20.531 -20.235  0.00  0.00    -0.312 N 
ATOM     29  C   UNL     1      36.697 -19.020 -21.913  0.00  0.00    -0.055 C 
ATOM     30  C   UNL     1      34.474 -19.863 -22.259  0.00  0.00    -0.055 C 
ATOM     31  C   UNL     1      36.672 -19.442 -20.442  0.00  0.00    +0.068 C 
ATOM     32  C   UNL     1      34.373 -20.314 -20.801  0.00  0.00    +0.068 C 
ATOM     33  H   UNL     1      34.971 -17.929 -21.820  0.00  0.00    -0.079 HD
BRANCH  27  35
ATOM     34  O   UNL     1      33.771 -17.367 -24.814  0.00  0.00    -0.358 OA
ATOM     35  C   UNL     1      35.411 -18.280 -23.798  0.00  0.00    +0.002 C 
ATOM     36  C   UNL     1      34.139 -18.737 -24.512  0.00  0.00    +0.124 C 
ATOM     37  C   UNL     1      34.817 -16.877 -23.936  0.00  0.00    +0.124 C 
ENDBRANCH  27  35
ENDBRANCH  21  28
ENDBRANCH   1  26
TORSDOF 4
ENDMDL
MODEL 3
REMARK VINA RESULT:     -10.6      1.119      1.640
REMARK  Name = 118161062
REMARK  4 active torsions:
REMARK  status: ('A' for Active; 'I' for Inactive)
REMARK    1  A    between atoms: N_1  and  C_26
REMARK    2  A    between atoms: C_7  and  C_15
REMARK    3  A    between atoms: C_21  and  N_28
REMARK    4  A    between atoms: N_27  and  C_35
REMARK                            x       y       z     vdW  Elec       q    Type
REMARK                         _______ _______ _______ _____ _____    ______ ____
ROOT
ATOM      1  N   UNL     1      35.212 -23.545 -17.109  0.00  0.00    -0.286 N 
ATOM      2  N   UNL     1      33.925 -24.436 -13.755  0.00  0.00    -0.260 N 
ATOM      3  N   UNL     1      33.071 -23.416 -16.183  0.00  0.00    -0.384 NA
ATOM      4  N   UNL     1      36.027 -24.633 -14.475  0.00  0.00    -0.224 NA
ATOM      5  C   UNL     1      34.346 -23.728 -16.057  0.00  0.00    +0.216 C 
ATOM      6  C   UNL     1      34.807 -24.266 -14.791  0.00  0.00    +0.180 C 
ATOM      7  C   UNL     1      32.201 -23.609 -15.109  0.00  0.00    +0.162 C 
ATOM      8  C   UNL     1      32.598 -24.098 -13.914  0.00  0.00    +0.159 C 
ATOM      9  C   UNL     1      34.632 -24.945 -12.702  0.00  0.00    +0.088 C 
ATOM     10  C   UNL     1      35.925 -25.058 -13.171  0.00  0.00    +0.117 C 
ATOM     11  H   UNL     1      35.974 -24.165 -17.157  0.00  0.00    +0.155 HD
ENDROOT
BRANCH   7  15
ATOM     12  N   UNL     1      30.205 -23.621 -16.461  0.00  0.00    -0.386 NA
ATOM     13  N   UNL     1      28.815 -22.137 -14.530  0.00  0.00    -0.257 NA
ATOM     14  N   UNL     1      28.232 -23.637 -17.806  0.00  0.00    -0.335 N 
ATOM     15  C   UNL     1      30.785 -23.225 -15.311  0.00  0.00    +0.178 C 
ATOM     16  C   UNL     1      30.103 -22.496 -14.362  0.00  0.00    +0.128 C 
ATOM     17  C   UNL     1      28.917 -23.262 -16.628  0.00  0.00    +0.179 C 
ATOM     18  C   UNL     1      28.234 -22.533 -15.679  0.00  0.00    +0.199 C 
ATOM     19  H   UNL     1      28.696 -24.158 -18.501  0.00  0.00    +0.144 HD
ATOM     20  H   UNL     1      27.291 -23.376 -17.932  0.00  0.00    +0.144 HD
ENDBRANCH   7  15
BRANCH   1  26
ATOM     21  C   UNL     1      34.985 -20.645 -20.139  0.00  0.00    +0.048 C 
ATOM     22  C   UNL     1      36.222 -20.989 -19.595  0.00  0.00    +0.016 C 
ATOM     23  C   UNL     1      33.823 -21.264 -19.677  0.00  0.00    +0.016 C 
ATOM     24  C   UNL     1      36.298 -21.953 -18.589  0.00  0.00    +0.016 C 
ATOM     25  C   UNL     1      33.899 -22.227 -18.672  0.00  0.00    +0.016 C 
ATOM     26  C   UNL     1      35.136 -22.572 -18.127  0.00  0.00    +0.050 C 
BRANCH  21  28
ATOM     27  N   UNL     1      34.497 -17.685 -23.148  0.00  0.00    +0.394 N 
ATOM     28  N   UNL     1      34.909 -19.678 -21.148  0.00  0.00    -0.312 N 
ATOM     29  C   UNL     1      35.056 -17.317 -21.841  0.00  0.00    -0.055 C 
ATOM     30  C   UNL     1      34.949 -19.029 -23.524  0.00  0.00    -0.055 C 
ATOM     31  C   UNL     1      34.599 -18.296 -20.758  0.00  0.00    +0.068 C 
ATOM     32  C   UNL     1      34.489 -20.067 -22.498  0.00  0.00    +0.068 C 
ATOM     33  H   UNL     1      33.479 -17.677 -23.091  0.00  0.00    -0.079 HD
BRANCH  27  35
ATOM     34  O   UNL     1      33.736 -15.097 -24.837  0.00  0.00    -0.358 OA
ATOM     35  C   UNL     1      34.949 -16.717 -24.161  0.00  0.00    +0.002 C 
ATOM     36  C   UNL     1      33.833 -16.502 -25.183  0.00  0.00    +0.124 C 
ATOM     37  C   UNL     1      34.600 -15.304 -23.690  0.00  0.00    +0.124 C 
ENDBRANCH  27  35
ENDBRANCH  21  28
ENDBRANCH   1  26
TORSDOF 4
ENDMDL
MODEL 4
REMARK VINA RESULT:      -9.8      3.886     10.866
REMARK  Name = 118161062
REMARK  4 active torsions:
REMARK  status: ('A' for Active; 'I' for Inactive)
REMARK    1  A    between atoms: N_1  and  C_26
REMARK    2  A    between atoms: C_7  and  C_15
REMARK    3  A    between atoms: C_21  and  N_28
REMARK    4  A    between atoms: N_27  and  C_35
REMARK                            x       y       z     vdW  Elec       q    Type
REMARK                         _______ _______ _______ _____ _____    ______ ____
ROOT
ATOM      1  N   UNL     1      35.083 -16.782 -23.843  0.00  0.00    -0.286 N 
ATOM      2  N   UNL     1      33.219 -13.884 -25.192  0.00  0.00    -0.260 N 
ATOM      3  N   UNL     1      33.855 -15.099 -22.787  0.00  0.00    -0.384 NA
ATOM      4  N   UNL     1      34.352 -15.406 -26.364  0.00  0.00    -0.224 NA
ATOM      5  C   UNL     1      34.314 -15.644 -23.897  0.00  0.00    +0.216 C 
ATOM      6  C   UNL     1      33.991 -15.016 -25.164  0.00  0.00    +0.180 C 
ATOM      7  C   UNL     1      33.078 -13.942 -22.854  0.00  0.00    +0.162 C 
ATOM      8  C   UNL     1      32.750 -13.336 -24.017  0.00  0.00    +0.159 C 
ATOM      9  C   UNL     1      33.076 -13.526 -26.503  0.00  0.00    +0.088 C 
ATOM     10  C   UNL     1      33.784 -14.479 -27.206  0.00  0.00    +0.117 C 
ATOM     11  H   UNL     1      35.749 -16.891 -24.559  0.00  0.00    +0.155 HD
ENDROOT
BRANCH   7  15
ATOM     12  N   UNL     1      32.247 -12.084 -21.564  0.00  0.00    -0.386 NA
ATOM     13  N   UNL     1      32.026 -13.691 -19.276  0.00  0.00    -0.257 NA
ATOM     14  N   UNL     1      31.425 -10.237 -20.292  0.00  0.00    -0.335 N 
ATOM     15  C   UNL     1      32.582 -13.388 -21.573  0.00  0.00    +0.178 C 
ATOM     16  C   UNL     1      32.474 -14.179 -20.450  0.00  0.00    +0.128 C 
ATOM     17  C   UNL     1      31.798 -11.596 -20.390  0.00  0.00    +0.179 C 
ATOM     18  C   UNL     1      31.689 -12.386 -19.266  0.00  0.00    +0.199 C 
ATOM     19  H   UNL     1      31.492  -9.650 -21.080  0.00  0.00    +0.144 HD
ATOM     20  H   UNL     1      31.096  -9.878 -19.436  0.00  0.00    +0.144 HD
ENDBRANCH   7  15
BRANCH   1  26
ATOM     21  C   UNL     1      34.919 -19.852 -20.980  0.00  0.00    +0.048 C 
ATOM     22  C   UNL     1      34.616 -20.125 -22.313  0.00  0.00    +0.016 C 
ATOM     23  C   UNL     1      35.277 -18.558 -20.597  0.00  0.00    +0.016 C 
ATOM     24  C   UNL     1      34.671 -19.107 -23.265  0.00  0.00    +0.016 C 
ATOM     25  C   UNL     1      35.333 -17.540 -21.548  0.00  0.00    +0.016 C 
ATOM     26  C   UNL     1      35.030 -17.813 -22.882  0.00  0.00    +0.050 C 
BRANCH  21  28
ATOM     27  N   UNL     1      34.816 -23.125 -18.274  0.00  0.00    +0.394 N 
ATOM     28  N   UNL     1      34.863 -20.874 -20.026  0.00  0.00    -0.312 N 
ATOM     29  C   UNL     1      35.986 -22.239 -18.308  0.00  0.00    -0.055 C 
ATOM     30  C   UNL     1      33.595 -22.349 -18.514  0.00  0.00    -0.055 C 
ATOM     31  C   UNL     1      36.113 -21.559 -19.673  0.00  0.00    +0.068 C 
ATOM     32  C   UNL     1      33.640 -21.671 -19.885  0.00  0.00    +0.068 C 
ATOM     33  H   UNL     1      34.911 -23.835 -19.000  0.00  0.00    -0.079 HD
BRANCH  27  35
ATOM     34  O   UNL     1      34.397 -22.675 -15.151  0.00  0.00    -0.358 OA
ATOM     35  C   UNL     1      34.731 -23.770 -16.952  0.00  0.00    +0.002 C 
ATOM     36  C   UNL     1      35.569 -22.974 -15.952  0.00  0.00    +0.124 C 
ATOM     37  C   UNL     1      33.533 -23.194 -16.195  0.00  0.00    +0.124 C 
ENDBRANCH  27  35
ENDBRANCH  21  28
ENDBRANCH   1  26
TORSDOF 4
ENDMDL
