MODEL 1
REMARK VINA RESULT:     -12.5      0.000      0.000
REMARK  Name = 46937081
REMARK  6 active torsions:
REMARK  status: ('A' for Active; 'I' for Inactive)
REMARK    1  A    between atoms: N_1  and  C_10
REMARK    2  A    between atoms: C_4  and  C_16
REMARK    3  A    between atoms: C_9  and  C_31
REMARK    4  A    between atoms: C_16  and  C_17
REMARK    5  A    between atoms: C_18  and  N_23
REMARK    6  A    between atoms: C_31  and  N_32
REMARK                            x       y       z     vdW  Elec       q    Type
REMARK                         _______ _______ _______ _____ _____    ______ ____
ROOT
ATOM      1  N   UNL     1      34.153 -23.639 -15.410  0.00  0.00    -0.267 N 
ATOM      2  N   UNL     1      35.199 -23.836 -13.246  0.00  0.00    -0.341 NA
ATOM      3  N   UNL     1      37.559 -23.241 -13.274  0.00  0.00    -0.188 NA
ATOM      4  C   UNL     1      34.541 -23.273 -16.672  0.00  0.00    +0.035 C 
ATOM      5  C   UNL     1      35.223 -23.552 -14.560  0.00  0.00    +0.199 C 
ATOM      6  C   UNL     1      36.320 -23.120 -15.295  0.00  0.00    +0.066 C 
ATOM      7  C   UNL     1      35.880 -22.946 -16.632  0.00  0.00    +0.016 C 
ATOM      8  C   UNL     1      37.519 -22.969 -14.599  0.00  0.00    +0.114 C 
ATOM      9  C   UNL     1      36.413 -23.652 -12.687  0.00  0.00    +0.042 C 
ENDROOT
BRANCH   1  10
ATOM     10  C   UNL     1      32.756 -24.075 -15.009  0.00  0.00    +0.079 C 
ATOM     11  C   UNL     1      32.783 -25.121 -13.881  0.00  0.00    +0.020 C 
ATOM     12  C   UNL     1      31.869 -22.877 -14.628  0.00  0.00    +0.020 C 
ATOM     13  C   UNL     1      31.372 -25.561 -13.492  0.00  0.00    +0.002 C 
ATOM     14  C   UNL     1      30.462 -23.325 -14.236  0.00  0.00    +0.002 C 
ATOM     15  C   UNL     1      30.493 -24.369 -13.123  0.00  0.00    +0.000 C 
ENDBRANCH   1  10
BRANCH   4  16
ATOM     16  C   UNL     1      33.577 -23.265 -17.843  0.00  0.00    +0.068 C 
BRANCH  16  17
ATOM     17  C   UNL     1      33.851 -22.195 -18.845  0.00  0.00    -0.016 C 
ATOM     18  C   UNL     1      34.364 -20.195 -20.721  0.00  0.00    +0.048 C 
ATOM     19  C   UNL     1      35.156 -21.966 -19.281  0.00  0.00    -0.003 C 
ATOM     20  C   UNL     1      32.803 -21.425 -19.347  0.00  0.00    -0.003 C 
ATOM     21  C   UNL     1      35.413 -20.966 -20.219  0.00  0.00    +0.014 C 
ATOM     22  C   UNL     1      33.059 -20.424 -20.285  0.00  0.00    +0.014 C 
BRANCH  18  23
ATOM     23  N   UNL     1      34.621 -19.192 -21.662  0.00  0.00    -0.312 N 
ATOM     24  N   UNL     1      35.398 -17.179 -23.534  0.00  0.00    +0.388 N 
ATOM     25  C   UNL     1      34.923 -19.556 -23.050  0.00  0.00    +0.068 C 
ATOM     26  C   UNL     1      35.225 -17.941 -21.189  0.00  0.00    +0.068 C 
ATOM     27  C   UNL     1      34.961 -16.807 -22.183  0.00  0.00    -0.056 C 
ATOM     28  C   UNL     1      34.669 -18.371 -23.984  0.00  0.00    -0.056 C 
ATOM     29  C   UNL     1      35.191 -16.069 -24.463  0.00  0.00    -0.101 C 
ATOM     30  H   UNL     1      36.395 -17.392 -23.511  0.00  0.00    -0.080 HD
ENDBRANCH  18  23
ENDBRANCH  16  17
ENDBRANCH   4  16
BRANCH   9  31
ATOM     31  C   UNL     1      36.503 -23.940 -11.225  0.00  0.00    +0.030 C 
BRANCH  31  32
ATOM     32  N   UNL     1      37.873 -24.223 -10.798  0.00  0.00    +0.390 N 
ATOM     33  H   UNL     1      37.860 -24.927 -10.058  0.00  0.00    -0.088 HD
ATOM     34  H   UNL     1      38.304 -23.369 -10.447  0.00  0.00    -0.088 HD
ATOM     35  H   UNL     1      38.411 -24.574 -11.591  0.00  0.00    -0.088 HD
ENDBRANCH  31  32
ENDBRANCH   9  31
TORSDOF 6
ENDMDL
MODEL 2
REMARK VINA RESULT:     -11.3      1.889      4.036
REMARK  Name = 46937081
REMARK  6 active torsions:
REMARK  status: ('A' for Active; 'I' for Inactive)
REMARK    1  A    between atoms: N_1  and  C_10
REMARK    2  A    between atoms: C_4  and  C_16
REMARK    3  A    between atoms: C_9  and  C_31
REMARK    4  A    between atoms: C_16  and  C_17
REMARK    5  A    between atoms: C_18  and  N_23
REMARK    6  A    between atoms: C_31  and  N_32
REMARK                            x       y       z     vdW  Elec       q    Type
REMARK                         _______ _______ _______ _____ _____    ______ ____
ROOT
ATOM      1  N   UNL     1      34.206 -23.507 -16.424  0.00  0.00    -0.267 N 
ATOM      2  N   UNL     1      32.804 -23.998 -14.524  0.00  0.00    -0.341 NA
ATOM      3  N   UNL     1      30.453 -23.509 -14.926  0.00  0.00    -0.188 NA
ATOM      4  C   UNL     1      34.027 -23.020 -17.692  0.00  0.00    +0.035 C 
ATOM      5  C   UNL     1      32.997 -23.566 -15.782  0.00  0.00    +0.199 C 
ATOM      6  C   UNL     1      32.024 -23.106 -16.660  0.00  0.00    +0.066 C 
ATOM      7  C   UNL     1      32.684 -22.762 -17.867  0.00  0.00    +0.016 C 
ATOM      8  C   UNL     1      30.712 -23.087 -16.186  0.00  0.00    +0.114 C 
ATOM      9  C   UNL     1      31.501 -23.932 -14.183  0.00  0.00    +0.042 C 
ENDROOT
BRANCH   1  10
ATOM     10  C   UNL     1      35.535 -23.920 -15.817  0.00  0.00    +0.079 C 
ATOM     11  C   UNL     1      36.136 -22.806 -14.942  0.00  0.00    +0.020 C 
ATOM     12  C   UNL     1      35.421 -25.237 -15.031  0.00  0.00    +0.020 C 
ATOM     13  C   UNL     1      37.478 -23.228 -14.345  0.00  0.00    +0.002 C 
ATOM     14  C   UNL     1      36.764 -25.649 -14.433  0.00  0.00    +0.002 C 
ATOM     15  C   UNL     1      37.362 -24.539 -13.573  0.00  0.00    +0.000 C 
ENDBRANCH   1  10
BRANCH   4  16
ATOM     16  C   UNL     1      35.183 -22.836 -18.657  0.00  0.00    +0.068 C 
BRANCH  16  17
ATOM     17  C   UNL     1      35.098 -21.591 -19.473  0.00  0.00    -0.016 C 
ATOM     18  C   UNL     1      34.938 -19.259 -20.997  0.00  0.00    +0.048 C 
ATOM     19  C   UNL     1      33.855 -21.116 -19.893  0.00  0.00    -0.003 C 
ATOM     20  C   UNL     1      36.260 -20.900 -19.814  0.00  0.00    -0.003 C 
ATOM     21  C   UNL     1      33.775 -19.950 -20.655  0.00  0.00    +0.014 C 
ATOM     22  C   UNL     1      36.181 -19.734 -20.576  0.00  0.00    +0.014 C 
BRANCH  18  23
ATOM     23  N   UNL     1      34.858 -18.090 -21.761  0.00  0.00    -0.312 N 
ATOM     24  N   UNL     1      34.937 -15.649 -23.242  0.00  0.00    +0.388 N 
ATOM     25  C   UNL     1      35.388 -18.077 -23.129  0.00  0.00    +0.068 C 
ATOM     26  C   UNL     1      34.888 -16.803 -21.057  0.00  0.00    +0.068 C 
ATOM     27  C   UNL     1      34.283 -15.700 -21.929  0.00  0.00    -0.056 C 
ATOM     28  C   UNL     1      34.768 -16.933 -23.934  0.00  0.00    -0.056 C 
ATOM     29  C   UNL     1      34.389 -14.558 -24.046  0.00  0.00    -0.101 C 
ATOM     30  H   UNL     1      35.933 -15.476 -23.109  0.00  0.00    -0.080 HD
ENDBRANCH  18  23
ENDBRANCH  16  17
ENDBRANCH   4  16
BRANCH   9  31
ATOM     31  C   UNL     1      31.169 -24.389 -12.801  0.00  0.00    +0.030 C 
BRANCH  31  32
ATOM     32  N   UNL     1      30.132 -25.421 -12.791  0.00  0.00    +0.390 N 
ATOM     33  H   UNL     1      30.377 -26.142 -12.111  0.00  0.00    -0.088 HD
ATOM     34  H   UNL     1      30.059 -25.839 -13.718  0.00  0.00    -0.088 HD
ATOM     35  H   UNL     1      29.238 -25.002 -12.535  0.00  0.00    -0.088 HD
ENDBRANCH  31  32
ENDBRANCH   9  31
TORSDOF 6
ENDMDL
