MODEL 1
REMARK VINA RESULT:     -11.1      0.000      0.000
REMARK  Name = 445579
REMARK  10 active torsions:
REMARK  status: ('A' for Active; 'I' for Inactive)
REMARK    1  A    between atoms: C_1  and  O_18
REMARK    2  A    between atoms: C_4  and  C_9
REMARK    3  A    between atoms: N_8  and  C_11
REMARK    4  A    between atoms: C_11  and  C_12
REMARK    5  A    between atoms: O_18  and  C_24
REMARK    6  A    between atoms: C_20  and  O_27
REMARK    7  A    between atoms: C_21  and  O_25
REMARK    8  A    between atoms: C_22  and  C_31
REMARK    9  A    between atoms: C_23  and  O_29
REMARK   10  A    between atoms: C_31  and  O_32
REMARK                            x       y       z     vdW  Elec       q    Type
REMARK                         _______ _______ _______ _____ _____    ______ ____
ROOT
ATOM      1  C   UNL     1      34.109 -23.615 -14.913  0.00  0.00    +0.142 C 
ATOM      2  C   UNL     1      34.302 -23.328 -16.261  0.00  0.00    +0.042 C 
ATOM      3  C   UNL     1      32.823 -23.714 -14.389  0.00  0.00    +0.037 C 
ATOM      4  C   UNL     1      33.198 -23.137 -17.093  0.00  0.00    +0.056 C 
ATOM      5  C   UNL     1      31.721 -23.523 -15.222  0.00  0.00    +0.003 C 
ATOM      6  C   UNL     1      31.908 -23.235 -16.573  0.00  0.00    +0.005 C 
ENDROOT
BRANCH   4   9
ATOM      7  O   UNL     1      33.745 -23.705 -19.314  0.00  0.00    -0.270 OA
ATOM      8  N   UNL     1      33.133 -21.523 -18.893  0.00  0.00    -0.297 N 
ATOM      9  C   UNL     1      33.394 -22.837 -18.503  0.00  0.00    +0.246 C 
ATOM     10  H   UNL     1      32.856 -20.872 -18.207  0.00  0.00    +0.150 HD
BRANCH   8  11
ATOM     11  C   UNL     1      33.251 -21.077 -20.263  0.00  0.00    +0.117 C 
BRANCH  11  12
ATOM     12  C   UNL     1      34.559 -20.387 -20.519  0.00  0.00    -0.003 C 
ATOM     13  C   UNL     1      34.588 -19.234 -21.295  0.00  0.00    -0.003 C 
ATOM     14  C   UNL     1      35.729 -20.908 -19.979  0.00  0.00    -0.003 C 
ATOM     15  C   UNL     1      35.804 -18.593 -21.534  0.00  0.00    -0.000 C 
ATOM     16  C   UNL     1      36.944 -20.267 -20.217  0.00  0.00    -0.000 C 
ATOM     17  C   UNL     1      36.982 -19.109 -20.995  0.00  0.00    -0.000 C 
ENDBRANCH  11  12
ENDBRANCH   8  11
ENDBRANCH   4   9
BRANCH   1  18
ATOM     18  O   UNL     1      35.191 -23.803 -14.097  0.00  0.00    -0.451 OA
BRANCH  18  24
ATOM     19  O   UNL     1      36.314 -25.877 -13.906  0.00  0.00    -0.316 OA
ATOM     20  C   UNL     1      37.910 -25.088 -12.232  0.00  0.00    +0.169 C 
ATOM     21  C   UNL     1      36.815 -24.216 -11.610  0.00  0.00    +0.173 C 
ATOM     22  C   UNL     1      37.625 -25.318 -13.722  0.00  0.00    +0.177 C 
ATOM     23  C   UNL     1      35.438 -24.809 -11.904  0.00  0.00    +0.210 C 
ATOM     24  C   UNL     1      35.262 -25.048 -13.406  0.00  0.00    +0.318 C 
BRANCH  21  25
ATOM     25  O   UNL     1      37.001 -24.132 -10.201  0.00  0.00    -0.379 OA
ATOM     26  H   UNL     1      36.317 -24.654  -9.752  0.00  0.00    +0.211 HD
ENDBRANCH  21  25
BRANCH  20  27
ATOM     27  O   UNL     1      37.948 -26.353 -11.567  0.00  0.00    -0.379 OA
ATOM     28  H   UNL     1      38.179 -27.046 -12.205  0.00  0.00    +0.211 HD
ENDBRANCH  20  27
BRANCH  23  29
ATOM     29  O   UNL     1      34.414 -23.933 -11.444  0.00  0.00    -0.377 OA
ATOM     30  H   UNL     1      33.698 -23.900 -12.099  0.00  0.00    +0.211 HD
ENDBRANCH  23  29
BRANCH  22  31
ATOM     31  C   UNL     1      38.619 -26.280 -14.362  0.00  0.00    +0.169 C 
BRANCH  31  32
ATOM     32  O   UNL     1      38.085 -27.591 -14.300  0.00  0.00    -0.379 OA
ATOM     33  H   UNL     1      38.683 -28.205 -14.753  0.00  0.00    +0.211 HD
ENDBRANCH  31  32
ENDBRANCH  22  31
ENDBRANCH  18  24
ENDBRANCH   1  18
TORSDOF 10
ENDMDL
MODEL 2
REMARK VINA RESULT:     -11.0      1.198      2.322
REMARK  Name = 445579
REMARK  10 active torsions:
REMARK  status: ('A' for Active; 'I' for Inactive)
REMARK    1  A    between atoms: C_1  and  O_18
REMARK    2  A    between atoms: C_4  and  C_9
REMARK    3  A    between atoms: N_8  and  C_11
REMARK    4  A    between atoms: C_11  and  C_12
REMARK    5  A    between atoms: O_18  and  C_24
REMARK    6  A    between atoms: C_20  and  O_27
REMARK    7  A    between atoms: C_21  and  O_25
REMARK    8  A    between atoms: C_22  and  C_31
REMARK    9  A    between atoms: C_23  and  O_29
REMARK   10  A    between atoms: C_31  and  O_32
REMARK                            x       y       z     vdW  Elec       q    Type
REMARK                         _______ _______ _______ _____ _____    ______ ____
ROOT
ATOM      1  C   UNL     1      34.259 -24.118 -15.045  0.00  0.00    +0.142 C 
ATOM      2  C   UNL     1      34.389 -23.758 -16.383  0.00  0.00    +0.042 C 
ATOM      3  C   UNL     1      33.019 -24.061 -14.415  0.00  0.00    +0.037 C 
ATOM      4  C   UNL     1      33.268 -23.335 -17.098  0.00  0.00    +0.056 C 
ATOM      5  C   UNL     1      31.899 -23.638 -15.131  0.00  0.00    +0.003 C 
ATOM      6  C   UNL     1      32.023 -23.276 -16.472  0.00  0.00    +0.005 C 
ENDROOT
BRANCH   4   9
ATOM      7  O   UNL     1      33.700 -23.781 -19.371  0.00  0.00    -0.270 OA
ATOM      8  N   UNL     1      33.132 -21.621 -18.799  0.00  0.00    -0.297 N 
ATOM      9  C   UNL     1      33.398 -22.958 -18.496  0.00  0.00    +0.246 C 
ATOM     10  H   UNL     1      32.896 -21.008 -18.065  0.00  0.00    +0.150 HD
BRANCH   8  11
ATOM     11  C   UNL     1      33.188 -21.100 -20.146  0.00  0.00    +0.117 C 
BRANCH  11  12
ATOM     12  C   UNL     1      34.499 -20.430 -20.436  0.00  0.00    -0.003 C 
ATOM     13  C   UNL     1      34.526 -19.275 -21.210  0.00  0.00    -0.003 C 
ATOM     14  C   UNL     1      35.676 -20.972 -19.929  0.00  0.00    -0.003 C 
ATOM     15  C   UNL     1      35.745 -18.653 -21.480  0.00  0.00    -0.000 C 
ATOM     16  C   UNL     1      36.894 -20.348 -20.199  0.00  0.00    -0.000 C 
ATOM     17  C   UNL     1      36.929 -19.190 -20.974  0.00  0.00    -0.000 C 
ENDBRANCH  11  12
ENDBRANCH   8  11
ENDBRANCH   4   9
BRANCH   1  18
ATOM     18  O   UNL     1      35.358 -24.533 -14.343  0.00  0.00    -0.451 OA
BRANCH  18  24
ATOM     19  O   UNL     1      35.961 -23.425 -12.342  0.00  0.00    -0.316 OA
ATOM     20  C   UNL     1      37.839 -24.909 -11.848  0.00  0.00    +0.169 C 
ATOM     21  C   UNL     1      38.146 -25.006 -13.346  0.00  0.00    +0.173 C 
ATOM     22  C   UNL     1      36.350 -24.610 -11.629  0.00  0.00    +0.177 C 
ATOM     23  C   UNL     1      37.640 -23.759 -14.070  0.00  0.00    +0.210 C 
ATOM     24  C   UNL     1      36.163 -23.513 -13.755  0.00  0.00    +0.318 C 
BRANCH  21  25
ATOM     25  O   UNL     1      39.550 -25.131 -13.549  0.00  0.00    -0.379 OA
ATOM     26  H   UNL     1      39.912 -24.280 -13.843  0.00  0.00    +0.211 HD
ENDBRANCH  21  25
BRANCH  20  27
ATOM     27  O   UNL     1      38.613 -23.856 -11.269  0.00  0.00    -0.379 OA
ATOM     28  H   UNL     1      38.034 -23.278 -10.748  0.00  0.00    +0.211 HD
ENDBRANCH  20  27
BRANCH  23  29
ATOM     29  O   UNL     1      37.803 -23.904 -15.477  0.00  0.00    -0.377 OA
ATOM     30  H   UNL     1      37.744 -23.033 -15.901  0.00  0.00    +0.211 HD
ENDBRANCH  23  29
BRANCH  22  31
ATOM     31  C   UNL     1      36.014 -24.383 -10.160  0.00  0.00    +0.169 C 
BRANCH  31  32
ATOM     32  O   UNL     1      35.270 -25.493  -9.690  0.00  0.00    -0.379 OA
ATOM     33  H   UNL     1      35.636 -25.794  -8.844  0.00  0.00    +0.211 HD
ENDBRANCH  31  32
ENDBRANCH  22  31
ENDBRANCH  18  24
ENDBRANCH   1  18
TORSDOF 10
ENDMDL
MODEL 3
REMARK VINA RESULT:     -10.9      1.689      3.012
REMARK  Name = 445579
REMARK  10 active torsions:
REMARK  status: ('A' for Active; 'I' for Inactive)
REMARK    1  A    between atoms: C_1  and  O_18
REMARK    2  A    between atoms: C_4  and  C_9
REMARK    3  A    between atoms: N_8  and  C_11
REMARK    4  A    between atoms: C_11  and  C_12
REMARK    5  A    between atoms: O_18  and  C_24
REMARK    6  A    between atoms: C_20  and  O_27
REMARK    7  A    between atoms: C_21  and  O_25
REMARK    8  A    between atoms: C_22  and  C_31
REMARK    9  A    between atoms: C_23  and  O_29
REMARK   10  A    between atoms: C_31  and  O_32
REMARK                            x       y       z     vdW  Elec       q    Type
REMARK                         _______ _______ _______ _____ _____    ______ ____
ROOT
ATOM      1  C   UNL     1      33.202 -24.940 -13.817  0.00  0.00    +0.142 C 
ATOM      2  C   UNL     1      32.992 -24.177 -14.962  0.00  0.00    +0.042 C 
ATOM      3  C   UNL     1      32.123 -25.425 -13.085  0.00  0.00    +0.037 C 
ATOM      4  C   UNL     1      31.690 -23.897 -15.378  0.00  0.00    +0.056 C 
ATOM      5  C   UNL     1      30.822 -25.145 -13.502  0.00  0.00    +0.003 C 
ATOM      6  C   UNL     1      30.605 -24.381 -14.648  0.00  0.00    +0.005 C 
ENDROOT
BRANCH   4   9
ATOM      7  O   UNL     1      30.356 -22.619 -16.842  0.00  0.00    -0.270 OA
ATOM      8  N   UNL     1      32.580 -22.884 -17.387  0.00  0.00    -0.297 N 
ATOM      9  C   UNL     1      31.465 -23.101 -16.575  0.00  0.00    +0.246 C 
ATOM     10  H   UNL     1      33.440 -23.290 -17.128  0.00  0.00    +0.150 HD
BRANCH   8  11
ATOM     11  C   UNL     1      32.525 -22.089 -18.592  0.00  0.00    +0.117 C 
BRANCH  11  12
ATOM     12  C   UNL     1      33.894 -21.711 -19.079  0.00  0.00    -0.003 C 
ATOM     13  C   UNL     1      35.015 -22.285 -18.492  0.00  0.00    -0.003 C 
ATOM     14  C   UNL     1      34.027 -20.791 -20.113  0.00  0.00    -0.003 C 
ATOM     15  C   UNL     1      36.288 -21.934 -18.944  0.00  0.00    -0.000 C 
ATOM     16  C   UNL     1      35.299 -20.441 -20.566  0.00  0.00    -0.000 C 
ATOM     17  C   UNL     1      36.429 -21.013 -19.981  0.00  0.00    -0.000 C 
ENDBRANCH  11  12
ENDBRANCH   8  11
ENDBRANCH   4   9
BRANCH   1  18
ATOM     18  O   UNL     1      34.478 -25.215 -13.409  0.00  0.00    -0.451 OA
BRANCH  18  24
ATOM     19  O   UNL     1      36.283 -23.685 -13.479  0.00  0.00    -0.316 OA
ATOM     20  C   UNL     1      37.952 -25.309 -12.737  0.00  0.00    +0.169 C 
ATOM     21  C   UNL     1      37.229 -26.402 -13.530  0.00  0.00    +0.173 C 
ATOM     22  C   UNL     1      36.964 -24.208 -12.328  0.00  0.00    +0.177 C 
ATOM     23  C   UNL     1      36.455 -25.785 -14.694  0.00  0.00    +0.210 C 
ATOM     24  C   UNL     1      35.534 -24.668 -14.198  0.00  0.00    +0.318 C 
BRANCH  21  25
ATOM     25  O   UNL     1      38.173 -27.340 -14.038  0.00  0.00    -0.379 OA
ATOM     26  H   UNL     1      38.139 -28.153 -13.509  0.00  0.00    +0.211 HD
ENDBRANCH  21  25
BRANCH  20  27
ATOM     27  O   UNL     1      38.979 -24.731 -13.547  0.00  0.00    -0.379 OA
ATOM     28  H   UNL     1      39.807 -24.699 -13.043  0.00  0.00    +0.211 HD
ENDBRANCH  20  27
BRANCH  23  29
ATOM     29  O   UNL     1      35.676 -26.779 -15.353  0.00  0.00    -0.377 OA
ATOM     30  H   UNL     1      34.753 -26.714 -15.060  0.00  0.00    +0.211 HD
ENDBRANCH  23  29
BRANCH  22  31
ATOM     31  C   UNL     1      37.653 -23.036 -11.640  0.00  0.00    +0.169 C 
BRANCH  31  32
ATOM     32  O   UNL     1      38.901 -23.477 -11.135  0.00  0.00    -0.379 OA
ATOM     33  H   UNL     1      39.443 -22.710 -10.896  0.00  0.00    +0.211 HD
ENDBRANCH  31  32
ENDBRANCH  22  31
ENDBRANCH  18  24
ENDBRANCH   1  18
TORSDOF 10
ENDMDL
MODEL 4
REMARK VINA RESULT:     -10.8      1.923      2.407
REMARK  Name = 445579
REMARK  10 active torsions:
REMARK  status: ('A' for Active; 'I' for Inactive)
REMARK    1  A    between atoms: C_1  and  O_18
REMARK    2  A    between atoms: C_4  and  C_9
REMARK    3  A    between atoms: N_8  and  C_11
REMARK    4  A    between atoms: C_11  and  C_12
REMARK    5  A    between atoms: O_18  and  C_24
REMARK    6  A    between atoms: C_20  and  O_27
REMARK    7  A    between atoms: C_21  and  O_25
REMARK    8  A    between atoms: C_22  and  C_31
REMARK    9  A    between atoms: C_23  and  O_29
REMARK   10  A    between atoms: C_31  and  O_32
REMARK                            x       y       z     vdW  Elec       q    Type
REMARK                         _______ _______ _______ _____ _____    ______ ____
ROOT
ATOM      1  C   UNL     1      32.679 -24.450 -13.361  0.00  0.00    +0.142 C 
ATOM      2  C   UNL     1      32.521 -23.672 -14.503  0.00  0.00    +0.042 C 
ATOM      3  C   UNL     1      31.760 -25.449 -13.054  0.00  0.00    +0.037 C 
ATOM      4  C   UNL     1      31.431 -23.894 -15.346  0.00  0.00    +0.056 C 
ATOM      5  C   UNL     1      30.672 -25.671 -13.897  0.00  0.00    +0.003 C 
ATOM      6  C   UNL     1      30.507 -24.894 -15.043  0.00  0.00    +0.005 C 
ENDROOT
BRANCH   4   9
ATOM      7  O   UNL     1      30.176 -22.561 -16.830  0.00  0.00    -0.270 OA
ATOM      8  N   UNL     1      32.400 -22.902 -17.329  0.00  0.00    -0.297 N 
ATOM      9  C   UNL     1      31.261 -23.084 -16.542  0.00  0.00    +0.246 C 
ATOM     10  H   UNL     1      33.239 -23.340 -17.054  0.00  0.00    +0.150 HD
BRANCH   8  11
ATOM     11  C   UNL     1      32.400 -22.098 -18.530  0.00  0.00    +0.117 C 
BRANCH  11  12
ATOM     12  C   UNL     1      33.792 -21.773 -18.989  0.00  0.00    -0.003 C 
ATOM     13  C   UNL     1      33.980 -20.859 -20.019  0.00  0.00    -0.003 C 
ATOM     14  C   UNL     1      34.879 -22.390 -18.380  0.00  0.00    -0.003 C 
ATOM     15  C   UNL     1      35.273 -20.557 -20.446  0.00  0.00    -0.000 C 
ATOM     16  C   UNL     1      36.172 -22.088 -18.807  0.00  0.00    -0.000 C 
ATOM     17  C   UNL     1      36.369 -21.171 -19.840  0.00  0.00    -0.000 C 
ENDBRANCH  11  12
ENDBRANCH   8  11
ENDBRANCH   4   9
BRANCH   1  18
ATOM     18  O   UNL     1      33.747 -24.233 -12.534  0.00  0.00    -0.451 OA
BRANCH  18  24
ATOM     19  O   UNL     1      35.592 -24.785 -13.909  0.00  0.00    -0.316 OA
ATOM     20  C   UNL     1      37.153 -23.297 -12.759  0.00  0.00    +0.169 C 
ATOM     21  C   UNL     1      36.466 -23.618 -11.428  0.00  0.00    +0.173 C 
ATOM     22  C   UNL     1      36.166 -23.468 -13.922  0.00  0.00    +0.177 C 
ATOM     23  C   UNL     1      35.803 -24.993 -11.495  0.00  0.00    +0.210 C 
ATOM     24  C   UNL     1      34.876 -25.087 -12.709  0.00  0.00    +0.318 C 
BRANCH  21  25
ATOM     25  O   UNL     1      37.422 -23.607 -10.372  0.00  0.00    -0.379 OA
ATOM     26  H   UNL     1      37.708 -24.514 -10.184  0.00  0.00    +0.211 HD
ENDBRANCH  21  25
BRANCH  20  27
ATOM     27  O   UNL     1      38.256 -24.185 -12.954  0.00  0.00    -0.379 OA
ATOM     28  H   UNL     1      37.966 -25.098 -12.803  0.00  0.00    +0.211 HD
ENDBRANCH  20  27
BRANCH  23  29
ATOM     29  O   UNL     1      35.052 -25.238 -10.310  0.00  0.00    -0.377 OA
ATOM     30  H   UNL     1      35.322 -24.610  -9.620  0.00  0.00    +0.211 HD
ENDBRANCH  23  29
BRANCH  22  31
ATOM     31  C   UNL     1      36.830 -23.279 -15.280  0.00  0.00    +0.169 C 
BRANCH  31  32
ATOM     32  O   UNL     1      37.558 -24.452 -15.596  0.00  0.00    -0.379 OA
ATOM     33  H   UNL     1      37.827 -24.896 -14.778  0.00  0.00    +0.211 HD
ENDBRANCH  31  32
ENDBRANCH  22  31
ENDBRANCH  18  24
ENDBRANCH   1  18
TORSDOF 10
ENDMDL
MODEL 5
REMARK VINA RESULT:     -10.4      2.329      4.056
REMARK  Name = 445579
REMARK  10 active torsions:
REMARK  status: ('A' for Active; 'I' for Inactive)
REMARK    1  A    between atoms: C_1  and  O_18
REMARK    2  A    between atoms: C_4  and  C_9
REMARK    3  A    between atoms: N_8  and  C_11
REMARK    4  A    between atoms: C_11  and  C_12
REMARK    5  A    between atoms: O_18  and  C_24
REMARK    6  A    between atoms: C_20  and  O_27
REMARK    7  A    between atoms: C_21  and  O_25
REMARK    8  A    between atoms: C_22  and  C_31
REMARK    9  A    between atoms: C_23  and  O_29
REMARK   10  A    between atoms: C_31  and  O_32
REMARK                            x       y       z     vdW  Elec       q    Type
REMARK                         _______ _______ _______ _____ _____    ______ ____
ROOT
ATOM      1  C   UNL     1      34.873 -22.782 -17.748  0.00  0.00    +0.142 C 
ATOM      2  C   UNL     1      35.605 -21.950 -18.591  0.00  0.00    +0.042 C 
ATOM      3  C   UNL     1      33.490 -22.871 -17.871  0.00  0.00    +0.037 C 
ATOM      4  C   UNL     1      34.947 -21.200 -19.566  0.00  0.00    +0.056 C 
ATOM      5  C   UNL     1      32.833 -22.121 -18.847  0.00  0.00    +0.003 C 
ATOM      6  C   UNL     1      33.561 -21.286 -19.694  0.00  0.00    +0.005 C 
ENDROOT
BRANCH   4   9
ATOM      7  O   UNL     1      36.884 -20.024 -20.213  0.00  0.00    -0.270 OA
ATOM      8  N   UNL     1      35.044 -19.888 -21.595  0.00  0.00    -0.297 N 
ATOM      9  C   UNL     1      35.707 -20.330 -20.449  0.00  0.00    +0.246 C 
ATOM     10  H   UNL     1      34.108 -20.162 -21.735  0.00  0.00    +0.150 HD
BRANCH   8  11
ATOM     11  C   UNL     1      35.674 -19.045 -22.586  0.00  0.00    +0.117 C 
BRANCH  11  12
ATOM     12  C   UNL     1      35.214 -17.620 -22.485  0.00  0.00    -0.003 C 
ATOM     13  C   UNL     1      34.944 -17.070 -21.237  0.00  0.00    -0.003 C 
ATOM     14  C   UNL     1      35.061 -16.862 -23.642  0.00  0.00    -0.003 C 
ATOM     15  C   UNL     1      34.516 -15.746 -21.143  0.00  0.00    -0.000 C 
ATOM     16  C   UNL     1      34.634 -15.538 -23.547  0.00  0.00    -0.000 C 
ATOM     17  C   UNL     1      34.361 -14.980 -22.299  0.00  0.00    -0.000 C 
ENDBRANCH  11  12
ENDBRANCH   8  11
ENDBRANCH   4   9
BRANCH   1  18
ATOM     18  O   UNL     1      35.518 -23.517 -16.792  0.00  0.00    -0.451 OA
BRANCH  18  24
ATOM     19  O   UNL     1      34.905 -23.184 -14.531  0.00  0.00    -0.316 OA
ATOM     20  C   UNL     1      36.325 -24.977 -13.670  0.00  0.00    +0.169 C 
ATOM     21  C   UNL     1      37.382 -24.636 -14.726  0.00  0.00    +0.173 C 
ATOM     22  C   UNL     1      34.931 -24.572 -14.165  0.00  0.00    +0.177 C 
ATOM     23  C   UNL     1      37.260 -23.170 -15.140  0.00  0.00    +0.210 C 
ATOM     24  C   UNL     1      35.827 -22.847 -15.571  0.00  0.00    +0.318 C 
BRANCH  21  25
ATOM     25  O   UNL     1      38.686 -24.870 -14.203  0.00  0.00    -0.379 OA
ATOM     26  H   UNL     1      39.350 -24.537 -14.827  0.00  0.00    +0.211 HD
ENDBRANCH  21  25
BRANCH  20  27
ATOM     27  O   UNL     1      36.611 -24.269 -12.462  0.00  0.00    -0.379 OA
ATOM     28  H   UNL     1      36.248 -23.371 -12.519  0.00  0.00    +0.211 HD
ENDBRANCH  20  27
BRANCH  23  29
ATOM     29  O   UNL     1      38.150 -22.883 -16.214  0.00  0.00    -0.377 OA
ATOM     30  H   UNL     1      38.434 -21.957 -16.160  0.00  0.00    +0.211 HD
ENDBRANCH  23  29
BRANCH  22  31
ATOM     31  C   UNL     1      33.856 -24.779 -13.104  0.00  0.00    +0.169 C 
BRANCH  31  32
ATOM     32  O   UNL     1      33.953 -23.734 -12.152  0.00  0.00    -0.379 OA
ATOM     33  H   UNL     1      34.885 -23.563 -11.953  0.00  0.00    +0.211 HD
ENDBRANCH  31  32
ENDBRANCH  22  31
ENDBRANCH  18  24
ENDBRANCH   1  18
TORSDOF 10
ENDMDL
MODEL 6
REMARK VINA RESULT:     -10.2      1.781      2.702
REMARK  Name = 445579
REMARK  10 active torsions:
REMARK  status: ('A' for Active; 'I' for Inactive)
REMARK    1  A    between atoms: C_1  and  O_18
REMARK    2  A    between atoms: C_4  and  C_9
REMARK    3  A    between atoms: N_8  and  C_11
REMARK    4  A    between atoms: C_11  and  C_12
REMARK    5  A    between atoms: O_18  and  C_24
REMARK    6  A    between atoms: C_20  and  O_27
REMARK    7  A    between atoms: C_21  and  O_25
REMARK    8  A    between atoms: C_22  and  C_31
REMARK    9  A    between atoms: C_23  and  O_29
REMARK   10  A    between atoms: C_31  and  O_32
REMARK                            x       y       z     vdW  Elec       q    Type
REMARK                         _______ _______ _______ _____ _____    ______ ____
ROOT
ATOM      1  C   UNL     1      35.045 -23.028 -16.556  0.00  0.00    +0.142 C 
ATOM      2  C   UNL     1      35.896 -22.340 -17.415  0.00  0.00    +0.042 C 
ATOM      3  C   UNL     1      33.742 -23.329 -16.943  0.00  0.00    +0.037 C 
ATOM      4  C   UNL     1      35.439 -21.948 -18.674  0.00  0.00    +0.056 C 
ATOM      5  C   UNL     1      33.287 -22.938 -18.201  0.00  0.00    +0.003 C 
ATOM      6  C   UNL     1      34.134 -22.248 -19.067  0.00  0.00    +0.005 C 
ENDROOT
BRANCH   4   9
ATOM      7  O   UNL     1      37.455 -21.649 -19.858  0.00  0.00    -0.270 OA
ATOM      8  N   UNL     1      35.812 -20.056 -20.133  0.00  0.00    -0.297 N 
ATOM      9  C   UNL     1      36.324 -21.229 -19.577  0.00  0.00    +0.246 C 
ATOM     10  H   UNL     1      34.906 -19.766 -19.876  0.00  0.00    +0.150 HD
BRANCH   8  11
ATOM     11  C   UNL     1      36.557 -19.247 -21.072  0.00  0.00    +0.117 C 
BRANCH  11  12
ATOM     12  C   UNL     1      35.742 -18.897 -22.282  0.00  0.00    -0.003 C 
ATOM     13  C   UNL     1      35.665 -17.573 -22.700  0.00  0.00    -0.003 C 
ATOM     14  C   UNL     1      35.072 -19.899 -22.975  0.00  0.00    -0.003 C 
ATOM     15  C   UNL     1      34.907 -17.247 -23.825  0.00  0.00    -0.000 C 
ATOM     16  C   UNL     1      34.315 -19.573 -24.100  0.00  0.00    -0.000 C 
ATOM     17  C   UNL     1      34.233 -18.247 -24.525  0.00  0.00    -0.000 C 
ENDBRANCH  11  12
ENDBRANCH   8  11
ENDBRANCH   4   9
BRANCH   1  18
ATOM     18  O   UNL     1      35.492 -23.412 -15.321  0.00  0.00    -0.451 OA
BRANCH  18  24
ATOM     19  O   UNL     1      36.300 -25.605 -14.946  0.00  0.00    -0.316 OA
ATOM     20  C   UNL     1      36.842 -25.219 -12.594  0.00  0.00    +0.169 C 
ATOM     21  C   UNL     1      35.609 -24.319 -12.465  0.00  0.00    +0.173 C 
ATOM     22  C   UNL     1      37.349 -25.222 -14.042  0.00  0.00    +0.177 C 
ATOM     23  C   UNL     1      34.557 -24.714 -13.501  0.00  0.00    +0.210 C 
ATOM     24  C   UNL     1      35.164 -24.737 -14.906  0.00  0.00    +0.318 C 
BRANCH  21  25
ATOM     25  O   UNL     1      35.053 -24.439 -11.159  0.00  0.00    -0.379 OA
ATOM     26  H   UNL     1      35.465 -25.187 -10.699  0.00  0.00    +0.211 HD
ENDBRANCH  21  25
BRANCH  20  27
ATOM     27  O   UNL     1      36.499 -26.556 -12.221  0.00  0.00    -0.379 OA
ATOM     28  H   UNL     1      37.309 -27.075 -12.098  0.00  0.00    +0.211 HD
ENDBRANCH  20  27
BRANCH  23  29
ATOM     29  O   UNL     1      33.468 -23.798 -13.474  0.00  0.00    -0.377 OA
ATOM     30  H   UNL     1      32.946 -23.940 -12.668  0.00  0.00    +0.211 HD
ENDBRANCH  23  29
BRANCH  22  31
ATOM     31  C   UNL     1      38.502 -26.197 -14.252  0.00  0.00    +0.169 C 
BRANCH  31  32
ATOM     32  O   UNL     1      37.967 -27.488 -14.486  0.00  0.00    -0.379 OA
ATOM     33  H   UNL     1      38.359 -27.859 -15.290  0.00  0.00    +0.211 HD
ENDBRANCH  31  32
ENDBRANCH  22  31
ENDBRANCH  18  24
ENDBRANCH   1  18
TORSDOF 10
ENDMDL
MODEL 7
REMARK VINA RESULT:     -10.0     10.495     14.817
REMARK  Name = 445579
REMARK  10 active torsions:
REMARK  status: ('A' for Active; 'I' for Inactive)
REMARK    1  A    between atoms: C_1  and  O_18
REMARK    2  A    between atoms: C_4  and  C_9
REMARK    3  A    between atoms: N_8  and  C_11
REMARK    4  A    between atoms: C_11  and  C_12
REMARK    5  A    between atoms: O_18  and  C_24
REMARK    6  A    between atoms: C_20  and  O_27
REMARK    7  A    between atoms: C_21  and  O_25
REMARK    8  A    between atoms: C_22  and  C_31
REMARK    9  A    between atoms: C_23  and  O_29
REMARK   10  A    between atoms: C_31  and  O_32
REMARK                            x       y       z     vdW  Elec       q    Type
REMARK                         _______ _______ _______ _____ _____    ______ ____
ROOT
ATOM      1  C   UNL     1      32.140 -11.975 -21.594  0.00  0.00    +0.142 C 
ATOM      2  C   UNL     1      32.325 -10.596 -21.587  0.00  0.00    +0.042 C 
ATOM      3  C   UNL     1      31.599 -12.622 -20.487  0.00  0.00    +0.037 C 
ATOM      4  C   UNL     1      31.966  -9.856 -20.459  0.00  0.00    +0.056 C 
ATOM      5  C   UNL     1      31.240 -11.881 -19.361  0.00  0.00    +0.003 C 
ATOM      6  C   UNL     1      31.424 -10.499 -19.347  0.00  0.00    +0.005 C 
ENDROOT
BRANCH   4   9
ATOM      7  O   UNL     1      32.798  -7.847 -19.551  0.00  0.00    -0.270 OA
ATOM      8  N   UNL     1      31.602  -7.712 -21.517  0.00  0.00    -0.297 N 
ATOM      9  C   UNL     1      32.157  -8.414 -20.446  0.00  0.00    +0.246 C 
ATOM     10  H   UNL     1      31.102  -8.212 -22.203  0.00  0.00    +0.150 HD
BRANCH   8  11
ATOM     11  C   UNL     1      31.733  -6.280 -21.663  0.00  0.00    +0.117 C 
BRANCH  11  12
ATOM     12  C   UNL     1      32.391  -5.904 -22.959  0.00  0.00    -0.003 C 
ATOM     13  C   UNL     1      31.910  -4.820 -23.685  0.00  0.00    -0.003 C 
ATOM     14  C   UNL     1      33.474  -6.644 -23.421  0.00  0.00    -0.003 C 
ATOM     15  C   UNL     1      32.521  -4.471 -24.890  0.00  0.00    -0.000 C 
ATOM     16  C   UNL     1      34.085  -6.294 -24.625  0.00  0.00    -0.000 C 
ATOM     17  C   UNL     1      33.609  -5.208 -25.360  0.00  0.00    -0.000 C 
ENDBRANCH  11  12
ENDBRANCH   8  11
ENDBRANCH   4   9
BRANCH   1  18
ATOM     18  O   UNL     1      32.492 -12.701 -22.699  0.00  0.00    -0.451 OA
BRANCH  18  24
ATOM     19  O   UNL     1      34.461 -13.794 -21.974  0.00  0.00    -0.316 OA
ATOM     20  C   UNL     1      34.172 -15.726 -23.442  0.00  0.00    +0.169 C 
ATOM     21  C   UNL     1      33.598 -14.808 -24.525  0.00  0.00    +0.173 C 
ATOM     22  C   UNL     1      33.928 -15.125 -22.051  0.00  0.00    +0.177 C 
ATOM     23  C   UNL     1      34.132 -13.387 -24.349  0.00  0.00    +0.210 C 
ATOM     24  C   UNL     1      33.888 -12.890 -22.922  0.00  0.00    +0.318 C 
BRANCH  21  25
ATOM     25  O   UNL     1      33.960 -15.290 -25.815  0.00  0.00    -0.379 OA
ATOM     26  H   UNL     1      33.448 -14.820 -26.493  0.00  0.00    +0.211 HD
ENDBRANCH  21  25
BRANCH  20  27
ATOM     27  O   UNL     1      35.579 -15.877 -23.640  0.00  0.00    -0.379 OA
ATOM     28  H   UNL     1      36.035 -15.073 -23.346  0.00  0.00    +0.211 HD
ENDBRANCH  20  27
BRANCH  23  29
ATOM     29  O   UNL     1      33.500 -12.503 -25.269  0.00  0.00    -0.377 OA
ATOM     30  H   UNL     1      34.086 -12.353 -26.028  0.00  0.00    +0.211 HD
ENDBRANCH  23  29
BRANCH  22  31
ATOM     31  C   UNL     1      34.586 -15.940 -20.943  0.00  0.00    +0.169 C 
BRANCH  31  32
ATOM     32  O   UNL     1      34.829 -17.249 -21.427  0.00  0.00    -0.379 OA
ATOM     33  H   UNL     1      34.024 -17.596 -21.839  0.00  0.00    +0.211 HD
ENDBRANCH  31  32
ENDBRANCH  22  31
ENDBRANCH  18  24
ENDBRANCH   1  18
TORSDOF 10
ENDMDL
MODEL 8
REMARK VINA RESULT:      -9.9      2.847      5.584
REMARK  Name = 445579
REMARK  10 active torsions:
REMARK  status: ('A' for Active; 'I' for Inactive)
REMARK    1  A    between atoms: C_1  and  O_18
REMARK    2  A    between atoms: C_4  and  C_9
REMARK    3  A    between atoms: N_8  and  C_11
REMARK    4  A    between atoms: C_11  and  C_12
REMARK    5  A    between atoms: O_18  and  C_24
REMARK    6  A    between atoms: C_20  and  O_27
REMARK    7  A    between atoms: C_21  and  O_25
REMARK    8  A    between atoms: C_22  and  C_31
REMARK    9  A    between atoms: C_23  and  O_29
REMARK   10  A    between atoms: C_31  and  O_32
REMARK                            x       y       z     vdW  Elec       q    Type
REMARK                         _______ _______ _______ _____ _____    ______ ____
ROOT
ATOM      1  C   UNL     1      34.191 -24.541 -13.638  0.00  0.00    +0.142 C 
ATOM      2  C   UNL     1      34.869 -24.036 -14.744  0.00  0.00    +0.042 C 
ATOM      3  C   UNL     1      34.806 -24.578 -12.389  0.00  0.00    +0.037 C 
ATOM      4  C   UNL     1      36.174 -23.566 -14.600  0.00  0.00    +0.056 C 
ATOM      5  C   UNL     1      36.110 -24.106 -12.247  0.00  0.00    +0.003 C 
ATOM      6  C   UNL     1      36.795 -23.600 -13.351  0.00  0.00    +0.005 C 
ENDROOT
BRANCH   4   9
ATOM      7  O   UNL     1      38.120 -22.919 -15.763  0.00  0.00    -0.270 OA
ATOM      8  N   UNL     1      36.103 -22.700 -16.858  0.00  0.00    -0.297 N 
ATOM      9  C   UNL     1      36.887 -23.037 -15.752  0.00  0.00    +0.246 C 
ATOM     10  H   UNL     1      35.126 -22.814 -16.797  0.00  0.00    +0.150 HD
BRANCH   8  11
ATOM     11  C   UNL     1      36.666 -22.192 -18.088  0.00  0.00    +0.117 C 
BRANCH  11  12
ATOM     12  C   UNL     1      35.615 -21.612 -18.989  0.00  0.00    -0.003 C 
ATOM     13  C   UNL     1      34.281 -21.955 -18.800  0.00  0.00    -0.003 C 
ATOM     14  C   UNL     1      35.986 -20.737 -20.005  0.00  0.00    -0.003 C 
ATOM     15  C   UNL     1      33.304 -21.415 -19.638  0.00  0.00    -0.000 C 
ATOM     16  C   UNL     1      35.009 -20.197 -20.841  0.00  0.00    -0.000 C 
ATOM     17  C   UNL     1      33.668 -20.537 -20.658  0.00  0.00    -0.000 C 
ENDBRANCH  11  12
ENDBRANCH   8  11
ENDBRANCH   4   9
BRANCH   1  18
ATOM     18  O   UNL     1      32.911 -25.003 -13.778  0.00  0.00    -0.451 OA
BRANCH  18  24
ATOM     19  O   UNL     1      31.586 -23.189 -14.521  0.00  0.00    -0.316 OA
ATOM     20  C   UNL     1      29.805 -24.597 -15.424  0.00  0.00    +0.169 C 
ATOM     21  C   UNL     1      30.010 -25.583 -14.271  0.00  0.00    +0.173 C 
ATOM     22  C   UNL     1      31.105 -23.835 -15.711  0.00  0.00    +0.177 C 
ATOM     23  C   UNL     1      30.599 -24.862 -13.059  0.00  0.00    +0.210 C 
ATOM     24  C   UNL     1      31.863 -24.093 -13.449  0.00  0.00    +0.318 C 
BRANCH  21  25
ATOM     25  O   UNL     1      28.767 -26.176 -13.908  0.00  0.00    -0.379 OA
ATOM     26  H   UNL     1      28.052 -25.532 -14.037  0.00  0.00    +0.211 HD
ENDBRANCH  21  25
BRANCH  20  27
ATOM     27  O   UNL     1      28.786 -23.658 -15.073  0.00  0.00    -0.379 OA
ATOM     28  H   UNL     1      28.588 -23.094 -15.838  0.00  0.00    +0.211 HD
ENDBRANCH  20  27
BRANCH  23  29
ATOM     29  O   UNL     1      30.916 -25.798 -12.032  0.00  0.00    -0.377 OA
ATOM     30  H   UNL     1      31.487 -25.373 -11.373  0.00  0.00    +0.211 HD
ENDBRANCH  23  29
BRANCH  22  31
ATOM     31  C   UNL     1      30.924 -22.754 -16.770  0.00  0.00    +0.169 C 
BRANCH  31  32
ATOM     32  O   UNL     1      29.544 -22.455 -16.880  0.00  0.00    -0.379 OA
ATOM     33  H   UNL     1      29.359 -22.098 -17.762  0.00  0.00    +0.211 HD
ENDBRANCH  31  32
ENDBRANCH  22  31
ENDBRANCH  18  24
ENDBRANCH   1  18
TORSDOF 10
ENDMDL
MODEL 9
REMARK VINA RESULT:      -9.5      7.566     12.908
REMARK  Name = 445579
REMARK  10 active torsions:
REMARK  status: ('A' for Active; 'I' for Inactive)
REMARK    1  A    between atoms: C_1  and  O_18
REMARK    2  A    between atoms: C_4  and  C_9
REMARK    3  A    between atoms: N_8  and  C_11
REMARK    4  A    between atoms: C_11  and  C_12
REMARK    5  A    between atoms: O_18  and  C_24
REMARK    6  A    between atoms: C_20  and  O_27
REMARK    7  A    between atoms: C_21  and  O_25
REMARK    8  A    between atoms: C_22  and  C_31
REMARK    9  A    between atoms: C_23  and  O_29
REMARK   10  A    between atoms: C_31  and  O_32
REMARK                            x       y       z     vdW  Elec       q    Type
REMARK                         _______ _______ _______ _____ _____    ______ ____
ROOT
ATOM      1  C   UNL     1      33.437 -14.615 -23.570  0.00  0.00    +0.142 C 
ATOM      2  C   UNL     1      34.012 -15.376 -22.557  0.00  0.00    +0.042 C 
ATOM      3  C   UNL     1      33.507 -15.035 -24.895  0.00  0.00    +0.037 C 
ATOM      4  C   UNL     1      34.667 -16.567 -22.872  0.00  0.00    +0.056 C 
ATOM      5  C   UNL     1      34.161 -16.226 -25.209  0.00  0.00    +0.003 C 
ATOM      6  C   UNL     1      34.741 -16.992 -24.199  0.00  0.00    +0.005 C 
ENDROOT
BRANCH   4   9
ATOM      7  O   UNL     1      35.294 -16.985 -20.639  0.00  0.00    -0.270 OA
ATOM      8  N   UNL     1      35.791 -18.602 -22.205  0.00  0.00    -0.297 N 
ATOM      9  C   UNL     1      35.270 -17.366 -21.817  0.00  0.00    +0.246 C 
ATOM     10  H   UNL     1      35.746 -18.857 -23.155  0.00  0.00    +0.150 HD
BRANCH   8  11
ATOM     11  C   UNL     1      36.394 -19.523 -21.268  0.00  0.00    +0.117 C 
BRANCH  11  12
ATOM     12  C   UNL     1      35.367 -20.352 -20.554  0.00  0.00    -0.003 C 
ATOM     13  C   UNL     1      34.015 -20.103 -20.765  0.00  0.00    -0.003 C 
ATOM     14  C   UNL     1      35.776 -21.361 -19.689  0.00  0.00    -0.003 C 
ATOM     15  C   UNL     1      33.060 -20.873 -20.100  0.00  0.00    -0.000 C 
ATOM     16  C   UNL     1      34.821 -22.131 -19.027  0.00  0.00    -0.000 C 
ATOM     17  C   UNL     1      33.463 -21.887 -19.232  0.00  0.00    -0.000 C 
ENDBRANCH  11  12
ENDBRANCH   8  11
ENDBRANCH   4   9
BRANCH   1  18
ATOM     18  O   UNL     1      32.795 -13.447 -23.261  0.00  0.00    -0.451 OA
BRANCH  18  24
ATOM     19  O   UNL     1      33.686 -11.433 -22.395  0.00  0.00    -0.316 OA
ATOM     20  C   UNL     1      31.507 -10.452 -21.884  0.00  0.00    +0.169 C 
ATOM     21  C   UNL     1      30.983 -11.838 -21.494  0.00  0.00    +0.173 C 
ATOM     22  C   UNL     1      32.647 -10.582 -22.903  0.00  0.00    +0.177 C 
ATOM     23  C   UNL     1      32.138 -12.729 -21.039  0.00  0.00    +0.210 C 
ATOM     24  C   UNL     1      33.245 -12.760 -22.095  0.00  0.00    +0.318 C 
BRANCH  21  25
ATOM     25  O   UNL     1      30.034 -11.721 -20.439  0.00  0.00    -0.379 OA
ATOM     26  H   UNL     1      29.784 -10.790 -20.329  0.00  0.00    +0.211 HD
ENDBRANCH  21  25
BRANCH  20  27
ATOM     27  O   UNL     1      32.000  -9.783 -20.721  0.00  0.00    -0.379 OA
ATOM     28  H   UNL     1      32.970  -9.804 -20.723  0.00  0.00    +0.211 HD
ENDBRANCH  20  27
BRANCH  23  29
ATOM     29  O   UNL     1      31.676 -14.056 -20.803  0.00  0.00    -0.377 OA
ATOM     30  H   UNL     1      30.763 -14.026 -20.476  0.00  0.00    +0.211 HD
ENDBRANCH  23  29
BRANCH  22  31
ATOM     31  C   UNL     1      33.285  -9.238 -23.234  0.00  0.00    +0.169 C 
BRANCH  31  32
ATOM     32  O   UNL     1      32.278  -8.242 -23.216  0.00  0.00    -0.379 OA
ATOM     33  H   UNL     1      31.788  -8.293 -22.382  0.00  0.00    +0.211 HD
ENDBRANCH  31  32
ENDBRANCH  22  31
ENDBRANCH  18  24
ENDBRANCH   1  18
TORSDOF 10
ENDMDL
