MODEL 1
REMARK VINA RESULT:     -12.6      0.000      0.000
REMARK  Name = 10138993
REMARK  4 active torsions:
REMARK  status: ('A' for Active; 'I' for Inactive)
REMARK    1  A    between atoms: C_5  and  N_18
REMARK    2  A    between atoms: C_12  and  C_22
REMARK    3  A    between atoms: C_22  and  C_26
REMARK    4  A    between atoms: C_23  and  N_29
REMARK                            x       y       z     vdW  Elec       q    Type
REMARK                         _______ _______ _______ _____ _____    ______ ____
ROOT
ATOM      1  O   UNL     1      33.395 -21.340 -20.340  0.00  0.00    -0.274 OA
ATOM      2  N   UNL     1      32.307 -23.489 -16.895  0.00  0.00    -0.275 N 
ATOM      3  N   UNL     1      34.847 -21.895 -18.578  0.00  0.00    -0.268 N 
ATOM      4  N   UNL     1      32.726 -22.798 -17.968  0.00  0.00    -0.157 NA
ATOM      5  C   UNL     1      35.621 -23.869 -14.514  0.00  0.00    +0.069 C 
ATOM      6  C   UNL     1      35.628 -23.204 -15.746  0.00  0.00    +0.020 C 
ATOM      7  C   UNL     1      34.452 -24.451 -14.019  0.00  0.00    +0.018 C 
ATOM      8  C   UNL     1      34.431 -23.135 -16.479  0.00  0.00    +0.052 A 
ATOM      9  C   UNL     1      33.282 -23.725 -15.963  0.00  0.00    +0.077 A 
ATOM     10  C   UNL     1      33.253 -24.392 -14.737  0.00  0.00    +0.020 C 
ATOM     11  C   UNL     1      34.008 -22.594 -17.700  0.00  0.00    +0.155 A 
ATOM     12  C   UNL     1      34.497 -21.331 -19.802  0.00  0.00    +0.232 C 
ATOM     13  H   UNL     1      31.379 -23.800 -16.788  0.00  0.00    +0.189 HD
ATOM     14  H   UNL     1      35.784 -21.791 -18.300  0.00  0.00    +0.156 HD
ENDROOT
BRANCH   5  18
ATOM     15  S   UNL     1      38.099 -25.028 -14.290  0.00  0.00    +0.057 S 
ATOM     16  O   UNL     1      37.527 -26.272 -14.766  0.00  0.00    -0.154 OA
ATOM     17  O   UNL     1      39.068 -24.280 -15.062  0.00  0.00    -0.154 OA
ATOM     18  N   UNL     1      36.847 -23.952 -13.740  0.00  0.00    -0.194 N 
ATOM     19  C   UNL     1      38.754 -25.315 -12.652  0.00  0.00    +0.174 C 
ATOM     20  C   UNL     1      38.251 -24.153 -11.813  0.00  0.00    +0.051 C 
ATOM     21  C   UNL     1      36.808 -23.910 -12.250  0.00  0.00    +0.117 C 
ENDBRANCH   5  18
BRANCH  12  22
ATOM     22  C   UNL     1      35.702 -20.654 -20.451  0.00  0.00    +0.112 C 
BRANCH  22  26
ATOM     23  C   UNL     1      34.691 -17.257 -22.899  0.00  0.00    +0.048 C 
ATOM     24  C   UNL     1      34.744 -18.554 -23.447  0.00  0.00    +0.014 C 
ATOM     25  C   UNL     1      34.978 -17.102 -21.529  0.00  0.00    +0.014 C 
ATOM     26  C   UNL     1      35.352 -19.478 -21.299  0.00  0.00    -0.013 C 
ATOM     27  C   UNL     1      35.072 -19.654 -22.654  0.00  0.00    -0.003 C 
ATOM     28  C   UNL     1      35.306 -18.203 -20.737  0.00  0.00    -0.003 C 
BRANCH  23  29
ATOM     29  N   UNL     1      34.362 -16.153 -23.695  0.00  0.00    -0.307 N 
ATOM     30  C   UNL     1      33.812 -13.893 -25.405  0.00  0.00    +0.004 C 
ATOM     31  C   UNL     1      33.702 -13.788 -23.890  0.00  0.00    +0.021 C 
ATOM     32  C   UNL     1      33.519 -15.320 -25.856  0.00  0.00    +0.021 C 
ATOM     33  C   UNL     1      34.608 -14.798 -23.186  0.00  0.00    +0.091 C 
ATOM     34  C   UNL     1      34.429 -16.325 -25.154  0.00  0.00    +0.091 C 
ENDBRANCH  23  29
ENDBRANCH  22  26
ENDBRANCH  12  22
TORSDOF 4
ENDMDL
MODEL 2
REMARK VINA RESULT:     -11.9      1.288      1.709
REMARK  Name = 10138993
REMARK  4 active torsions:
REMARK  status: ('A' for Active; 'I' for Inactive)
REMARK    1  A    between atoms: C_5  and  N_18
REMARK    2  A    between atoms: C_12  and  C_22
REMARK    3  A    between atoms: C_22  and  C_26
REMARK    4  A    between atoms: C_23  and  N_29
REMARK                            x       y       z     vdW  Elec       q    Type
REMARK                         _______ _______ _______ _____ _____    ______ ____
ROOT
ATOM      1  O   UNL     1      32.956 -21.287 -19.903  0.00  0.00    -0.274 OA
ATOM      2  N   UNL     1      31.812 -23.413 -16.462  0.00  0.00    -0.275 N 
ATOM      3  N   UNL     1      34.436 -22.243 -18.351  0.00  0.00    -0.268 N 
ATOM      4  N   UNL     1      32.250 -22.745 -17.542  0.00  0.00    -0.157 NA
ATOM      5  C   UNL     1      35.205 -24.613 -14.503  0.00  0.00    +0.069 C 
ATOM      6  C   UNL     1      35.220 -23.878 -15.694  0.00  0.00    +0.020 C 
ATOM      7  C   UNL     1      33.999 -24.984 -13.904  0.00  0.00    +0.018 C 
ATOM      8  C   UNL     1      33.994 -23.520 -16.279  0.00  0.00    +0.052 A 
ATOM      9  C   UNL     1      32.809 -23.904 -15.663  0.00  0.00    +0.077 A 
ATOM     10  C   UNL     1      32.770 -24.636 -14.474  0.00  0.00    +0.020 C 
ATOM     11  C   UNL     1      33.567 -22.821 -17.416  0.00  0.00    +0.155 A 
ATOM     12  C   UNL     1      34.086 -21.536 -19.498  0.00  0.00    +0.232 C 
ATOM     13  H   UNL     1      30.856 -23.539 -16.263  0.00  0.00    +0.189 HD
ATOM     14  H   UNL     1      35.399 -22.348 -18.178  0.00  0.00    +0.156 HD
ENDROOT
BRANCH   5  18
ATOM     15  S   UNL     1      36.624 -24.789 -12.160  0.00  0.00    +0.057 S 
ATOM     16  O   UNL     1      36.022 -23.540 -11.737  0.00  0.00    -0.154 OA
ATOM     17  O   UNL     1      36.338 -26.045 -11.500  0.00  0.00    -0.154 OA
ATOM     18  N   UNL     1      36.461 -24.993 -13.881  0.00  0.00    -0.194 N 
ATOM     19  C   UNL     1      38.394 -24.553 -12.224  0.00  0.00    +0.174 C 
ATOM     20  C   UNL     1      38.827 -25.140 -13.557  0.00  0.00    +0.051 C 
ATOM     21  C   UNL     1      37.758 -24.728 -14.566  0.00  0.00    +0.117 C 
ENDBRANCH   5  18
BRANCH  12  22
ATOM     22  C   UNL     1      35.330 -21.069 -20.249  0.00  0.00    +0.112 C 
BRANCH  22  26
ATOM     23  C   UNL     1      34.674 -17.619 -22.743  0.00  0.00    +0.048 C 
ATOM     24  C   UNL     1      34.947 -17.477 -21.369  0.00  0.00    +0.014 C 
ATOM     25  C   UNL     1      34.623 -18.920 -23.280  0.00  0.00    +0.014 C 
ATOM     26  C   UNL     1      35.103 -19.875 -21.113  0.00  0.00    -0.013 C 
ATOM     27  C   UNL     1      35.159 -18.594 -20.561  0.00  0.00    -0.003 C 
ATOM     28  C   UNL     1      34.835 -20.037 -22.472  0.00  0.00    -0.003 C 
BRANCH  23  29
ATOM     29  N   UNL     1      34.462 -16.497 -23.555  0.00  0.00    -0.307 N 
ATOM     30  C   UNL     1      34.153 -14.214 -25.294  0.00  0.00    +0.004 C 
ATOM     31  C   UNL     1      34.029 -14.083 -23.781  0.00  0.00    +0.021 C 
ATOM     32  C   UNL     1      33.735 -15.612 -25.736  0.00  0.00    +0.021 C 
ATOM     33  C   UNL     1      34.824 -15.166 -23.053  0.00  0.00    +0.091 C 
ATOM     34  C   UNL     1      34.536 -16.690 -25.010  0.00  0.00    +0.091 C 
ENDBRANCH  23  29
ENDBRANCH  22  26
ENDBRANCH  12  22
TORSDOF 4
ENDMDL
MODEL 3
REMARK VINA RESULT:     -10.9      3.387      5.073
REMARK  Name = 10138993
REMARK  4 active torsions:
REMARK  status: ('A' for Active; 'I' for Inactive)
REMARK    1  A    between atoms: C_5  and  N_18
REMARK    2  A    between atoms: C_12  and  C_22
REMARK    3  A    between atoms: C_22  and  C_26
REMARK    4  A    between atoms: C_23  and  N_29
REMARK                            x       y       z     vdW  Elec       q    Type
REMARK                         _______ _______ _______ _____ _____    ______ ____
ROOT
ATOM      1  O   UNL     1      37.254 -22.333 -17.938  0.00  0.00    -0.274 OA
ATOM      2  N   UNL     1      35.369 -23.091 -14.257  0.00  0.00    -0.275 N 
ATOM      3  N   UNL     1      34.953 -22.708 -17.649  0.00  0.00    -0.268 N 
ATOM      4  N   UNL     1      35.903 -22.854 -15.467  0.00  0.00    -0.157 NA
ATOM      5  C   UNL     1      31.360 -23.592 -14.942  0.00  0.00    +0.069 C 
ATOM      6  C   UNL     1      32.289 -23.324 -15.955  0.00  0.00    +0.020 C 
ATOM      7  C   UNL     1      31.764 -23.708 -13.610  0.00  0.00    +0.018 C 
ATOM      8  C   UNL     1      33.641 -23.170 -15.604  0.00  0.00    +0.052 A 
ATOM      9  C   UNL     1      34.015 -23.289 -14.270  0.00  0.00    +0.077 A 
ATOM     10  C   UNL     1      33.106 -23.557 -13.244  0.00  0.00    +0.020 C 
ATOM     11  C   UNL     1      34.847 -22.905 -16.266  0.00  0.00    +0.155 A 
ATOM     12  C   UNL     1      36.112 -22.443 -18.373  0.00  0.00    +0.232 C 
ATOM     13  H   UNL     1      35.906 -23.118 -13.432  0.00  0.00    +0.189 HD
ATOM     14  H   UNL     1      34.117 -22.763 -18.165  0.00  0.00    +0.156 HD
ENDROOT
BRANCH   5  18
ATOM     15  S   UNL     1      29.272 -25.353 -15.211  0.00  0.00    +0.057 S 
ATOM     16  O   UNL     1      30.204 -26.331 -15.737  0.00  0.00    -0.154 OA
ATOM     17  O   UNL     1      28.606 -25.531 -13.937  0.00  0.00    -0.154 OA
ATOM     18  N   UNL     1      29.958 -23.755 -15.283  0.00  0.00    -0.194 N 
ATOM     19  C   UNL     1      28.046 -25.027 -16.469  0.00  0.00    +0.174 C 
ATOM     20  C   UNL     1      27.930 -23.513 -16.529  0.00  0.00    +0.051 C 
ATOM     21  C   UNL     1      29.353 -22.975 -16.400  0.00  0.00    +0.117 C 
ENDBRANCH   5  18
BRANCH  12  22
ATOM     22  C   UNL     1      35.802 -22.295 -19.860  0.00  0.00    +0.112 C 
BRANCH  22  26
ATOM     23  C   UNL     1      34.997 -18.245 -21.084  0.00  0.00    +0.048 C 
ATOM     24  C   UNL     1      36.319 -18.701 -20.915  0.00  0.00    +0.014 C 
ATOM     25  C   UNL     1      33.946 -19.150 -20.842  0.00  0.00    +0.014 C 
ATOM     26  C   UNL     1      35.523 -20.893 -20.284  0.00  0.00    -0.013 C 
ATOM     27  C   UNL     1      36.580 -20.012 -20.518  0.00  0.00    -0.003 C 
ATOM     28  C   UNL     1      34.207 -20.462 -20.445  0.00  0.00    -0.003 C 
BRANCH  23  29
ATOM     29  N   UNL     1      34.735 -16.927 -21.482  0.00  0.00    -0.307 N 
ATOM     30  C   UNL     1      34.342 -14.194 -22.323  0.00  0.00    +0.004 C 
ATOM     31  C   UNL     1      33.744 -14.720 -21.024  0.00  0.00    +0.021 C 
ATOM     32  C   UNL     1      34.475 -15.325 -23.336  0.00  0.00    +0.021 C 
ATOM     33  C   UNL     1      34.553 -15.888 -20.462  0.00  0.00    +0.091 C 
ATOM     34  C   UNL     1      35.288 -16.487 -22.771  0.00  0.00    +0.091 C 
ENDBRANCH  23  29
ENDBRANCH  22  26
ENDBRANCH  12  22
TORSDOF 4
ENDMDL
MODEL 4
REMARK VINA RESULT:     -10.8      2.918      4.665
REMARK  Name = 10138993
REMARK  4 active torsions:
REMARK  status: ('A' for Active; 'I' for Inactive)
REMARK    1  A    between atoms: C_5  and  N_18
REMARK    2  A    between atoms: C_12  and  C_22
REMARK    3  A    between atoms: C_22  and  C_26
REMARK    4  A    between atoms: C_23  and  N_29
REMARK                            x       y       z     vdW  Elec       q    Type
REMARK                         _______ _______ _______ _____ _____    ______ ____
ROOT
ATOM      1  O   UNL     1      37.512 -21.808 -18.348  0.00  0.00    -0.274 OA
ATOM      2  N   UNL     1      36.297 -23.029 -14.514  0.00  0.00    -0.275 N 
ATOM      3  N   UNL     1      35.385 -22.644 -17.806  0.00  0.00    -0.268 N 
ATOM      4  N   UNL     1      36.615 -22.657 -15.764  0.00  0.00    -0.157 NA
ATOM      5  C   UNL     1      32.409 -24.304 -14.740  0.00  0.00    +0.069 C 
ATOM      6  C   UNL     1      33.131 -23.827 -15.841  0.00  0.00    +0.020 C 
ATOM      7  C   UNL     1      32.994 -24.374 -13.474  0.00  0.00    +0.018 C 
ATOM      8  C   UNL     1      34.460 -23.416 -15.647  0.00  0.00    +0.052 A 
ATOM      9  C   UNL     1      35.017 -23.494 -14.375  0.00  0.00    +0.077 A 
ATOM     10  C   UNL     1      34.316 -23.967 -13.264  0.00  0.00    +0.020 C 
ATOM     11  C   UNL     1      35.497 -22.896 -16.433  0.00  0.00    +0.155 A 
ATOM     12  C   UNL     1      36.369 -22.132 -18.648  0.00  0.00    +0.232 C 
ATOM     13  H   UNL     1      36.929 -22.972 -13.761  0.00  0.00    +0.189 HD
ATOM     14  H   UNL     1      34.517 -22.850 -18.221  0.00  0.00    +0.156 HD
ENDROOT
BRANCH   5  18
ATOM     15  S   UNL     1      29.847 -23.542 -15.366  0.00  0.00    +0.057 S 
ATOM     16  O   UNL     1      30.069 -22.308 -14.639  0.00  0.00    -0.154 OA
ATOM     17  O   UNL     1      29.658 -23.568 -16.801  0.00  0.00    -0.154 OA
ATOM     18  N   UNL     1      31.033 -24.735 -14.920  0.00  0.00    -0.194 N 
ATOM     19  C   UNL     1      28.493 -24.405 -14.583  0.00  0.00    +0.174 C 
ATOM     20  C   UNL     1      28.968 -25.841 -14.433  0.00  0.00    +0.051 C 
ATOM     21  C   UNL     1      30.435 -25.758 -14.015  0.00  0.00    +0.117 C 
ENDBRANCH   5  18
BRANCH  12  22
ATOM     22  C   UNL     1      35.848 -22.008 -20.078  0.00  0.00    +0.112 C 
BRANCH  22  26
ATOM     23  C   UNL     1      34.973 -17.964 -21.275  0.00  0.00    +0.048 C 
ATOM     24  C   UNL     1      36.301 -18.426 -21.205  0.00  0.00    +0.014 C 
ATOM     25  C   UNL     1      33.939 -18.860 -20.943  0.00  0.00    +0.014 C 
ATOM     26  C   UNL     1      35.544 -20.607 -20.493  0.00  0.00    -0.013 C 
ATOM     27  C   UNL     1      36.585 -19.736 -20.817  0.00  0.00    -0.003 C 
ATOM     28  C   UNL     1      34.222 -20.169 -20.555  0.00  0.00    -0.003 C 
BRANCH  23  29
ATOM     29  N   UNL     1      34.688 -16.648 -21.665  0.00  0.00    -0.307 N 
ATOM     30  C   UNL     1      34.247 -13.918 -22.490  0.00  0.00    +0.004 C 
ATOM     31  C   UNL     1      33.678 -14.454 -21.183  0.00  0.00    +0.021 C 
ATOM     32  C   UNL     1      34.374 -15.045 -23.509  0.00  0.00    +0.021 C 
ATOM     33  C   UNL     1      34.512 -15.614 -20.639  0.00  0.00    +0.091 C 
ATOM     34  C   UNL     1      35.212 -16.198 -22.963  0.00  0.00    +0.091 C 
ENDBRANCH  23  29
ENDBRANCH  22  26
ENDBRANCH  12  22
TORSDOF 4
ENDMDL
MODEL 5
REMARK VINA RESULT:      -9.8      9.010     15.994
REMARK  Name = 10138993
REMARK  4 active torsions:
REMARK  status: ('A' for Active; 'I' for Inactive)
REMARK    1  A    between atoms: C_5  and  N_18
REMARK    2  A    between atoms: C_12  and  C_22
REMARK    3  A    between atoms: C_22  and  C_26
REMARK    4  A    between atoms: C_23  and  N_29
REMARK                            x       y       z     vdW  Elec       q    Type
REMARK                         _______ _______ _______ _____ _____    ______ ____
ROOT
ATOM      1  O   UNL     1      32.646 -11.752 -21.989  0.00  0.00    -0.274 OA
ATOM      2  N   UNL     1      31.546  -7.936 -20.611  0.00  0.00    -0.275 N 
ATOM      3  N   UNL     1      32.831  -9.763 -23.225  0.00  0.00    -0.268 N 
ATOM      4  N   UNL     1      31.919  -9.123 -21.118  0.00  0.00    -0.157 NA
ATOM      5  C   UNL     1      32.298  -5.224 -23.590  0.00  0.00    +0.069 C 
ATOM      6  C   UNL     1      32.549  -6.596 -23.714  0.00  0.00    +0.020 C 
ATOM      7  C   UNL     1      31.763  -4.695 -22.414  0.00  0.00    +0.018 C 
ATOM      8  C   UNL     1      32.252  -7.434 -22.626  0.00  0.00    +0.052 A 
ATOM      9  C   UNL     1      31.721  -6.881 -21.466  0.00  0.00    +0.077 A 
ATOM     10  C   UNL     1      31.462  -5.516 -21.322  0.00  0.00    +0.020 C 
ATOM     11  C   UNL     1      32.342  -8.801 -22.332  0.00  0.00    +0.155 A 
ATOM     12  C   UNL     1      32.948 -11.132 -23.004  0.00  0.00    +0.232 C 
ATOM     13  H   UNL     1      31.181  -7.833 -19.703  0.00  0.00    +0.189 HD
ATOM     14  H   UNL     1      33.125  -9.435 -24.105  0.00  0.00    +0.156 HD
ENDROOT
BRANCH   5  18
ATOM     15  S   UNL     1      31.606  -2.927 -24.923  0.00  0.00    +0.057 S 
ATOM     16  O   UNL     1      30.212  -3.240 -24.677  0.00  0.00    -0.154 OA
ATOM     17  O   UNL     1      32.258  -1.786 -24.316  0.00  0.00    -0.154 OA
ATOM     18  N   UNL     1      32.597  -4.340 -24.703  0.00  0.00    -0.194 N 
ATOM     19  C   UNL     1      31.853  -2.867 -26.691  0.00  0.00    +0.174 C 
ATOM     20  C   UNL     1      33.109  -3.683 -26.946  0.00  0.00    +0.051 C 
ATOM     21  C   UNL     1      33.020  -4.895 -26.021  0.00  0.00    +0.117 C 
ENDBRANCH   5  18
BRANCH  12  22
ATOM     22  C   UNL     1      33.527 -11.833 -24.231  0.00  0.00    +0.112 C 
BRANCH  22  26
ATOM     23  C   UNL     1      34.372 -16.012 -23.620  0.00  0.00    +0.048 C 
ATOM     24  C   UNL     1      34.632 -15.066 -22.610  0.00  0.00    +0.014 C 
ATOM     25  C   UNL     1      33.827 -15.554 -24.835  0.00  0.00    +0.014 C 
ATOM     26  C   UNL     1      33.819 -13.280 -24.020  0.00  0.00    -0.013 C 
ATOM     27  C   UNL     1      34.359 -13.713 -22.807  0.00  0.00    -0.003 C 
ATOM     28  C   UNL     1      33.554 -14.201 -25.033  0.00  0.00    -0.003 C 
BRANCH  23  29
ATOM     29  N   UNL     1      34.646 -17.372 -23.421  0.00  0.00    -0.307 N 
ATOM     30  C   UNL     1      35.355 -20.141 -23.021  0.00  0.00    +0.004 C 
ATOM     31  C   UNL     1      34.343 -19.725 -24.081  0.00  0.00    +0.021 C 
ATOM     32  C   UNL     1      35.340 -19.150 -21.863  0.00  0.00    +0.021 C 
ATOM     33  C   UNL     1      34.584 -18.294 -24.560  0.00  0.00    +0.091 C 
ATOM     34  C   UNL     1      35.586 -17.723 -22.346  0.00  0.00    +0.091 C 
ENDBRANCH  23  29
ENDBRANCH  22  26
ENDBRANCH  12  22
TORSDOF 4
ENDMDL
