MODEL 1
REMARK VINA RESULT:     -11.5      0.000      0.000
REMARK  Name = 9909438
REMARK  10 active torsions:
REMARK  status: ('A' for Active; 'I' for Inactive)
REMARK    1  A    between atoms: C_1  and  C_2
REMARK    2  A    between atoms: C_1  and  C_18
REMARK    3  A    between atoms: C_2  and  C_7
REMARK    4  A    between atoms: N_4  and  C_10
REMARK    5  A    between atoms: C_10  and  C_11
REMARK    6  A    between atoms: C_18  and  C_19
REMARK    7  A    between atoms: C_22  and  O_25
REMARK    8  A    between atoms: O_25  and  C_26
REMARK    9  A    between atoms: C_26  and  C_30
REMARK   10  A    between atoms: C_30  and  O_31
REMARK                            x       y       z     vdW  Elec       q    Type
REMARK                         _______ _______ _______ _____ _____    ______ ____
ROOT
ATOM      1  C   UNL     1      34.656 -22.591 -18.922  0.00  0.00    +0.014 C 
ENDROOT
BRANCH   1   2
ATOM      2  C   UNL     1      33.916 -21.490 -19.679  0.00  0.00    +0.078 C 
BRANCH   2   7
ATOM      3  O   UNL     1      37.818 -19.052 -20.741  0.00  0.00    -0.191 OA
ATOM      4  N   UNL     1      35.650 -18.981 -21.584  0.00  0.00    -0.151 N 
ATOM      5  N   UNL     1      34.513 -19.666 -21.285  0.00  0.00    -0.229 N 
ATOM      6  N   UNL     1      36.133 -20.442 -19.934  0.00  0.00    -0.308 NA
ATOM      7  C   UNL     1      34.872 -20.522 -20.288  0.00  0.00    +0.187 C 
ATOM      8  C   UNL     1      36.658 -19.444 -20.756  0.00  0.00    +0.286 C 
ATOM      9  H   UNL     1      33.625 -19.565 -21.698  0.00  0.00    +0.173 HD
BRANCH   4  10
ATOM     10  C   UNL     1      35.656 -17.966 -22.600  0.00  0.00    +0.152 C 
BRANCH  10  11
ATOM     11  C   UNL     1      34.877 -16.752 -22.187  0.00  0.00    +0.000 C 
ATOM     12  C   UNL     1      34.596 -16.542 -20.842  0.00  0.00    -0.003 C 
ATOM     13  C   UNL     1      34.443 -15.852 -23.152  0.00  0.00    -0.003 C 
ATOM     14  C   UNL     1      33.433 -14.505 -21.420  0.00  0.00    -0.022 C 
ATOM     15  C   UNL     1      33.871 -15.413 -20.457  0.00  0.00    -0.005 C 
ATOM     16  C   UNL     1      33.719 -14.724 -22.767  0.00  0.00    -0.005 C 
ATOM     17  C   UNL     1      32.658 -13.299 -21.008  0.00  0.00    +0.031 C 
ENDBRANCH  10  11
ENDBRANCH   4  10
ENDBRANCH   2   7
ENDBRANCH   1   2
BRANCH   1  18
ATOM     18  C   UNL     1      34.133 -22.770 -17.493  0.00  0.00    +0.027 C 
BRANCH  18  19
ATOM     19  C   UNL     1      35.239 -23.147 -16.540  0.00  0.00    -0.022 C 
ATOM     20  C   UNL     1      36.528 -22.700 -16.784  0.00  0.00    -0.001 C 
ATOM     21  C   UNL     1      34.948 -23.934 -15.437  0.00  0.00    -0.001 C 
ATOM     22  C   UNL     1      37.273 -23.838 -14.787  0.00  0.00    +0.139 C 
ATOM     23  C   UNL     1      37.552 -23.047 -15.902  0.00  0.00    +0.037 C 
ATOM     24  C   UNL     1      35.972 -24.282 -14.555  0.00  0.00    +0.037 C 
BRANCH  22  25
ATOM     25  O   UNL     1      38.272 -24.179 -13.927  0.00  0.00    -0.472 OA
BRANCH  25  26
ATOM     26  C   UNL     1      38.693 -25.542 -13.930  0.00  0.00    +0.221 C 
ATOM     27  C   UNL     1      38.711 -26.033 -12.486  0.00  0.00    +0.055 C 
ATOM     28  C   UNL     1      37.722 -26.335 -14.799  0.00  0.00    +0.055 C 
BRANCH  26  30
ATOM     29  O   UNL     1      41.064 -24.995 -14.015  0.00  0.00    -0.246 OA
ATOM     30  C   UNL     1      40.093 -25.537 -14.529  0.00  0.00    +0.350 C 
BRANCH  30  31
ATOM     31  O   UNL     1      40.175 -26.200 -15.711  0.00  0.00    -0.478 OA
ATOM     32  H   UNL     1      39.740 -25.862 -16.469  0.00  0.00    +0.295 HD
ENDBRANCH  30  31
ENDBRANCH  26  30
ENDBRANCH  25  26
ENDBRANCH  22  25
ENDBRANCH  18  19
ENDBRANCH   1  18
TORSDOF 10
ENDMDL
MODEL 2
REMARK VINA RESULT:     -11.4      5.380     12.958
REMARK  Name = 9909438
REMARK  10 active torsions:
REMARK  status: ('A' for Active; 'I' for Inactive)
REMARK    1  A    between atoms: C_1  and  C_2
REMARK    2  A    between atoms: C_1  and  C_18
REMARK    3  A    between atoms: C_2  and  C_7
REMARK    4  A    between atoms: N_4  and  C_10
REMARK    5  A    between atoms: C_10  and  C_11
REMARK    6  A    between atoms: C_18  and  C_19
REMARK    7  A    between atoms: C_22  and  O_25
REMARK    8  A    between atoms: O_25  and  C_26
REMARK    9  A    between atoms: C_26  and  C_30
REMARK   10  A    between atoms: C_30  and  O_31
REMARK                            x       y       z     vdW  Elec       q    Type
REMARK                         _______ _______ _______ _____ _____    ______ ____
ROOT
ATOM      1  C   UNL     1      32.735 -14.515 -20.859  0.00  0.00    +0.014 C 
ENDROOT
BRANCH   1   2
ATOM      2  C   UNL     1      34.104 -15.010 -20.398  0.00  0.00    +0.078 C 
BRANCH   2   7
ATOM      3  O   UNL     1      35.139 -17.779 -24.080  0.00  0.00    -0.191 OA
ATOM      4  N   UNL     1      35.494 -18.019 -21.793  0.00  0.00    -0.151 N 
ATOM      5  N   UNL     1      35.194 -17.239 -20.719  0.00  0.00    -0.229 N 
ATOM      6  N   UNL     1      34.463 -16.160 -22.549  0.00  0.00    -0.308 NA
ATOM      7  C   UNL     1      34.577 -16.143 -21.242  0.00  0.00    +0.187 C 
ATOM      8  C   UNL     1      35.044 -17.370 -22.930  0.00  0.00    +0.286 C 
ATOM      9  H   UNL     1      35.382 -17.426 -19.770  0.00  0.00    +0.173 HD
BRANCH   4  10
ATOM     10  C   UNL     1      36.153 -19.284 -21.628  0.00  0.00    +0.152 C 
BRANCH  10  11
ATOM     11  C   UNL     1      35.389 -20.202 -20.719  0.00  0.00    +0.000 C 
ATOM     12  C   UNL     1      36.079 -21.066 -19.878  0.00  0.00    -0.003 C 
ATOM     13  C   UNL     1      33.999 -20.178 -20.727  0.00  0.00    -0.003 C 
ATOM     14  C   UNL     1      33.975 -21.902 -19.035  0.00  0.00    -0.022 C 
ATOM     15  C   UNL     1      35.369 -21.920 -19.033  0.00  0.00    -0.005 C 
ATOM     16  C   UNL     1      33.290 -21.031 -19.882  0.00  0.00    -0.005 C 
ATOM     17  C   UNL     1      33.216 -22.815 -18.132  0.00  0.00    +0.031 C 
ENDBRANCH  10  11
ENDBRANCH   4  10
ENDBRANCH   2   7
ENDBRANCH   1   2
BRANCH   1  18
ATOM     18  C   UNL     1      32.036 -13.656 -19.799  0.00  0.00    +0.027 C 
BRANCH  18  19
ATOM     19  C   UNL     1      31.899 -12.224 -20.248  0.00  0.00    -0.022 C 
ATOM     20  C   UNL     1      31.759 -11.223 -19.298  0.00  0.00    -0.001 C 
ATOM     21  C   UNL     1      31.915 -11.930 -21.603  0.00  0.00    -0.001 C 
ATOM     22  C   UNL     1      31.648  -9.588 -21.073  0.00  0.00    +0.139 C 
ATOM     23  C   UNL     1      31.633  -9.897 -19.712  0.00  0.00    +0.037 C 
ATOM     24  C   UNL     1      31.788 -10.604 -22.018  0.00  0.00    +0.037 C 
BRANCH  22  25
ATOM     25  O   UNL     1      31.523  -8.295 -21.478  0.00  0.00    -0.472 OA
BRANCH  25  26
ATOM     26  C   UNL     1      32.697  -7.485 -21.435  0.00  0.00    +0.221 C 
ATOM     27  C   UNL     1      33.182  -7.433 -19.990  0.00  0.00    +0.055 C 
ATOM     28  C   UNL     1      33.731  -8.102 -22.372  0.00  0.00    +0.055 C 
BRANCH  26  30
ATOM     29  O   UNL     1      32.422  -5.696 -23.064  0.00  0.00    -0.246 OA
ATOM     30  C   UNL     1      32.263  -6.109 -21.922  0.00  0.00    +0.350 C 
BRANCH  30  31
ATOM     31  O   UNL     1      31.669  -5.359 -20.957  0.00  0.00    -0.478 OA
ATOM     32  H   UNL     1      30.788  -5.541 -20.699  0.00  0.00    +0.295 HD
ENDBRANCH  30  31
ENDBRANCH  26  30
ENDBRANCH  25  26
ENDBRANCH  22  25
ENDBRANCH  18  19
ENDBRANCH   1  18
TORSDOF 10
ENDMDL
MODEL 3
REMARK VINA RESULT:     -11.3      1.236      1.878
REMARK  Name = 9909438
REMARK  10 active torsions:
REMARK  status: ('A' for Active; 'I' for Inactive)
REMARK    1  A    between atoms: C_1  and  C_2
REMARK    2  A    between atoms: C_1  and  C_18
REMARK    3  A    between atoms: C_2  and  C_7
REMARK    4  A    between atoms: N_4  and  C_10
REMARK    5  A    between atoms: C_10  and  C_11
REMARK    6  A    between atoms: C_18  and  C_19
REMARK    7  A    between atoms: C_22  and  O_25
REMARK    8  A    between atoms: O_25  and  C_26
REMARK    9  A    between atoms: C_26  and  C_30
REMARK   10  A    between atoms: C_30  and  O_31
REMARK                            x       y       z     vdW  Elec       q    Type
REMARK                         _______ _______ _______ _____ _____    ______ ____
ROOT
ATOM      1  C   UNL     1      34.672 -22.399 -18.986  0.00  0.00    +0.014 C 
ENDROOT
BRANCH   1   2
ATOM      2  C   UNL     1      33.943 -21.333 -19.799  0.00  0.00    +0.078 C 
BRANCH   2   7
ATOM      3  O   UNL     1      37.882 -18.992 -20.939  0.00  0.00    -0.191 OA
ATOM      4  N   UNL     1      35.678 -18.787 -21.654  0.00  0.00    -0.151 N 
ATOM      5  N   UNL     1      34.530 -19.442 -21.331  0.00  0.00    -0.229 N 
ATOM      6  N   UNL     1      36.186 -20.359 -20.119  0.00  0.00    -0.308 NA
ATOM      7  C   UNL     1      34.905 -20.369 -20.405  0.00  0.00    +0.187 C 
ATOM      8  C   UNL     1      36.708 -19.336 -20.911  0.00  0.00    +0.286 C 
ATOM      9  H   UNL     1      33.626 -19.283 -21.687  0.00  0.00    +0.173 HD
BRANCH   4  10
ATOM     10  C   UNL     1      35.672 -17.715 -22.611  0.00  0.00    +0.152 C 
BRANCH  10  11
ATOM     11  C   UNL     1      34.831 -16.559 -22.154  0.00  0.00    +0.000 C 
ATOM     12  C   UNL     1      34.581 -16.385 -20.799  0.00  0.00    -0.003 C 
ATOM     13  C   UNL     1      34.310 -15.675 -23.092  0.00  0.00    -0.003 C 
ATOM     14  C   UNL     1      33.273 -14.418 -21.309  0.00  0.00    -0.022 C 
ATOM     15  C   UNL     1      33.799 -15.309 -20.374  0.00  0.00    -0.005 C 
ATOM     16  C   UNL     1      33.529 -14.601 -22.668  0.00  0.00    -0.005 C 
ATOM     17  C   UNL     1      32.437 -13.270 -20.855  0.00  0.00    +0.031 C 
ENDBRANCH  10  11
ENDBRANCH   4  10
ENDBRANCH   2   7
ENDBRANCH   1   2
BRANCH   1  18
ATOM     18  C   UNL     1      33.864 -22.861 -17.769  0.00  0.00    +0.027 C 
BRANCH  18  19
ATOM     19  C   UNL     1      34.756 -23.169 -16.594  0.00  0.00    -0.022 C 
ATOM     20  C   UNL     1      34.217 -23.783 -15.473  0.00  0.00    -0.001 C 
ATOM     21  C   UNL     1      36.100 -22.834 -16.653  0.00  0.00    -0.001 C 
ATOM     22  C   UNL     1      36.397 -23.738 -14.432  0.00  0.00    +0.139 C 
ATOM     23  C   UNL     1      35.042 -24.070 -14.385  0.00  0.00    +0.037 C 
ATOM     24  C   UNL     1      36.925 -23.120 -15.564  0.00  0.00    +0.037 C 
BRANCH  22  25
ATOM     25  O   UNL     1      37.202 -24.016 -13.370  0.00  0.00    -0.472 OA
BRANCH  25  26
ATOM     26  C   UNL     1      37.659 -25.361 -13.236  0.00  0.00    +0.221 C 
ATOM     27  C   UNL     1      36.839 -26.235 -14.181  0.00  0.00    +0.055 C 
ATOM     28  C   UNL     1      39.148 -25.389 -13.568  0.00  0.00    +0.055 C 
BRANCH  26  30
ATOM     29  O   UNL     1      37.646 -25.003 -10.828  0.00  0.00    -0.246 OA
ATOM     30  C   UNL     1      37.410 -25.735 -11.782  0.00  0.00    +0.350 C 
BRANCH  30  31
ATOM     31  O   UNL     1      36.892 -26.981 -11.628  0.00  0.00    -0.478 OA
ATOM     32  H   UNL     1      35.965 -27.099 -11.574  0.00  0.00    +0.295 HD
ENDBRANCH  30  31
ENDBRANCH  26  30
ENDBRANCH  25  26
ENDBRANCH  22  25
ENDBRANCH  18  19
ENDBRANCH   1  18
TORSDOF 10
ENDMDL
MODEL 4
REMARK VINA RESULT:     -10.8      2.295      3.079
REMARK  Name = 9909438
REMARK  10 active torsions:
REMARK  status: ('A' for Active; 'I' for Inactive)
REMARK    1  A    between atoms: C_1  and  C_2
REMARK    2  A    between atoms: C_1  and  C_18
REMARK    3  A    between atoms: C_2  and  C_7
REMARK    4  A    between atoms: N_4  and  C_10
REMARK    5  A    between atoms: C_10  and  C_11
REMARK    6  A    between atoms: C_18  and  C_19
REMARK    7  A    between atoms: C_22  and  O_25
REMARK    8  A    between atoms: O_25  and  C_26
REMARK    9  A    between atoms: C_26  and  C_30
REMARK   10  A    between atoms: C_30  and  O_31
REMARK                            x       y       z     vdW  Elec       q    Type
REMARK                         _______ _______ _______ _____ _____    ______ ____
ROOT
ATOM      1  C   UNL     1      34.618 -20.965 -19.869  0.00  0.00    +0.014 C 
ENDROOT
BRANCH   1   2
ATOM      2  C   UNL     1      35.842 -20.275 -20.466  0.00  0.00    +0.078 C 
BRANCH   2   7
ATOM      3  O   UNL     1      34.114 -18.761 -24.590  0.00  0.00    -0.191 OA
ATOM      4  N   UNL     1      35.202 -17.662 -22.852  0.00  0.00    -0.151 N 
ATOM      5  N   UNL     1      35.716 -18.081 -21.664  0.00  0.00    -0.229 N 
ATOM      6  N   UNL     1      34.834 -19.881 -22.681  0.00  0.00    -0.308 NA
ATOM      7  C   UNL     1      35.464 -19.419 -21.626  0.00  0.00    +0.187 C 
ATOM      8  C   UNL     1      34.660 -18.761 -23.494  0.00  0.00    +0.286 C 
ATOM      9  H   UNL     1      36.171 -17.537 -20.980  0.00  0.00    +0.173 HD
BRANCH   4  10
ATOM     10  C   UNL     1      35.291 -16.285 -23.251  0.00  0.00    +0.152 C 
BRANCH  10  11
ATOM     11  C   UNL     1      34.349 -15.412 -22.475  0.00  0.00    +0.000 C 
ATOM     12  C   UNL     1      33.619 -14.432 -23.136  0.00  0.00    -0.003 C 
ATOM     13  C   UNL     1      34.217 -15.592 -21.103  0.00  0.00    -0.003 C 
ATOM     14  C   UNL     1      32.604 -13.795 -21.038  0.00  0.00    -0.022 C 
ATOM     15  C   UNL     1      32.742 -13.620 -22.414  0.00  0.00    -0.005 C 
ATOM     16  C   UNL     1      33.341 -14.781 -20.382  0.00  0.00    -0.005 C 
ATOM     17  C   UNL     1      31.667 -12.927 -20.267  0.00  0.00    +0.031 C 
ENDBRANCH  10  11
ENDBRANCH   4  10
ENDBRANCH   2   7
ENDBRANCH   1   2
BRANCH   1  18
ATOM     18  C   UNL     1      34.878 -22.441 -19.547  0.00  0.00    +0.027 C 
BRANCH  18  19
ATOM     19  C   UNL     1      35.026 -22.668 -18.065  0.00  0.00    -0.022 C 
ATOM     20  C   UNL     1      36.227 -22.358 -17.445  0.00  0.00    -0.001 C 
ATOM     21  C   UNL     1      33.958 -23.182 -17.345  0.00  0.00    -0.001 C 
ATOM     22  C   UNL     1      35.297 -23.083 -15.336  0.00  0.00    +0.139 C 
ATOM     23  C   UNL     1      36.364 -22.566 -16.072  0.00  0.00    +0.037 C 
ATOM     24  C   UNL     1      34.095 -23.392 -15.972  0.00  0.00    +0.037 C 
BRANCH  22  25
ATOM     25  O   UNL     1      35.430 -23.289 -13.997  0.00  0.00    -0.472 OA
BRANCH  25  26
ATOM     26  C   UNL     1      36.044 -24.509 -13.586  0.00  0.00    +0.221 C 
ATOM     27  C   UNL     1      35.642 -25.597 -14.577  0.00  0.00    +0.055 C 
ATOM     28  C   UNL     1      37.553 -24.290 -13.547  0.00  0.00    +0.055 C 
BRANCH  26  30
ATOM     29  O   UNL     1      35.878 -25.707 -11.472  0.00  0.00    -0.246 OA
ATOM     30  C   UNL     1      35.492 -24.797 -12.196  0.00  0.00    +0.350 C 
BRANCH  30  31
ATOM     31  O   UNL     1      34.510 -23.938 -11.818  0.00  0.00    -0.478 OA
ATOM     32  H   UNL     1      34.608 -23.429 -11.038  0.00  0.00    +0.295 HD
ENDBRANCH  30  31
ENDBRANCH  26  30
ENDBRANCH  25  26
ENDBRANCH  22  25
ENDBRANCH  18  19
ENDBRANCH   1  18
TORSDOF 10
ENDMDL
MODEL 5
REMARK VINA RESULT:     -10.7      5.331     12.928
REMARK  Name = 9909438
REMARK  10 active torsions:
REMARK  status: ('A' for Active; 'I' for Inactive)
REMARK    1  A    between atoms: C_1  and  C_2
REMARK    2  A    between atoms: C_1  and  C_18
REMARK    3  A    between atoms: C_2  and  C_7
REMARK    4  A    between atoms: N_4  and  C_10
REMARK    5  A    between atoms: C_10  and  C_11
REMARK    6  A    between atoms: C_18  and  C_19
REMARK    7  A    between atoms: C_22  and  O_25
REMARK    8  A    between atoms: O_25  and  C_26
REMARK    9  A    between atoms: C_26  and  C_30
REMARK   10  A    between atoms: C_30  and  O_31
REMARK                            x       y       z     vdW  Elec       q    Type
REMARK                         _______ _______ _______ _____ _____    ______ ____
ROOT
ATOM      1  C   UNL     1      33.321 -14.828 -23.967  0.00  0.00    +0.014 C 
ENDROOT
BRANCH   1   2
ATOM      2  C   UNL     1      34.105 -15.685 -24.957  0.00  0.00    +0.078 C 
BRANCH   2   7
ATOM      3  O   UNL     1      34.863 -20.257 -24.051  0.00  0.00    -0.191 OA
ATOM      4  N   UNL     1      35.539 -18.313 -22.965  0.00  0.00    -0.151 N 
ATOM      5  N   UNL     1      35.322 -16.991 -23.203  0.00  0.00    -0.229 N 
ATOM      6  N   UNL     1      34.267 -18.142 -24.820  0.00  0.00    -0.308 NA
ATOM      7  C   UNL     1      34.553 -16.959 -24.327  0.00  0.00    +0.187 C 
ATOM      8  C   UNL     1      34.890 -19.037 -23.950  0.00  0.00    +0.286 C 
ATOM      9  H   UNL     1      35.650 -16.225 -22.679  0.00  0.00    +0.173 HD
BRANCH   4  10
ATOM     10  C   UNL     1      36.316 -18.743 -21.836  0.00  0.00    +0.152 C 
BRANCH  10  11
ATOM     11  C   UNL     1      35.573 -19.734 -20.987  0.00  0.00    +0.000 C 
ATOM     12  C   UNL     1      36.281 -20.692 -20.272  0.00  0.00    -0.003 C 
ATOM     13  C   UNL     1      34.186 -19.683 -20.924  0.00  0.00    -0.003 C 
ATOM     14  C   UNL     1      34.200 -21.568 -19.414  0.00  0.00    -0.022 C 
ATOM     15  C   UNL     1      35.591 -21.613 -19.482  0.00  0.00    -0.005 C 
ATOM     16  C   UNL     1      33.497 -20.603 -20.135  0.00  0.00    -0.005 C 
ATOM     17  C   UNL     1      33.463 -22.553 -18.570  0.00  0.00    +0.031 C 
ENDBRANCH  10  11
ENDBRANCH   4  10
ENDBRANCH   2   7
ENDBRANCH   1   2
BRANCH   1  18
ATOM     18  C   UNL     1      34.221 -13.862 -23.189  0.00  0.00    +0.027 C 
BRANCH  18  19
ATOM     19  C   UNL     1      33.531 -12.547 -22.930  0.00  0.00    -0.022 C 
ATOM     20  C   UNL     1      32.541 -12.476 -21.961  0.00  0.00    -0.001 C 
ATOM     21  C   UNL     1      33.897 -11.429 -23.665  0.00  0.00    -0.001 C 
ATOM     22  C   UNL     1      32.262 -10.128 -22.452  0.00  0.00    +0.139 C 
ATOM     23  C   UNL     1      31.903 -11.260 -21.720  0.00  0.00    +0.037 C 
ATOM     24  C   UNL     1      33.258 -10.212 -23.424  0.00  0.00    +0.037 C 
BRANCH  22  25
ATOM     25  O   UNL     1      31.639  -8.940 -22.219  0.00  0.00    -0.472 OA
BRANCH  25  26
ATOM     26  C   UNL     1      32.339  -7.985 -21.423  0.00  0.00    +0.221 C 
ATOM     27  C   UNL     1      32.427  -8.529 -20.001  0.00  0.00    +0.055 C 
ATOM     28  C   UNL     1      33.714  -7.767 -22.047  0.00  0.00    +0.055 C 
BRANCH  26  30
ATOM     29  O   UNL     1      30.490  -6.580 -22.156  0.00  0.00    -0.246 OA
ATOM     30  C   UNL     1      31.501  -6.714 -21.477  0.00  0.00    +0.350 C 
BRANCH  30  31
ATOM     31  O   UNL     1      31.982  -5.718 -20.689  0.00  0.00    -0.478 OA
ATOM     32  H   UNL     1      31.778  -4.826 -20.886  0.00  0.00    +0.295 HD
ENDBRANCH  30  31
ENDBRANCH  26  30
ENDBRANCH  25  26
ENDBRANCH  22  25
ENDBRANCH  18  19
ENDBRANCH   1  18
TORSDOF 10
ENDMDL
MODEL 6
REMARK VINA RESULT:     -10.6      4.174      9.996
REMARK  Name = 9909438
REMARK  10 active torsions:
REMARK  status: ('A' for Active; 'I' for Inactive)
REMARK    1  A    between atoms: C_1  and  C_2
REMARK    2  A    between atoms: C_1  and  C_18
REMARK    3  A    between atoms: C_2  and  C_7
REMARK    4  A    between atoms: N_4  and  C_10
REMARK    5  A    between atoms: C_10  and  C_11
REMARK    6  A    between atoms: C_18  and  C_19
REMARK    7  A    between atoms: C_22  and  O_25
REMARK    8  A    between atoms: O_25  and  C_26
REMARK    9  A    between atoms: C_26  and  C_30
REMARK   10  A    between atoms: C_30  and  O_31
REMARK                            x       y       z     vdW  Elec       q    Type
REMARK                         _______ _______ _______ _____ _____    ______ ____
ROOT
ATOM      1  C   UNL     1      34.191 -22.890 -16.955  0.00  0.00    +0.014 C 
ENDROOT
BRANCH   1   2
ATOM      2  C   UNL     1      35.232 -23.469 -15.999  0.00  0.00    +0.078 C 
BRANCH   2   7
ATOM      3  O   UNL     1      34.432 -25.072 -11.631  0.00  0.00    -0.191 OA
ATOM      4  N   UNL     1      33.060 -24.871 -13.500  0.00  0.00    -0.151 N 
ATOM      5  N   UNL     1      33.274 -24.424 -14.767  0.00  0.00    -0.229 N 
ATOM      6  N   UNL     1      35.214 -24.220 -13.651  0.00  0.00    -0.308 NA
ATOM      7  C   UNL     1      34.584 -24.051 -14.790  0.00  0.00    +0.187 C 
ATOM      8  C   UNL     1      34.249 -24.758 -12.800  0.00  0.00    +0.286 C 
ATOM      9  H   UNL     1      32.625 -24.378 -15.505  0.00  0.00    +0.173 HD
BRANCH   4  10
ATOM     10  C   UNL     1      31.773 -25.364 -13.098  0.00  0.00    +0.152 C 
BRANCH  10  11
ATOM     11  C   UNL     1      30.662 -24.766 -13.911  0.00  0.00    +0.000 C 
ATOM     12  C   UNL     1      30.460 -23.391 -13.890  0.00  0.00    -0.003 C 
ATOM     13  C   UNL     1      29.848 -25.592 -14.676  0.00  0.00    -0.003 C 
ATOM     14  C   UNL     1      28.606 -23.657 -15.417  0.00  0.00    -0.022 C 
ATOM     15  C   UNL     1      29.427 -22.835 -14.647  0.00  0.00    -0.005 C 
ATOM     16  C   UNL     1      28.816 -25.035 -15.432  0.00  0.00    -0.005 C 
ATOM     17  C   UNL     1      27.503 -23.061 -16.225  0.00  0.00    +0.031 C 
ENDBRANCH  10  11
ENDBRANCH   4  10
ENDBRANCH   2   7
ENDBRANCH   1   2
BRANCH   1  18
ATOM     18  C   UNL     1      34.492 -23.224 -18.420  0.00  0.00    +0.027 C 
BRANCH  18  19
ATOM     19  C   UNL     1      34.530 -21.984 -19.276  0.00  0.00    -0.022 C 
ATOM     20  C   UNL     1      35.756 -21.449 -19.644  0.00  0.00    -0.001 C 
ATOM     21  C   UNL     1      33.341 -21.400 -19.682  0.00  0.00    -0.001 C 
ATOM     22  C   UNL     1      34.603 -19.704 -20.853  0.00  0.00    +0.139 C 
ATOM     23  C   UNL     1      35.793 -20.302 -20.437  0.00  0.00    +0.037 C 
ATOM     24  C   UNL     1      33.377 -20.252 -20.475  0.00  0.00    +0.037 C 
BRANCH  22  25
ATOM     25  O   UNL     1      34.637 -18.584 -21.626  0.00  0.00    -0.472 OA
BRANCH  25  26
ATOM     26  C   UNL     1      35.405 -18.648 -22.827  0.00  0.00    +0.221 C 
ATOM     27  C   UNL     1      36.879 -18.720 -22.442  0.00  0.00    +0.055 C 
ATOM     28  C   UNL     1      34.950 -19.874 -23.613  0.00  0.00    +0.055 C 
BRANCH  26  30
ATOM     29  O   UNL     1      34.350 -17.291 -24.552  0.00  0.00    -0.246 OA
ATOM     30  C   UNL     1      35.093 -17.362 -23.581  0.00  0.00    +0.350 C 
BRANCH  30  31
ATOM     31  O   UNL     1      35.725 -16.273 -23.072  0.00  0.00    -0.478 OA
ATOM     32  H   UNL     1      36.127 -15.653 -23.647  0.00  0.00    +0.295 HD
ENDBRANCH  30  31
ENDBRANCH  26  30
ENDBRANCH  25  26
ENDBRANCH  22  25
ENDBRANCH  18  19
ENDBRANCH   1  18
TORSDOF 10
ENDMDL
MODEL 7
REMARK VINA RESULT:     -10.6      2.691      4.249
REMARK  Name = 9909438
REMARK  10 active torsions:
REMARK  status: ('A' for Active; 'I' for Inactive)
REMARK    1  A    between atoms: C_1  and  C_2
REMARK    2  A    between atoms: C_1  and  C_18
REMARK    3  A    between atoms: C_2  and  C_7
REMARK    4  A    between atoms: N_4  and  C_10
REMARK    5  A    between atoms: C_10  and  C_11
REMARK    6  A    between atoms: C_18  and  C_19
REMARK    7  A    between atoms: C_22  and  O_25
REMARK    8  A    between atoms: O_25  and  C_26
REMARK    9  A    between atoms: C_26  and  C_30
REMARK   10  A    between atoms: C_30  and  O_31
REMARK                            x       y       z     vdW  Elec       q    Type
REMARK                         _______ _______ _______ _____ _____    ______ ____
ROOT
ATOM      1  C   UNL     1      35.336 -19.817 -21.827  0.00  0.00    +0.014 C 
ENDROOT
BRANCH   1   2
ATOM      2  C   UNL     1      34.931 -19.857 -23.298  0.00  0.00    +0.078 C 
BRANCH   2   7
ATOM      3  O   UNL     1      33.603 -16.193 -25.963  0.00  0.00    -0.191 OA
ATOM      4  N   UNL     1      34.832 -16.330 -23.993  0.00  0.00    -0.151 N 
ATOM      5  N   UNL     1      35.233 -17.375 -23.218  0.00  0.00    -0.229 N 
ATOM      6  N   UNL     1      34.063 -18.230 -24.935  0.00  0.00    -0.308 NA
ATOM      7  C   UNL     1      34.741 -18.482 -23.840  0.00  0.00    +0.187 C 
ATOM      8  C   UNL     1      34.114 -16.842 -25.059  0.00  0.00    +0.286 C 
ATOM      9  H   UNL     1      35.763 -17.338 -22.389  0.00  0.00    +0.173 HD
BRANCH   4  10
ATOM     10  C   UNL     1      35.179 -14.980 -23.650  0.00  0.00    +0.152 C 
BRANCH  10  11
ATOM     11  C   UNL     1      34.214 -14.383 -22.668  0.00  0.00    +0.000 C 
ATOM     12  C   UNL     1      34.056 -14.968 -21.418  0.00  0.00    -0.003 C 
ATOM     13  C   UNL     1      33.486 -13.251 -23.019  0.00  0.00    -0.003 C 
ATOM     14  C   UNL     1      32.426 -13.278 -20.849  0.00  0.00    -0.022 C 
ATOM     15  C   UNL     1      33.159 -14.413 -20.504  0.00  0.00    -0.005 C 
ATOM     16  C   UNL     1      32.590 -12.697 -22.106  0.00  0.00    -0.005 C 
ATOM     17  C   UNL     1      31.467 -12.686 -19.872  0.00  0.00    +0.031 C 
ENDBRANCH  10  11
ENDBRANCH   4  10
ENDBRANCH   2   7
ENDBRANCH   1   2
BRANCH   1  18
ATOM     18  C   UNL     1      34.126 -19.845 -20.886  0.00  0.00    +0.027 C 
BRANCH  18  19
ATOM     19  C   UNL     1      34.245 -20.944 -19.861  0.00  0.00    -0.022 C 
ATOM     20  C   UNL     1      35.502 -21.411 -19.507  0.00  0.00    -0.001 C 
ATOM     21  C   UNL     1      33.096 -21.468 -19.289  0.00  0.00    -0.001 C 
ATOM     22  C   UNL     1      34.465 -22.963 -17.973  0.00  0.00    +0.139 C 
ATOM     23  C   UNL     1      35.613 -22.426 -18.557  0.00  0.00    +0.037 C 
ATOM     24  C   UNL     1      33.207 -22.485 -18.339  0.00  0.00    +0.037 C 
BRANCH  22  25
ATOM     25  O   UNL     1      34.572 -23.955 -17.048  0.00  0.00    -0.472 OA
BRANCH  25  26
ATOM     26  C   UNL     1      34.801 -23.560 -15.696  0.00  0.00    +0.221 C 
ATOM     27  C   UNL     1      35.778 -22.388 -15.705  0.00  0.00    +0.055 C 
ATOM     28  C   UNL     1      33.457 -23.189 -15.078  0.00  0.00    +0.055 C 
BRANCH  26  30
ATOM     29  O   UNL     1      34.800 -25.509 -14.236  0.00  0.00    -0.246 OA
ATOM     30  C   UNL     1      35.406 -24.778 -15.010  0.00  0.00    +0.350 C 
BRANCH  30  31
ATOM     31  O   UNL     1      36.707 -24.990 -15.338  0.00  0.00    -0.478 OA
ATOM     32  H   UNL     1      37.281 -25.412 -14.730  0.00  0.00    +0.295 HD
ENDBRANCH  30  31
ENDBRANCH  26  30
ENDBRANCH  25  26
ENDBRANCH  22  25
ENDBRANCH  18  19
ENDBRANCH   1  18
TORSDOF 10
ENDMDL
MODEL 8
REMARK VINA RESULT:     -10.6      5.703     13.646
REMARK  Name = 9909438
REMARK  10 active torsions:
REMARK  status: ('A' for Active; 'I' for Inactive)
REMARK    1  A    between atoms: C_1  and  C_2
REMARK    2  A    between atoms: C_1  and  C_18
REMARK    3  A    between atoms: C_2  and  C_7
REMARK    4  A    between atoms: N_4  and  C_10
REMARK    5  A    between atoms: C_10  and  C_11
REMARK    6  A    between atoms: C_18  and  C_19
REMARK    7  A    between atoms: C_22  and  O_25
REMARK    8  A    between atoms: O_25  and  C_26
REMARK    9  A    between atoms: C_26  and  C_30
REMARK   10  A    between atoms: C_30  and  O_31
REMARK                            x       y       z     vdW  Elec       q    Type
REMARK                         _______ _______ _______ _____ _____    ______ ____
ROOT
ATOM      1  C   UNL     1      32.550 -13.696 -21.287  0.00  0.00    +0.014 C 
ENDROOT
BRANCH   1   2
ATOM      2  C   UNL     1      33.357 -14.708 -20.479  0.00  0.00    +0.078 C 
BRANCH   2   7
ATOM      3  O   UNL     1      35.135 -16.871 -24.281  0.00  0.00    -0.191 OA
ATOM      4  N   UNL     1      35.304 -17.319 -22.004  0.00  0.00    -0.151 N 
ATOM      5  N   UNL     1      34.792 -16.716 -20.897  0.00  0.00    -0.229 N 
ATOM      6  N   UNL     1      34.085 -15.546 -22.681  0.00  0.00    -0.308 NA
ATOM      7  C   UNL     1      34.071 -15.663 -21.373  0.00  0.00    +0.187 C 
ATOM      8  C   UNL     1      34.873 -16.613 -23.113  0.00  0.00    +0.286 C 
ATOM      9  H   UNL     1      34.915 -16.981 -19.957  0.00  0.00    +0.173 HD
BRANCH   4  10
ATOM     10  C   UNL     1      36.126 -18.492 -21.893  0.00  0.00    +0.152 C 
BRANCH  10  11
ATOM     11  C   UNL     1      35.477 -19.556 -21.057  0.00  0.00    +0.000 C 
ATOM     12  C   UNL     1      34.091 -19.664 -21.038  0.00  0.00    -0.003 C 
ATOM     13  C   UNL     1      36.267 -20.421 -20.310  0.00  0.00    -0.003 C 
ATOM     14  C   UNL     1      34.273 -21.526 -19.509  0.00  0.00    -0.022 C 
ATOM     15  C   UNL     1      33.487 -20.654 -20.261  0.00  0.00    -0.005 C 
ATOM     16  C   UNL     1      35.663 -21.410 -19.534  0.00  0.00    -0.005 C 
ATOM     17  C   UNL     1      33.628 -22.583 -18.678  0.00  0.00    +0.031 C 
ENDBRANCH  10  11
ENDBRANCH   4  10
ENDBRANCH   2   7
ENDBRANCH   1   2
BRANCH   1  18
ATOM     18  C   UNL     1      31.731 -12.755 -20.396  0.00  0.00    +0.027 C 
BRANCH  18  19
ATOM     19  C   UNL     1      31.940 -11.311 -20.774  0.00  0.00    -0.022 C 
ATOM     20  C   UNL     1      32.275 -10.992 -22.081  0.00  0.00    -0.001 C 
ATOM     21  C   UNL     1      31.793 -10.326 -19.810  0.00  0.00    -0.001 C 
ATOM     22  C   UNL     1      32.322  -8.655 -21.472  0.00  0.00    +0.139 C 
ATOM     23  C   UNL     1      32.468  -9.656 -22.433  0.00  0.00    +0.037 C 
ATOM     24  C   UNL     1      31.986  -8.990 -20.160  0.00  0.00    +0.037 C 
BRANCH  22  25
ATOM     25  O   UNL     1      32.511  -7.351 -21.813  0.00  0.00    -0.472 OA
BRANCH  25  26
ATOM     26  C   UNL     1      31.411  -6.671 -22.415  0.00  0.00    +0.221 C 
ATOM     27  C   UNL     1      30.550  -7.707 -23.130  0.00  0.00    +0.055 C 
ATOM     28  C   UNL     1      30.646  -5.943 -21.313  0.00  0.00    +0.055 C 
BRANCH  26  30
ATOM     29  O   UNL     1      31.975  -4.470 -23.288  0.00  0.00    -0.246 OA
ATOM     30  C   UNL     1      32.026  -5.688 -23.402  0.00  0.00    +0.350 C 
BRANCH  30  31
ATOM     31  O   UNL     1      32.652  -6.293 -24.444  0.00  0.00    -0.478 OA
ATOM     32  H   UNL     1      33.568  -6.484 -24.394  0.00  0.00    +0.295 HD
ENDBRANCH  30  31
ENDBRANCH  26  30
ENDBRANCH  25  26
ENDBRANCH  22  25
ENDBRANCH  18  19
ENDBRANCH   1  18
TORSDOF 10
ENDMDL
MODEL 9
REMARK VINA RESULT:     -10.6      6.592     10.749
REMARK  Name = 9909438
REMARK  10 active torsions:
REMARK  status: ('A' for Active; 'I' for Inactive)
REMARK    1  A    between atoms: C_1  and  C_2
REMARK    2  A    between atoms: C_1  and  C_18
REMARK    3  A    between atoms: C_2  and  C_7
REMARK    4  A    between atoms: N_4  and  C_10
REMARK    5  A    between atoms: C_10  and  C_11
REMARK    6  A    between atoms: C_18  and  C_19
REMARK    7  A    between atoms: C_22  and  O_25
REMARK    8  A    between atoms: O_25  and  C_26
REMARK    9  A    between atoms: C_26  and  C_30
REMARK   10  A    between atoms: C_30  and  O_31
REMARK                            x       y       z     vdW  Elec       q    Type
REMARK                         _______ _______ _______ _____ _____    ______ ____
ROOT
ATOM      1  C   UNL     1      31.557 -12.427 -21.004  0.00  0.00    +0.014 C 
ENDROOT
BRANCH   1   2
ATOM      2  C   UNL     1      30.841 -11.147 -21.427  0.00  0.00    +0.078 C 
BRANCH   2   7
ATOM      3  O   UNL     1      33.053  -7.507 -19.389  0.00  0.00    -0.191 OA
ATOM      4  N   UNL     1      33.116  -8.365 -21.552  0.00  0.00    -0.151 N 
ATOM      5  N   UNL     1      32.479  -9.403 -22.159  0.00  0.00    -0.229 N 
ATOM      6  N   UNL     1      31.784  -9.353 -20.023  0.00  0.00    -0.308 NA
ATOM      7  C   UNL     1      31.696  -9.951 -21.188  0.00  0.00    +0.187 C 
ATOM      8  C   UNL     1      32.693  -8.317 -20.235  0.00  0.00    +0.286 C 
ATOM      9  H   UNL     1      32.566  -9.696 -23.095  0.00  0.00    +0.173 HD
BRANCH   4  10
ATOM     10  C   UNL     1      34.033  -7.533 -22.278  0.00  0.00    +0.152 C 
BRANCH  10  11
ATOM     11  C   UNL     1      33.333  -6.411 -22.989  0.00  0.00    +0.000 C 
ATOM     12  C   UNL     1      33.715  -6.074 -24.282  0.00  0.00    -0.003 C 
ATOM     13  C   UNL     1      32.313  -5.721 -22.346  0.00  0.00    -0.003 C 
ATOM     14  C   UNL     1      32.039  -4.334 -24.305  0.00  0.00    -0.022 C 
ATOM     15  C   UNL     1      33.064  -5.030 -24.942  0.00  0.00    -0.005 C 
ATOM     16  C   UNL     1      31.662  -4.679 -23.007  0.00  0.00    -0.005 C 
ATOM     17  C   UNL     1      31.344  -3.219 -25.011  0.00  0.00    +0.031 C 
ENDBRANCH  10  11
ENDBRANCH   4  10
ENDBRANCH   2   7
ENDBRANCH   1   2
BRANCH   1  18
ATOM     18  C   UNL     1      32.205 -13.154 -22.188  0.00  0.00    +0.027 C 
BRANCH  18  19
ATOM     19  C   UNL     1      33.072 -14.299 -21.730  0.00  0.00    -0.022 C 
ATOM     20  C   UNL     1      32.770 -14.948 -20.542  0.00  0.00    -0.001 C 
ATOM     21  C   UNL     1      34.155 -14.685 -22.504  0.00  0.00    -0.001 C 
ATOM     22  C   UNL     1      34.663 -16.407 -20.887  0.00  0.00    +0.139 C 
ATOM     23  C   UNL     1      33.570 -16.008 -20.117  0.00  0.00    +0.037 C 
ATOM     24  C   UNL     1      34.957 -15.746 -22.079  0.00  0.00    +0.037 C 
BRANCH  22  25
ATOM     25  O   UNL     1      35.446 -17.441 -20.473  0.00  0.00    -0.472 OA
BRANCH  25  26
ATOM     26  C   UNL     1      35.560 -18.561 -21.350  0.00  0.00    +0.221 C 
ATOM     27  C   UNL     1      34.498 -19.581 -20.954  0.00  0.00    +0.055 C 
ATOM     28  C   UNL     1      35.378 -18.061 -22.781  0.00  0.00    +0.055 C 
BRANCH  26  30
ATOM     29  O   UNL     1      37.299 -19.791 -20.170  0.00  0.00    -0.246 OA
ATOM     30  C   UNL     1      36.963 -19.111 -21.132  0.00  0.00    +0.350 C 
BRANCH  30  31
ATOM     31  O   UNL     1      37.833 -18.775 -22.120  0.00  0.00    -0.478 OA
ATOM     32  H   UNL     1      38.495 -18.132 -21.963  0.00  0.00    +0.295 HD
ENDBRANCH  30  31
ENDBRANCH  26  30
ENDBRANCH  25  26
ENDBRANCH  22  25
ENDBRANCH  18  19
ENDBRANCH   1  18
TORSDOF 10
ENDMDL
