MODEL 1
REMARK VINA RESULT:     -12.0      0.000      0.000
REMARK  Name = 24752833
REMARK  4 active torsions:
REMARK  status: ('A' for Active; 'I' for Inactive)
REMARK    1  A    between atoms: C_1  and  N_8
REMARK    2  A    between atoms: C_2  and  N_23
REMARK    3  A    between atoms: C_9  and  C_14
REMARK    4  A    between atoms: C_24  and  C_28
REMARK                            x       y       z     vdW  Elec       q    Type
REMARK                         _______ _______ _______ _____ _____    ______ ____
ROOT
ATOM      1  C   UNL     1      31.414 -23.398 -14.904  0.00  0.00    +0.090 C 
ATOM      2  C   UNL     1      30.943 -23.506 -16.366  0.00  0.00    +0.090 C 
ATOM      3  C   UNL     1      30.478 -24.158 -13.959  0.00  0.00    +0.021 C 
ATOM      4  C   UNL     1      29.476 -23.092 -16.517  0.00  0.00    +0.021 C 
ATOM      5  C   UNL     1      29.024 -23.728 -14.123  0.00  0.00    +0.002 C 
ATOM      6  C   UNL     1      28.564 -23.865 -15.570  0.00  0.00    +0.002 C 
ENDROOT
BRANCH   1   8
ATOM      7  O   UNL     1      32.833 -23.792 -12.439  0.00  0.00    -0.267 OA
ATOM      8  N   UNL     1      32.767 -23.889 -14.755  0.00  0.00    -0.298 N 
ATOM      9  C   UNL     1      33.367 -24.046 -13.516  0.00  0.00    +0.282 C 
ATOM     10  H   UNL     1      33.279 -24.121 -15.563  0.00  0.00    +0.150 HD
BRANCH   9  14
ATOM     11  S   UNL     1      35.773 -24.255 -14.903  0.00  0.00    -0.074 S 
ATOM     12  N   UNL     1      39.098 -26.357 -13.895  0.00  0.00    +0.387 N 
ATOM     13  N   UNL     1      35.310 -25.198 -12.530  0.00  0.00    -0.399 NA
ATOM     14  C   UNL     1      34.769 -24.537 -13.533  0.00  0.00    +0.210 C 
ATOM     15  C   UNL     1      36.611 -25.502 -12.864  0.00  0.00    +0.093 C 
ATOM     16  C   UNL     1      37.028 -25.079 -14.108  0.00  0.00    +0.082 C 
ATOM     17  C   UNL     1      37.511 -26.267 -11.960  0.00  0.00    +0.032 C 
ATOM     18  C   UNL     1      38.402 -25.287 -14.650  0.00  0.00    -0.059 C 
ATOM     19  C   UNL     1      38.980 -26.161 -12.432  0.00  0.00    -0.070 C 
ATOM     20  C   UNL     1      40.503 -26.427 -14.295  0.00  0.00    -0.101 C 
ATOM     21  H   UNL     1      38.646 -27.243 -14.120  0.00  0.00    -0.080 HD
ENDBRANCH   9  14
ENDBRANCH   1   8
BRANCH   2  23
ATOM     22  O   UNL     1      33.348 -24.341 -17.692  0.00  0.00    -0.269 OA
ATOM     23  N   UNL     1      31.771 -22.704 -17.239  0.00  0.00    -0.300 N 
ATOM     24  C   UNL     1      32.919 -23.200 -17.834  0.00  0.00    +0.259 C 
ATOM     25  H   UNL     1      31.508 -21.772 -17.417  0.00  0.00    +0.150 HD
BRANCH  24  28
ATOM     26 CL   UNL     1      35.863 -17.885 -22.603  0.00  0.00    -0.082 Cl
ATOM     27  N   UNL     1      35.038 -22.148 -18.694  0.00  0.00    -0.309 N 
ATOM     28  C   UNL     1      33.673 -22.241 -18.684  0.00  0.00    +0.102 C 
ATOM     29  C   UNL     1      33.177 -21.315 -19.571  0.00  0.00    +0.020 C 
ATOM     30  C   UNL     1      35.440 -21.172 -19.578  0.00  0.00    +0.048 C 
ATOM     31  C   UNL     1      34.284 -20.629 -20.145  0.00  0.00    +0.016 C 
ATOM     32  C   UNL     1      36.725 -20.730 -19.915  0.00  0.00    +0.015 C 
ATOM     33  C   UNL     1      34.415 -19.597 -21.095  0.00  0.00    +0.013 C 
ATOM     34  C   UNL     1      35.694 -19.147 -21.443  0.00  0.00    +0.058 C 
ATOM     35  C   UNL     1      36.830 -19.706 -20.860  0.00  0.00    +0.013 C 
ATOM     36  H   UNL     1      35.645 -22.699 -18.150  0.00  0.00    +0.152 HD
ENDBRANCH  24  28
ENDBRANCH   2  23
TORSDOF 4
ENDMDL
MODEL 2
REMARK VINA RESULT:     -11.5      2.679      7.514
REMARK  Name = 24752833
REMARK  4 active torsions:
REMARK  status: ('A' for Active; 'I' for Inactive)
REMARK    1  A    between atoms: C_1  and  N_8
REMARK    2  A    between atoms: C_2  and  N_23
REMARK    3  A    between atoms: C_9  and  C_14
REMARK    4  A    between atoms: C_24  and  C_28
REMARK                            x       y       z     vdW  Elec       q    Type
REMARK                         _______ _______ _______ _____ _____    ______ ____
ROOT
ATOM      1  C   UNL     1      30.923 -23.425 -16.176  0.00  0.00    +0.090 C 
ATOM      2  C   UNL     1      31.323 -23.150 -14.716  0.00  0.00    +0.090 C 
ATOM      3  C   UNL     1      29.452 -23.075 -16.427  0.00  0.00    +0.021 C 
ATOM      4  C   UNL     1      30.371 -23.835 -13.731  0.00  0.00    +0.021 C 
ATOM      5  C   UNL     1      28.521 -23.770 -15.439  0.00  0.00    +0.002 C 
ATOM      6  C   UNL     1      28.914 -23.468 -13.998  0.00  0.00    +0.002 C 
ENDROOT
BRANCH   1   8
ATOM      7  O   UNL     1      33.395 -24.323 -17.328  0.00  0.00    -0.267 OA
ATOM      8  N   UNL     1      31.765 -22.691 -17.095  0.00  0.00    -0.298 N 
ATOM      9  C   UNL     1      32.946 -23.213 -17.598  0.00  0.00    +0.282 C 
ATOM     10  H   UNL     1      31.489 -21.788 -17.374  0.00  0.00    +0.150 HD
BRANCH   9  14
ATOM     11  S   UNL     1      35.431 -22.300 -18.465  0.00  0.00    -0.074 S 
ATOM     12  N   UNL     1      36.253 -19.291 -21.065  0.00  0.00    +0.387 N 
ATOM     13  N   UNL     1      33.132 -21.524 -19.384  0.00  0.00    -0.399 NA
ATOM     14  C   UNL     1      33.710 -22.324 -18.511  0.00  0.00    +0.210 C 
ATOM     15  C   UNL     1      34.116 -20.846 -20.068  0.00  0.00    +0.093 C 
ATOM     16  C   UNL     1      35.412 -21.133 -19.699  0.00  0.00    +0.082 C 
ATOM     17  C   UNL     1      33.811 -19.840 -21.120  0.00  0.00    +0.032 C 
ATOM     18  C   UNL     1      36.621 -20.525 -20.329  0.00  0.00    -0.059 C 
ATOM     19  C   UNL     1      35.078 -19.503 -21.940  0.00  0.00    -0.070 C 
ATOM     20  C   UNL     1      37.393 -18.804 -21.840  0.00  0.00    -0.101 C 
ATOM     21  H   UNL     1      35.995 -18.583 -20.377  0.00  0.00    -0.080 HD
ENDBRANCH   9  14
ENDBRANCH   1   8
BRANCH   2  23
ATOM     22  O   UNL     1      32.163 -25.725 -13.762  0.00  0.00    -0.269 OA
ATOM     23  N   UNL     1      32.682 -23.577 -14.461  0.00  0.00    -0.300 N 
ATOM     24  C   UNL     1      32.987 -24.846 -13.999  0.00  0.00    +0.259 C 
ATOM     25  H   UNL     1      33.416 -22.941 -14.622  0.00  0.00    +0.150 HD
BRANCH  24  28
ATOM     26 CL   UNL     1      40.559 -26.360 -13.853  0.00  0.00    -0.082 Cl
ATOM     27  N   UNL     1      35.004 -25.138 -12.521  0.00  0.00    -0.309 N 
ATOM     28  C   UNL     1      34.428 -25.119 -13.763  0.00  0.00    +0.102 C 
ATOM     29  C   UNL     1      35.409 -25.389 -14.689  0.00  0.00    +0.020 C 
ATOM     30  C   UNL     1      36.348 -25.417 -12.625  0.00  0.00    +0.048 C 
ATOM     31  C   UNL     1      36.630 -25.580 -13.984  0.00  0.00    +0.016 C 
ATOM     32  C   UNL     1      37.326 -25.535 -11.632  0.00  0.00    +0.015 C 
ATOM     33  C   UNL     1      37.952 -25.876 -14.371  0.00  0.00    +0.013 C 
ATOM     34  C   UNL     1      38.941 -25.999 -13.388  0.00  0.00    +0.058 C 
ATOM     35  C   UNL     1      38.631 -25.830 -12.040  0.00  0.00    +0.013 C 
ATOM     36  H   UNL     1      34.526 -24.975 -11.676  0.00  0.00    +0.152 HD
ENDBRANCH  24  28
ENDBRANCH   2  23
TORSDOF 4
ENDMDL
MODEL 3
REMARK VINA RESULT:     -11.3      0.907      1.288
REMARK  Name = 24752833
REMARK  4 active torsions:
REMARK  status: ('A' for Active; 'I' for Inactive)
REMARK    1  A    between atoms: C_1  and  N_8
REMARK    2  A    between atoms: C_2  and  N_23
REMARK    3  A    between atoms: C_9  and  C_14
REMARK    4  A    between atoms: C_24  and  C_28
REMARK                            x       y       z     vdW  Elec       q    Type
REMARK                         _______ _______ _______ _____ _____    ______ ____
ROOT
ATOM      1  C   UNL     1      31.920 -23.438 -14.815  0.00  0.00    +0.090 C 
ATOM      2  C   UNL     1      31.355 -23.541 -16.243  0.00  0.00    +0.090 C 
ATOM      3  C   UNL     1      31.077 -24.245 -13.822  0.00  0.00    +0.021 C 
ATOM      4  C   UNL     1      29.868 -23.176 -16.288  0.00  0.00    +0.021 C 
ATOM      5  C   UNL     1      29.602 -23.864 -13.880  0.00  0.00    +0.002 C 
ATOM      6  C   UNL     1      29.049 -23.995 -15.295  0.00  0.00    +0.002 C 
ENDROOT
BRANCH   1   8
ATOM      7  O   UNL     1      33.503 -23.860 -12.456  0.00  0.00    -0.267 OA
ATOM      8  N   UNL     1      33.296 -23.884 -14.766  0.00  0.00    -0.298 N 
ATOM      9  C   UNL     1      33.977 -24.058 -13.571  0.00  0.00    +0.282 C 
ATOM     10  H   UNL     1      33.765 -24.070 -15.611  0.00  0.00    +0.150 HD
BRANCH   9  14
ATOM     11  S   UNL     1      36.017 -25.717 -12.649  0.00  0.00    -0.074 S 
ATOM     12  N   UNL     1      39.942 -25.715 -13.691  0.00  0.00    +0.387 N 
ATOM     13  N   UNL     1      36.227 -23.990 -14.576  0.00  0.00    -0.399 NA
ATOM     14  C   UNL     1      35.392 -24.496 -13.691  0.00  0.00    +0.210 C 
ATOM     15  C   UNL     1      37.447 -24.611 -14.423  0.00  0.00    +0.093 C 
ATOM     16  C   UNL     1      37.518 -25.562 -13.429  0.00  0.00    +0.082 C 
ATOM     17  C   UNL     1      38.631 -24.263 -15.254  0.00  0.00    +0.032 C 
ATOM     18  C   UNL     1      38.738 -26.363 -13.116  0.00  0.00    -0.059 C 
ATOM     19  C   UNL     1      39.737 -25.334 -15.107  0.00  0.00    -0.070 C 
ATOM     20  C   UNL     1      41.103 -26.593 -13.555  0.00  0.00    -0.101 C 
ATOM     21  H   UNL     1      40.114 -24.856 -13.167  0.00  0.00    -0.080 HD
ENDBRANCH   9  14
ENDBRANCH   1   8
BRANCH   2  23
ATOM     22  O   UNL     1      33.532 -24.339 -17.936  0.00  0.00    -0.269 OA
ATOM     23  N   UNL     1      32.094 -22.697 -17.156  0.00  0.00    -0.300 N 
ATOM     24  C   UNL     1      33.134 -23.177 -17.934  0.00  0.00    +0.259 C 
ATOM     25  H   UNL     1      31.849 -21.746 -17.227  0.00  0.00    +0.150 HD
BRANCH  24  28
ATOM     26 CL   UNL     1      35.641 -17.693 -22.759  0.00  0.00    -0.082 Cl
ATOM     27  N   UNL     1      35.167 -22.016 -18.859  0.00  0.00    -0.309 N 
ATOM     28  C   UNL     1      33.809 -22.177 -18.801  0.00  0.00    +0.102 C 
ATOM     29  C   UNL     1      33.237 -21.271 -19.663  0.00  0.00    +0.020 C 
ATOM     30  C   UNL     1      35.488 -21.015 -19.748  0.00  0.00    +0.048 C 
ATOM     31  C   UNL     1      34.288 -20.528 -20.271  0.00  0.00    +0.016 C 
ATOM     32  C   UNL     1      36.737 -20.508 -20.126  0.00  0.00    +0.015 C 
ATOM     33  C   UNL     1      34.333 -19.485 -21.216  0.00  0.00    +0.013 C 
ATOM     34  C   UNL     1      35.575 -18.969 -21.604  0.00  0.00    +0.058 C 
ATOM     35  C   UNL     1      36.757 -19.474 -21.066  0.00  0.00    +0.013 C 
ATOM     36  H   UNL     1      35.819 -22.539 -18.340  0.00  0.00    +0.152 HD
ENDBRANCH  24  28
ENDBRANCH   2  23
TORSDOF 4
ENDMDL
MODEL 4
REMARK VINA RESULT:     -10.0      3.016      8.276
REMARK  Name = 24752833
REMARK  4 active torsions:
REMARK  status: ('A' for Active; 'I' for Inactive)
REMARK    1  A    between atoms: C_1  and  N_8
REMARK    2  A    between atoms: C_2  and  N_23
REMARK    3  A    between atoms: C_9  and  C_14
REMARK    4  A    between atoms: C_24  and  C_28
REMARK                            x       y       z     vdW  Elec       q    Type
REMARK                         _______ _______ _______ _____ _____    ______ ____
ROOT
ATOM      1  C   UNL     1      37.651 -24.304 -15.039  0.00  0.00    +0.090 C 
ATOM      2  C   UNL     1      36.860 -25.624 -15.027  0.00  0.00    +0.090 C 
ATOM      3  C   UNL     1      39.156 -24.554 -14.903  0.00  0.00    +0.021 C 
ATOM      4  C   UNL     1      37.214 -26.483 -13.809  0.00  0.00    +0.021 C 
ATOM      5  C   UNL     1      39.488 -25.407 -13.682  0.00  0.00    +0.002 C 
ATOM      6  C   UNL     1      38.717 -26.722 -13.698  0.00  0.00    +0.002 C 
ENDROOT
BRANCH   1   8
ATOM      7  O   UNL     1      35.686 -22.237 -15.371  0.00  0.00    -0.267 OA
ATOM      8  N   UNL     1      37.386 -23.549 -16.244  0.00  0.00    -0.298 N 
ATOM      9  C   UNL     1      36.411 -22.566 -16.305  0.00  0.00    +0.282 C 
ATOM     10  H   UNL     1      37.919 -23.739 -17.050  0.00  0.00    +0.150 HD
BRANCH   9  14
ATOM     11  S   UNL     1      34.867 -22.231 -18.599  0.00  0.00    -0.074 S 
ATOM     12  N   UNL     1      35.770 -20.164 -21.975  0.00  0.00    +0.387 N 
ATOM     13  N   UNL     1      37.119 -21.039 -18.107  0.00  0.00    -0.399 NA
ATOM     14  C   UNL     1      36.246 -21.899 -17.622  0.00  0.00    +0.210 C 
ATOM     15  C   UNL     1      36.668 -20.610 -19.335  0.00  0.00    +0.093 C 
ATOM     16  C   UNL     1      35.476 -21.153 -19.762  0.00  0.00    +0.082 C 
ATOM     17  C   UNL     1      37.428 -19.643 -20.172  0.00  0.00    +0.032 C 
ATOM     18  C   UNL     1      34.806 -20.804 -21.049  0.00  0.00    -0.059 C 
ATOM     19  C   UNL     1      36.539 -19.088 -21.310  0.00  0.00    -0.070 C 
ATOM     20  C   UNL     1      35.075 -19.648 -23.154  0.00  0.00    -0.101 C 
ATOM     21  H   UNL     1      36.439 -20.876 -22.271  0.00  0.00    -0.080 HD
ENDBRANCH   9  14
ENDBRANCH   1   8
BRANCH   2  23
ATOM     22  O   UNL     1      35.273 -24.502 -12.914  0.00  0.00    -0.269 OA
ATOM     23  N   UNL     1      35.435 -25.376 -15.054  0.00  0.00    -0.300 N 
ATOM     24  C   UNL     1      34.756 -24.829 -13.979  0.00  0.00    +0.259 C 
ATOM     25  H   UNL     1      34.930 -25.605 -15.868  0.00  0.00    +0.150 HD
BRANCH  24  28
ATOM     26 CL   UNL     1      27.378 -22.981 -15.321  0.00  0.00    -0.082 Cl
ATOM     27  N   UNL     1      32.370 -25.610 -13.803  0.00  0.00    -0.309 N 
ATOM     28  C   UNL     1      33.291 -24.661 -14.156  0.00  0.00    +0.102 C 
ATOM     29  C   UNL     1      32.612 -23.585 -14.679  0.00  0.00    +0.020 C 
ATOM     30  C   UNL     1      31.098 -25.167 -14.089  0.00  0.00    +0.048 C 
ATOM     31  C   UNL     1      31.223 -23.890 -14.644  0.00  0.00    +0.016 C 
ATOM     32  C   UNL     1      29.860 -25.791 -13.904  0.00  0.00    +0.015 C 
ATOM     33  C   UNL     1      30.056 -23.202 -15.031  0.00  0.00    +0.013 C 
ATOM     34  C   UNL     1      28.810 -23.814 -14.850  0.00  0.00    +0.058 C 
ATOM     35  C   UNL     1      28.716 -25.089 -14.295  0.00  0.00    +0.013 C 
ATOM     36  H   UNL     1      32.585 -26.483 -13.403  0.00  0.00    +0.152 HD
ENDBRANCH  24  28
ENDBRANCH   2  23
TORSDOF 4
ENDMDL
MODEL 5
REMARK VINA RESULT:      -9.9      2.029      6.187
REMARK  Name = 24752833
REMARK  4 active torsions:
REMARK  status: ('A' for Active; 'I' for Inactive)
REMARK    1  A    between atoms: C_1  and  N_8
REMARK    2  A    between atoms: C_2  and  N_23
REMARK    3  A    between atoms: C_9  and  C_14
REMARK    4  A    between atoms: C_24  and  C_28
REMARK                            x       y       z     vdW  Elec       q    Type
REMARK                         _______ _______ _______ _____ _____    ______ ____
ROOT
ATOM      1  C   UNL     1      36.848 -25.645 -15.046  0.00  0.00    +0.090 C 
ATOM      2  C   UNL     1      37.664 -24.340 -14.992  0.00  0.00    +0.090 C 
ATOM      3  C   UNL     1      37.133 -26.531 -13.829  0.00  0.00    +0.021 C 
ATOM      4  C   UNL     1      39.157 -24.616 -14.790  0.00  0.00    +0.021 C 
ATOM      5  C   UNL     1      38.624 -26.797 -13.649  0.00  0.00    +0.002 C 
ATOM      6  C   UNL     1      39.415 -25.496 -13.571  0.00  0.00    +0.002 C 
ENDROOT
BRANCH   1   8
ATOM      7  O   UNL     1      35.157 -24.682 -12.936  0.00  0.00    -0.267 OA
ATOM      8  N   UNL     1      35.431 -25.370 -15.133  0.00  0.00    -0.298 N 
ATOM      9  C   UNL     1      34.698 -24.905 -14.052  0.00  0.00    +0.282 C 
ATOM     10  H   UNL     1      34.970 -25.518 -15.990  0.00  0.00    +0.150 HD
BRANCH   9  14
ATOM     11  S   UNL     1      32.715 -23.480 -15.393  0.00  0.00    -0.074 S 
ATOM     12  N   UNL     1      28.690 -23.657 -14.882  0.00  0.00    +0.387 N 
ATOM     13  N   UNL     1      32.310 -25.407 -13.703  0.00  0.00    -0.399 NA
ATOM     14  C   UNL     1      33.247 -24.696 -14.296  0.00  0.00    +0.210 C 
ATOM     15  C   UNL     1      31.084 -24.965 -14.148  0.00  0.00    +0.093 C 
ATOM     16  C   UNL     1      31.112 -23.927 -15.055  0.00  0.00    +0.082 C 
ATOM     17  C   UNL     1      29.802 -25.541 -13.663  0.00  0.00    +0.032 C 
ATOM     18  C   UNL     1      29.898 -23.319 -15.674  0.00  0.00    -0.059 C 
ATOM     19  C   UNL     1      28.627 -25.103 -14.569  0.00  0.00    -0.070 C 
ATOM     20  C   UNL     1      27.485 -23.229 -15.589  0.00  0.00    -0.101 C 
ATOM     21  H   UNL     1      28.748 -23.157 -13.994  0.00  0.00    -0.080 HD
ENDBRANCH   9  14
ENDBRANCH   1   8
BRANCH   2  23
ATOM     22  O   UNL     1      35.784 -22.200 -15.353  0.00  0.00    -0.269 OA
ATOM     23  N   UNL     1      37.468 -23.555 -16.191  0.00  0.00    -0.300 N 
ATOM     24  C   UNL     1      36.531 -22.539 -16.268  0.00  0.00    +0.259 C 
ATOM     25  H   UNL     1      38.022 -23.750 -16.981  0.00  0.00    +0.150 HD
BRANCH  24  28
ATOM     26 CL   UNL     1      35.149 -19.541 -23.250  0.00  0.00    -0.082 Cl
ATOM     27  N   UNL     1      37.313 -20.878 -17.991  0.00  0.00    -0.309 N 
ATOM     28  C   UNL     1      36.435 -21.844 -17.578  0.00  0.00    +0.102 C 
ATOM     29  C   UNL     1      35.501 -22.022 -18.572  0.00  0.00    +0.020 C 
ATOM     30  C   UNL     1      36.964 -20.425 -19.243  0.00  0.00    +0.048 C 
ATOM     31  C   UNL     1      35.823 -21.131 -19.633  0.00  0.00    +0.016 C 
ATOM     32  C   UNL     1      37.563 -19.453 -20.052  0.00  0.00    +0.015 C 
ATOM     33  C   UNL     1      35.252 -20.854 -20.891  0.00  0.00    +0.013 C 
ATOM     34  C   UNL     1      35.841 -19.885 -21.711  0.00  0.00    +0.058 C 
ATOM     35  C   UNL     1      36.979 -19.196 -21.296  0.00  0.00    +0.013 C 
ATOM     36  H   UNL     1      38.082 -20.556 -17.470  0.00  0.00    +0.152 HD
ENDBRANCH  24  28
ENDBRANCH   2  23
TORSDOF 4
ENDMDL
MODEL 6
REMARK VINA RESULT:      -9.3      3.317      8.418
REMARK  Name = 24752833
REMARK  4 active torsions:
REMARK  status: ('A' for Active; 'I' for Inactive)
REMARK    1  A    between atoms: C_1  and  N_8
REMARK    2  A    between atoms: C_2  and  N_23
REMARK    3  A    between atoms: C_9  and  C_14
REMARK    4  A    between atoms: C_24  and  C_28
REMARK                            x       y       z     vdW  Elec       q    Type
REMARK                         _______ _______ _______ _____ _____    ______ ____
ROOT
ATOM      1  C   UNL     1      36.264 -23.406 -15.682  0.00  0.00    +0.090 C 
ATOM      2  C   UNL     1      35.430 -24.697 -15.600  0.00  0.00    +0.090 C 
ATOM      3  C   UNL     1      37.755 -23.690 -15.468  0.00  0.00    +0.021 C 
ATOM      4  C   UNL     1      35.711 -25.469 -14.307  0.00  0.00    +0.021 C 
ATOM      5  C   UNL     1      38.013 -24.456 -14.174  0.00  0.00    +0.002 C 
ATOM      6  C   UNL     1      37.200 -25.744 -14.119  0.00  0.00    +0.002 C 
ENDROOT
BRANCH   1   8
ATOM      7  O   UNL     1      37.747 -21.160 -16.684  0.00  0.00    -0.267 OA
ATOM      8  N   UNL     1      36.069 -22.738 -16.950  0.00  0.00    -0.298 N 
ATOM      9  C   UNL     1      36.841 -21.657 -17.346  0.00  0.00    +0.282 C 
ATOM     10  H   UNL     1      35.363 -23.064 -17.555  0.00  0.00    +0.150 HD
BRANCH   9  14
ATOM     11  S   UNL     1      35.008 -21.457 -19.435  0.00  0.00    -0.074 S 
ATOM     12  N   UNL     1      35.445 -19.585 -23.012  0.00  0.00    +0.387 N 
ATOM     13  N   UNL     1      37.294 -20.235 -19.308  0.00  0.00    -0.399 NA
ATOM     14  C   UNL     1      36.499 -21.067 -18.666  0.00  0.00    +0.210 C 
ATOM     15  C   UNL     1      36.683 -19.877 -20.489  0.00  0.00    +0.093 C 
ATOM     16  C   UNL     1      35.450 -20.446 -20.726  0.00  0.00    +0.082 C 
ATOM     17  C   UNL     1      37.318 -18.959 -21.472  0.00  0.00    +0.032 C 
ATOM     18  C   UNL     1      34.615 -20.173 -21.932  0.00  0.00    -0.059 C 
ATOM     19  C   UNL     1      36.284 -18.472 -22.514  0.00  0.00    -0.070 C 
ATOM     20  C   UNL     1      34.598 -19.139 -24.117  0.00  0.00    -0.101 C 
ATOM     21  H   UNL     1      36.077 -20.312 -23.352  0.00  0.00    -0.080 HD
ENDBRANCH   9  14
ENDBRANCH   1   8
BRANCH   2  23
ATOM     22  O   UNL     1      33.716 -23.754 -13.498  0.00  0.00    -0.269 OA
ATOM     23  N   UNL     1      34.016 -24.408 -15.701  0.00  0.00    -0.300 N 
ATOM     24  C   UNL     1      33.272 -23.956 -14.625  0.00  0.00    +0.259 C 
ATOM     25  H   UNL     1      33.567 -24.538 -16.568  0.00  0.00    +0.150 HD
BRANCH  24  28
ATOM     26 CL   UNL     1      25.766 -22.190 -15.072  0.00  0.00    -0.082 Cl
ATOM     27  N   UNL     1      31.161 -24.245 -15.966  0.00  0.00    -0.309 N 
ATOM     28  C   UNL     1      31.827 -23.731 -14.887  0.00  0.00    +0.102 C 
ATOM     29  C   UNL     1      30.928 -23.004 -14.141  0.00  0.00    +0.020 C 
ATOM     30  C   UNL     1      29.839 -23.863 -15.935  0.00  0.00    +0.048 C 
ATOM     31  C   UNL     1      29.665 -23.078 -14.792  0.00  0.00    +0.016 C 
ATOM     32  C   UNL     1      28.794 -24.148 -16.821  0.00  0.00    +0.015 C 
ATOM     33  C   UNL     1      28.387 -22.552 -14.520  0.00  0.00    +0.013 C 
ATOM     34  C   UNL     1      27.332 -22.830 -15.397  0.00  0.00    +0.058 C 
ATOM     35  C   UNL     1      27.535 -23.615 -16.530  0.00  0.00    +0.013 C 
ATOM     36  H   UNL     1      31.568 -24.807 -16.664  0.00  0.00    +0.152 HD
ENDBRANCH  24  28
ENDBRANCH   2  23
TORSDOF 4
ENDMDL
