MODEL 1
REMARK VINA RESULT:     -11.5      0.000      0.000
REMARK  Name = 4470378
REMARK  6 active torsions:
REMARK  status: ('A' for Active; 'I' for Inactive)
REMARK    1  A    between atoms: C_5  and  O_10
REMARK    2  A    between atoms: C_6  and  O_24
REMARK    3  A    between atoms: O_10  and  C_11
REMARK    4  A    between atoms: C_12  and  C_19
REMARK    5  A    between atoms: O_24  and  C_25
REMARK    6  A    between atoms: C_26  and  C_33
REMARK                            x       y       z     vdW  Elec       q    Type
REMARK                         _______ _______ _______ _____ _____    ______ ____
ROOT
ATOM      1  F   UNL     1      34.054 -22.893 -19.247  0.00  0.00    -0.221 F 
ATOM      2  F   UNL     1      37.859 -21.352 -16.851  0.00  0.00    -0.199 F 
ATOM      3  N   UNL     1      35.040 -23.373 -15.788  0.00  0.00    -0.331 NA
ATOM      4  C   UNL     1      35.975 -22.097 -18.093  0.00  0.00    +0.031 C 
ATOM      5  C   UNL     1      34.358 -23.420 -16.956  0.00  0.00    +0.298 C 
ATOM      6  C   UNL     1      36.189 -22.676 -15.809  0.00  0.00    +0.312 C 
ATOM      7  C   UNL     1      34.779 -22.807 -18.124  0.00  0.00    +0.270 C 
ATOM      8  C   UNL     1      36.704 -22.026 -16.911  0.00  0.00    +0.201 C 
ATOM      9  C   UNL     1      36.473 -21.416 -19.322  0.00  0.00    +0.032 C 
ENDROOT
BRANCH   5  10
ATOM     10  O   UNL     1      33.183 -24.124 -16.960  0.00  0.00    -0.428 OA
BRANCH  10  11
ATOM     11  C   UNL     1      32.219 -23.754 -16.044  0.00  0.00    +0.148 C 
ATOM     12  C   UNL     1      29.933 -23.230 -15.538  0.00  0.00    +0.032 C 
ATOM     13  C   UNL     1      30.907 -23.605 -16.464  0.00  0.00    +0.040 C 
ATOM     14  C   UNL     1      32.583 -23.540 -14.725  0.00  0.00    +0.038 C 
ATOM     15  C   UNL     1      30.284 -23.011 -14.206  0.00  0.00    +0.003 C 
ATOM     16  C   UNL     1      31.609 -23.166 -13.799  0.00  0.00    +0.003 C 
BRANCH  12  19
ATOM     17  N   UNL     1      27.640 -22.575 -15.112  0.00  0.00    -0.387 N 
ATOM     18  N   UNL     1      28.183 -23.415 -17.202  0.00  0.00    -0.345 N 
ATOM     19  C   UNL     1      28.559 -23.070 -15.959  0.00  0.00    +0.096 C 
ATOM     20  H   UNL     1      26.707 -22.469 -15.406  0.00  0.00    +0.157 HD
ATOM     21  H   UNL     1      27.900 -22.319 -14.198  0.00  0.00    +0.157 HD
ATOM     22  H   UNL     1      27.245 -23.304 -17.481  0.00  0.00    +0.144 HD
ATOM     23  H   UNL     1      28.844 -23.781 -17.833  0.00  0.00    +0.144 HD
ENDBRANCH  12  19
ENDBRANCH  10  11
ENDBRANCH   5  10
BRANCH   6  24
ATOM     24  O   UNL     1      36.894 -22.619 -14.619  0.00  0.00    -0.426 OA
BRANCH  24  25
ATOM     25  C   UNL     1      37.290 -23.795 -14.061  0.00  0.00    +0.148 C 
ATOM     26  C   UNL     1      38.844 -25.643 -13.957  0.00  0.00    +0.034 C 
ATOM     27  C   UNL     1      38.438 -24.436 -14.527  0.00  0.00    +0.040 C 
ATOM     28  C   UNL     1      36.547 -24.362 -13.026  0.00  0.00    +0.038 C 
ATOM     29  C   UNL     1      38.100 -26.210 -12.922  0.00  0.00    +0.003 C 
ATOM     30  C   UNL     1      36.952 -25.568 -12.456  0.00  0.00    +0.003 C 
BRANCH  26  33
ATOM     31  N   UNL     1      40.867 -27.032 -13.583  0.00  0.00    -0.343 N 
ATOM     32  N   UNL     1      40.364 -26.236 -15.722  0.00  0.00    -0.285 NA
ATOM     33  C   UNL     1      40.041 -26.311 -14.443  0.00  0.00    +0.117 C 
ATOM     34  H   UNL     1      41.673 -27.477 -13.933  0.00  0.00    +0.144 HD
ATOM     35  H   UNL     1      40.646 -27.098 -12.626  0.00  0.00    +0.144 HD
ATOM     36  H   UNL     1      41.174 -26.687 -16.052  0.00  0.00    +0.188 HD
ENDBRANCH  26  33
ENDBRANCH  24  25
ENDBRANCH   6  24
TORSDOF 6
ENDMDL
MODEL 2
REMARK VINA RESULT:     -11.3      2.658      5.061
REMARK  Name = 4470378
REMARK  6 active torsions:
REMARK  status: ('A' for Active; 'I' for Inactive)
REMARK    1  A    between atoms: C_5  and  O_10
REMARK    2  A    between atoms: C_6  and  O_24
REMARK    3  A    between atoms: O_10  and  C_11
REMARK    4  A    between atoms: C_12  and  C_19
REMARK    5  A    between atoms: O_24  and  C_25
REMARK    6  A    between atoms: C_26  and  C_33
REMARK                            x       y       z     vdW  Elec       q    Type
REMARK                         _______ _______ _______ _____ _____    ______ ____
ROOT
ATOM      1  F   UNL     1      32.183 -23.676 -17.612  0.00  0.00    -0.221 F 
ATOM      2  F   UNL     1      33.968 -23.327 -13.221  0.00  0.00    -0.199 F 
ATOM      3  N   UNL     1      35.585 -23.158 -16.464  0.00  0.00    -0.331 NA
ATOM      4  C   UNL     1      33.026 -23.509 -15.396  0.00  0.00    +0.031 C 
ATOM      5  C   UNL     1      34.501 -23.331 -17.253  0.00  0.00    +0.298 C 
ATOM      6  C   UNL     1      35.353 -23.165 -15.139  0.00  0.00    +0.312 C 
ATOM      7  C   UNL     1      33.213 -23.509 -16.774  0.00  0.00    +0.270 C 
ATOM      8  C   UNL     1      34.117 -23.333 -14.551  0.00  0.00    +0.201 C 
ATOM      9  C   UNL     1      31.661 -23.697 -14.826  0.00  0.00    +0.032 C 
ENDROOT
BRANCH   5  10
ATOM     10  O   UNL     1      34.712 -23.329 -18.607  0.00  0.00    -0.428 OA
BRANCH  10  11
ATOM     11  C   UNL     1      34.501 -22.143 -19.280  0.00  0.00    +0.148 C 
ATOM     12  C   UNL     1      35.376 -20.225 -20.426  0.00  0.00    +0.032 C 
ATOM     13  C   UNL     1      35.590 -21.425 -19.746  0.00  0.00    +0.040 C 
ATOM     14  C   UNL     1      33.205 -21.696 -19.475  0.00  0.00    +0.038 C 
ATOM     15  C   UNL     1      34.077 -19.762 -20.631  0.00  0.00    +0.003 C 
ATOM     16  C   UNL     1      32.991 -20.497 -20.155  0.00  0.00    +0.003 C 
BRANCH  12  19
ATOM     17  N   UNL     1      37.549 -19.200 -20.119  0.00  0.00    -0.387 N 
ATOM     18  N   UNL     1      36.514 -19.007 -22.183  0.00  0.00    -0.345 N 
ATOM     19  C   UNL     1      36.501 -19.464 -20.919  0.00  0.00    +0.096 C 
ATOM     20  H   UNL     1      38.311 -18.680 -20.462  0.00  0.00    +0.157 HD
ATOM     21  H   UNL     1      37.554 -19.527 -19.190  0.00  0.00    +0.157 HD
ATOM     22  H   UNL     1      37.284 -18.487 -22.511  0.00  0.00    +0.144 HD
ATOM     23  H   UNL     1      35.754 -19.190 -22.780  0.00  0.00    +0.144 HD
ENDBRANCH  12  19
ENDBRANCH  10  11
ENDBRANCH   5  10
BRANCH   6  24
ATOM     24  O   UNL     1      36.456 -22.990 -14.321  0.00  0.00    -0.426 OA
BRANCH  24  25
ATOM     25  C   UNL     1      37.037 -24.103 -13.796  0.00  0.00    +0.148 C 
ATOM     26  C   UNL     1      38.795 -25.760 -13.830  0.00  0.00    +0.034 C 
ATOM     27  C   UNL     1      38.200 -24.619 -14.367  0.00  0.00    +0.040 C 
ATOM     28  C   UNL     1      36.467 -24.730 -12.688  0.00  0.00    +0.038 C 
ATOM     29  C   UNL     1      38.225 -26.387 -12.721  0.00  0.00    +0.003 C 
ATOM     30  C   UNL     1      37.062 -25.871 -12.150  0.00  0.00    +0.003 C 
BRANCH  26  33
ATOM     31  N   UNL     1      40.914 -27.045 -13.675  0.00  0.00    -0.343 N 
ATOM     32  N   UNL     1      40.270 -26.075 -15.701  0.00  0.00    -0.285 NA
ATOM     33  C   UNL     1      40.008 -26.298 -14.425  0.00  0.00    +0.117 C 
ATOM     34  H   UNL     1      41.729 -27.400 -14.098  0.00  0.00    +0.144 HD
ATOM     35  H   UNL     1      40.738 -27.220 -12.722  0.00  0.00    +0.144 HD
ATOM     36  H   UNL     1      41.091 -26.438 -16.105  0.00  0.00    +0.188 HD
ENDBRANCH  26  33
ENDBRANCH  24  25
ENDBRANCH   6  24
TORSDOF 6
ENDMDL
MODEL 3
REMARK VINA RESULT:     -11.1      1.762      2.324
REMARK  Name = 4470378
REMARK  6 active torsions:
REMARK  status: ('A' for Active; 'I' for Inactive)
REMARK    1  A    between atoms: C_5  and  O_10
REMARK    2  A    between atoms: C_6  and  O_24
REMARK    3  A    between atoms: O_10  and  C_11
REMARK    4  A    between atoms: C_12  and  C_19
REMARK    5  A    between atoms: O_24  and  C_25
REMARK    6  A    between atoms: C_26  and  C_33
REMARK                            x       y       z     vdW  Elec       q    Type
REMARK                         _______ _______ _______ _____ _____    ______ ____
ROOT
ATOM      1  F   UNL     1      33.839 -22.790 -19.254  0.00  0.00    -0.221 F 
ATOM      2  F   UNL     1      37.860 -21.290 -17.212  0.00  0.00    -0.199 F 
ATOM      3  N   UNL     1      35.229 -23.457 -15.970  0.00  0.00    -0.331 NA
ATOM      4  C   UNL     1      35.862 -22.012 -18.278  0.00  0.00    +0.031 C 
ATOM      5  C   UNL     1      34.418 -23.452 -17.053  0.00  0.00    +0.298 C 
ATOM      6  C   UNL     1      36.353 -22.726 -16.076  0.00  0.00    +0.312 C 
ATOM      7  C   UNL     1      34.686 -22.753 -18.219  0.00  0.00    +0.270 C 
ATOM      8  C   UNL     1      36.721 -21.993 -17.184  0.00  0.00    +0.201 C 
ATOM      9  C   UNL     1      36.199 -21.240 -19.508  0.00  0.00    +0.032 C 
ENDROOT
BRANCH   5  10
ATOM     10  O   UNL     1      33.267 -24.188 -16.969  0.00  0.00    -0.428 OA
BRANCH  10  11
ATOM     11  C   UNL     1      32.319 -23.782 -16.052  0.00  0.00    +0.148 C 
ATOM     12  C   UNL     1      30.042 -23.239 -15.525  0.00  0.00    +0.032 C 
ATOM     13  C   UNL     1      30.999 -23.650 -16.453  0.00  0.00    +0.040 C 
ATOM     14  C   UNL     1      32.707 -23.514 -14.749  0.00  0.00    +0.038 C 
ATOM     15  C   UNL     1      30.417 -22.965 -14.210  0.00  0.00    +0.003 C 
ATOM     16  C   UNL     1      31.750 -23.103 -13.822  0.00  0.00    +0.003 C 
BRANCH  12  19
ATOM     17  N   UNL     1      27.730 -22.699 -15.042  0.00  0.00    -0.387 N 
ATOM     18  N   UNL     1      28.288 -23.360 -17.191  0.00  0.00    -0.345 N 
ATOM     19  C   UNL     1      28.661 -23.096 -15.927  0.00  0.00    +0.096 C 
ATOM     20  H   UNL     1      26.792 -22.605 -15.323  0.00  0.00    +0.157 HD
ATOM     21  H   UNL     1      27.988 -22.503 -14.112  0.00  0.00    +0.157 HD
ATOM     22  H   UNL     1      27.345 -23.262 -17.457  0.00  0.00    +0.144 HD
ATOM     23  H   UNL     1      28.957 -23.654 -17.851  0.00  0.00    +0.144 HD
ENDBRANCH  12  19
ENDBRANCH  10  11
ENDBRANCH   5  10
BRANCH   6  24
ATOM     24  O   UNL     1      37.190 -22.723 -14.973  0.00  0.00    -0.426 OA
BRANCH  24  25
ATOM     25  C   UNL     1      37.164 -23.811 -14.157  0.00  0.00    +0.148 C 
ATOM     26  C   UNL     1      36.677 -24.805 -12.009  0.00  0.00    +0.034 C 
ATOM     27  C   UNL     1      36.703 -23.690 -12.846  0.00  0.00    +0.040 C 
ATOM     28  C   UNL     1      37.600 -25.049 -14.630  0.00  0.00    +0.038 C 
ATOM     29  C   UNL     1      37.114 -26.043 -12.482  0.00  0.00    +0.003 C 
ATOM     30  C   UNL     1      37.575 -26.164 -13.793  0.00  0.00    +0.003 C 
BRANCH  26  33
ATOM     31  N   UNL     1      36.649 -23.657  -9.807  0.00  0.00    -0.343 N 
ATOM     32  N   UNL     1      35.319 -25.544 -10.169  0.00  0.00    -0.285 NA
ATOM     33  C   UNL     1      36.197 -24.678 -10.642  0.00  0.00    +0.117 C 
ATOM     34  H   UNL     1      36.311 -23.589  -8.886  0.00  0.00    +0.144 HD
ATOM     35  H   UNL     1      37.306 -23.003 -10.140  0.00  0.00    +0.144 HD
ATOM     36  H   UNL     1      34.992 -25.459  -9.245  0.00  0.00    +0.188 HD
ENDBRANCH  26  33
ENDBRANCH  24  25
ENDBRANCH   6  24
TORSDOF 6
ENDMDL
MODEL 4
REMARK VINA RESULT:     -10.9      1.695      7.158
REMARK  Name = 4470378
REMARK  6 active torsions:
REMARK  status: ('A' for Active; 'I' for Inactive)
REMARK    1  A    between atoms: C_5  and  O_10
REMARK    2  A    between atoms: C_6  and  O_24
REMARK    3  A    between atoms: O_10  and  C_11
REMARK    4  A    between atoms: C_12  and  C_19
REMARK    5  A    between atoms: O_24  and  C_25
REMARK    6  A    between atoms: C_26  and  C_33
REMARK                            x       y       z     vdW  Elec       q    Type
REMARK                         _______ _______ _______ _____ _____    ______ ____
ROOT
ATOM      1  F   UNL     1      37.568 -21.039 -17.813  0.00  0.00    -0.221 F 
ATOM      2  F   UNL     1      33.473 -22.983 -19.241  0.00  0.00    -0.199 F 
ATOM      3  N   UNL     1      35.326 -23.351 -16.144  0.00  0.00    -0.331 NA
ATOM      4  C   UNL     1      35.524 -21.985 -18.575  0.00  0.00    +0.031 C 
ATOM      5  C   UNL     1      36.366 -22.532 -16.419  0.00  0.00    +0.298 C 
ATOM      6  C   UNL     1      34.398 -23.464 -17.112  0.00  0.00    +0.312 C 
ATOM      7  C   UNL     1      36.511 -21.833 -17.606  0.00  0.00    +0.270 C 
ATOM      8  C   UNL     1      34.438 -22.819 -18.329  0.00  0.00    +0.201 C 
ATOM      9  C   UNL     1      35.630 -21.257 -19.872  0.00  0.00    +0.032 C 
ENDROOT
BRANCH   5  10
ATOM     10  O   UNL     1      37.325 -22.401 -15.449  0.00  0.00    -0.428 OA
BRANCH  10  11
ATOM     11  C   UNL     1      37.504 -23.462 -14.586  0.00  0.00    +0.148 C 
ATOM     12  C   UNL     1      37.072 -24.511 -12.471  0.00  0.00    +0.032 C 
ATOM     13  C   UNL     1      36.890 -23.438 -13.344  0.00  0.00    +0.040 C 
ATOM     14  C   UNL     1      38.294 -24.530 -14.979  0.00  0.00    +0.038 C 
ATOM     15  C   UNL     1      37.865 -25.593 -12.852  0.00  0.00    +0.003 C 
ATOM     16  C   UNL     1      38.477 -25.603 -14.106  0.00  0.00    +0.003 C 
BRANCH  12  19
ATOM     17  N   UNL     1      35.337 -25.236 -10.945  0.00  0.00    -0.387 N 
ATOM     18  N   UNL     1      36.943 -23.755 -10.174  0.00  0.00    -0.345 N 
ATOM     19  C   UNL     1      36.439 -24.501 -11.172  0.00  0.00    +0.096 C 
ATOM     20  H   UNL     1      34.911 -25.223 -10.057  0.00  0.00    +0.157 HD
ATOM     21  H   UNL     1      34.955 -25.787 -11.667  0.00  0.00    +0.157 HD
ATOM     22  H   UNL     1      36.505 -23.752  -9.292  0.00  0.00    +0.144 HD
ATOM     23  H   UNL     1      37.749 -23.210 -10.325  0.00  0.00    +0.144 HD
ENDBRANCH  12  19
ENDBRANCH  10  11
ENDBRANCH   5  10
BRANCH   6  24
ATOM     24  O   UNL     1      33.329 -24.302 -16.842  0.00  0.00    -0.426 OA
BRANCH  24  25
ATOM     25  C   UNL     1      32.395 -23.868 -15.953  0.00  0.00    +0.148 C 
ATOM     26  C   UNL     1      30.125 -23.206 -15.458  0.00  0.00    +0.034 C 
ATOM     27  C   UNL     1      31.082 -23.652 -16.370  0.00  0.00    +0.040 C 
ATOM     28  C   UNL     1      32.752 -23.638 -14.624  0.00  0.00    +0.038 C 
ATOM     29  C   UNL     1      30.481 -22.976 -14.129  0.00  0.00    +0.003 C 
ATOM     30  C   UNL     1      31.795 -23.193 -13.712  0.00  0.00    +0.003 C 
BRANCH  26  33
ATOM     31  N   UNL     1      28.314 -23.404 -17.146  0.00  0.00    -0.343 N 
ATOM     32  N   UNL     1      27.905 -22.358 -15.096  0.00  0.00    -0.285 NA
ATOM     33  C   UNL     1      28.755 -22.981 -15.893  0.00  0.00    +0.117 C 
ATOM     34  H   UNL     1      27.383 -23.241 -17.421  0.00  0.00    +0.144 HD
ATOM     35  H   UNL     1      28.933 -23.867 -17.756  0.00  0.00    +0.144 HD
ATOM     36  H   UNL     1      26.978 -22.205 -15.390  0.00  0.00    +0.188 HD
ENDBRANCH  26  33
ENDBRANCH  24  25
ENDBRANCH   6  24
TORSDOF 6
ENDMDL
MODEL 5
REMARK VINA RESULT:     -10.8      2.694      7.796
REMARK  Name = 4470378
REMARK  6 active torsions:
REMARK  status: ('A' for Active; 'I' for Inactive)
REMARK    1  A    between atoms: C_5  and  O_10
REMARK    2  A    between atoms: C_6  and  O_24
REMARK    3  A    between atoms: O_10  and  C_11
REMARK    4  A    between atoms: C_12  and  C_19
REMARK    5  A    between atoms: O_24  and  C_25
REMARK    6  A    between atoms: C_26  and  C_33
REMARK                            x       y       z     vdW  Elec       q    Type
REMARK                         _______ _______ _______ _____ _____    ______ ____
ROOT
ATOM      1  F   UNL     1      33.377 -23.430 -13.390  0.00  0.00    -0.221 F 
ATOM      2  F   UNL     1      32.406 -23.692 -18.035  0.00  0.00    -0.199 F 
ATOM      3  N   UNL     1      35.525 -23.064 -16.291  0.00  0.00    -0.331 NA
ATOM      4  C   UNL     1      32.839 -23.571 -15.702  0.00  0.00    +0.031 C 
ATOM      5  C   UNL     1      35.074 -23.130 -15.018  0.00  0.00    +0.298 C 
ATOM      6  C   UNL     1      34.600 -23.256 -17.250  0.00  0.00    +0.312 C 
ATOM      7  C   UNL     1      33.756 -23.378 -14.673  0.00  0.00    +0.270 C 
ATOM      8  C   UNL     1      33.264 -23.510 -17.025  0.00  0.00    +0.201 C 
ATOM      9  C   UNL     1      31.407 -23.840 -15.388  0.00  0.00    +0.032 C 
ENDROOT
BRANCH   5  10
ATOM     10  O   UNL     1      35.996 -22.936 -14.023  0.00  0.00    -0.428 OA
BRANCH  10  11
ATOM     11  C   UNL     1      36.658 -24.048 -13.545  0.00  0.00    +0.148 C 
ATOM     12  C   UNL     1      38.501 -25.579 -13.672  0.00  0.00    +0.032 C 
ATOM     13  C   UNL     1      37.833 -24.453 -14.156  0.00  0.00    +0.040 C 
ATOM     14  C   UNL     1      36.132 -24.736 -12.464  0.00  0.00    +0.038 C 
ATOM     15  C   UNL     1      37.985 -26.282 -12.584  0.00  0.00    +0.003 C 
ATOM     16  C   UNL     1      36.799 -25.861 -11.980  0.00  0.00    +0.003 C 
BRANCH  12  19
ATOM     17  N   UNL     1      40.506 -26.938 -13.705  0.00  0.00    -0.387 N 
ATOM     18  N   UNL     1      40.111 -25.503 -15.479  0.00  0.00    -0.345 N 
ATOM     19  C   UNL     1      39.729 -26.015 -14.298  0.00  0.00    +0.096 C 
ATOM     20  H   UNL     1      41.340 -27.230 -14.137  0.00  0.00    +0.157 HD
ATOM     21  H   UNL     1      40.239 -27.323 -12.838  0.00  0.00    +0.157 HD
ATOM     22  H   UNL     1      40.949 -25.804 -15.899  0.00  0.00    +0.144 HD
ATOM     23  H   UNL     1      39.554 -24.825 -15.925  0.00  0.00    +0.144 HD
ENDBRANCH  12  19
ENDBRANCH  10  11
ENDBRANCH   5  10
BRANCH   6  24
ATOM     24  O   UNL     1      35.050 -23.189 -18.558  0.00  0.00    -0.426 OA
BRANCH  24  25
ATOM     25  C   UNL     1      34.770 -22.061 -19.265  0.00  0.00    +0.148 C 
ATOM     26  C   UNL     1      35.521 -20.114 -20.484  0.00  0.00    +0.034 C 
ATOM     27  C   UNL     1      35.808 -21.271 -19.760  0.00  0.00    +0.040 C 
ATOM     28  C   UNL     1      33.444 -21.692 -19.494  0.00  0.00    +0.038 C 
ATOM     29  C   UNL     1      34.195 -19.745 -20.712  0.00  0.00    +0.003 C 
ATOM     30  C   UNL     1      33.157 -20.535 -20.218  0.00  0.00    +0.003 C 
BRANCH  26  33
ATOM     31  N   UNL     1      36.579 -18.793 -22.301  0.00  0.00    -0.343 N 
ATOM     32  N   UNL     1      37.640 -19.009 -20.230  0.00  0.00    -0.285 NA
ATOM     33  C   UNL     1      36.604 -19.291 -21.000  0.00  0.00    +0.117 C 
ATOM     34  H   UNL     1      37.322 -18.239 -22.630  0.00  0.00    +0.144 HD
ATOM     35  H   UNL     1      35.817 -18.995 -22.891  0.00  0.00    +0.144 HD
ATOM     36  H   UNL     1      38.374 -18.453 -20.578  0.00  0.00    +0.188 HD
ENDBRANCH  26  33
ENDBRANCH  24  25
ENDBRANCH   6  24
TORSDOF 6
ENDMDL
MODEL 6
REMARK VINA RESULT:     -10.8      7.141      9.380
REMARK  Name = 4470378
REMARK  6 active torsions:
REMARK  status: ('A' for Active; 'I' for Inactive)
REMARK    1  A    between atoms: C_5  and  O_10
REMARK    2  A    between atoms: C_6  and  O_24
REMARK    3  A    between atoms: O_10  and  C_11
REMARK    4  A    between atoms: C_12  and  C_19
REMARK    5  A    between atoms: O_24  and  C_25
REMARK    6  A    between atoms: C_26  and  C_33
REMARK                            x       y       z     vdW  Elec       q    Type
REMARK                         _______ _______ _______ _____ _____    ______ ____
ROOT
ATOM      1  F   UNL     1      34.221 -15.583 -24.279  0.00  0.00    -0.221 F 
ATOM      2  F   UNL     1      35.002 -20.246 -23.791  0.00  0.00    -0.199 F 
ATOM      3  N   UNL     1      35.598 -17.485 -21.513  0.00  0.00    -0.331 NA
ATOM      4  C   UNL     1      34.593 -17.923 -24.085  0.00  0.00    +0.031 C 
ATOM      5  C   UNL     1      35.152 -16.470 -22.287  0.00  0.00    +0.298 C 
ATOM      6  C   UNL     1      35.526 -18.713 -22.060  0.00  0.00    +0.312 C 
ATOM      7  C   UNL     1      34.645 -16.634 -23.566  0.00  0.00    +0.270 C 
ATOM      8  C   UNL     1      35.042 -18.994 -23.319  0.00  0.00    +0.201 C 
ATOM      9  C   UNL     1      34.057 -18.157 -25.457  0.00  0.00    +0.032 C 
ENDROOT
BRANCH   5  10
ATOM     10  O   UNL     1      35.217 -15.210 -21.754  0.00  0.00    -0.428 OA
BRANCH  10  11
ATOM     11  C   UNL     1      34.063 -14.696 -21.198  0.00  0.00    +0.148 C 
ATOM     12  C   UNL     1      32.370 -12.997 -21.133  0.00  0.00    +0.032 C 
ATOM     13  C   UNL     1      33.536 -13.516 -21.697  0.00  0.00    +0.040 C 
ATOM     14  C   UNL     1      33.456 -15.371 -20.151  0.00  0.00    +0.038 C 
ATOM     15  C   UNL     1      31.747 -13.666 -20.079  0.00  0.00    +0.003 C 
ATOM     16  C   UNL     1      32.291 -14.853 -19.588  0.00  0.00    +0.003 C 
BRANCH  12  19
ATOM     17  N   UNL     1      32.547 -10.941 -22.401  0.00  0.00    -0.387 N 
ATOM     18  N   UNL     1      30.536 -11.431 -21.361  0.00  0.00    -0.345 N 
ATOM     19  C   UNL     1      31.807 -11.767 -21.642  0.00  0.00    +0.096 C 
ATOM     20  H   UNL     1      32.157 -10.105 -22.744  0.00  0.00    +0.157 HD
ATOM     21  H   UNL     1      33.481 -11.173 -22.615  0.00  0.00    +0.157 HD
ATOM     22  H   UNL     1      30.160 -10.591 -21.711  0.00  0.00    +0.144 HD
ATOM     23  H   UNL     1      29.982 -12.025 -20.805  0.00  0.00    +0.144 HD
ENDBRANCH  12  19
ENDBRANCH  10  11
ENDBRANCH   5  10
BRANCH   6  24
ATOM     24  O   UNL     1      35.981 -19.760 -21.277  0.00  0.00    -0.426 OA
BRANCH  24  25
ATOM     25  C   UNL     1      35.069 -20.423 -20.515  0.00  0.00    +0.148 C 
ATOM     26  C   UNL     1      34.563 -21.978 -18.736  0.00  0.00    +0.034 C 
ATOM     27  C   UNL     1      35.498 -21.297 -19.516  0.00  0.00    +0.040 C 
ATOM     28  C   UNL     1      33.705 -20.231 -20.735  0.00  0.00    +0.038 C 
ATOM     29  C   UNL     1      33.199 -21.786 -18.956  0.00  0.00    +0.003 C 
ATOM     30  C   UNL     1      32.770 -20.911 -19.955  0.00  0.00    +0.003 C 
BRANCH  26  33
ATOM     31  N   UNL     1      36.250 -22.732 -17.078  0.00  0.00    -0.343 N 
ATOM     32  N   UNL     1      34.237 -23.893 -17.321  0.00  0.00    -0.285 NA
ATOM     33  C   UNL     1      35.010 -22.889 -17.694  0.00  0.00    +0.117 C 
ATOM     34  H   UNL     1      36.534 -23.360 -16.376  0.00  0.00    +0.144 HD
ATOM     35  H   UNL     1      36.843 -21.993 -17.345  0.00  0.00    +0.144 HD
ATOM     36  H   UNL     1      34.538 -24.510 -16.616  0.00  0.00    +0.188 HD
ENDBRANCH  26  33
ENDBRANCH  24  25
ENDBRANCH   6  24
TORSDOF 6
ENDMDL
MODEL 7
REMARK VINA RESULT:     -10.8      0.539      7.839
REMARK  Name = 4470378
REMARK  6 active torsions:
REMARK  status: ('A' for Active; 'I' for Inactive)
REMARK    1  A    between atoms: C_5  and  O_10
REMARK    2  A    between atoms: C_6  and  O_24
REMARK    3  A    between atoms: O_10  and  C_11
REMARK    4  A    between atoms: C_12  and  C_19
REMARK    5  A    between atoms: O_24  and  C_25
REMARK    6  A    between atoms: C_26  and  C_33
REMARK                            x       y       z     vdW  Elec       q    Type
REMARK                         _______ _______ _______ _____ _____    ______ ____
ROOT
ATOM      1  F   UNL     1      37.622 -21.655 -16.168  0.00  0.00    -0.221 F 
ATOM      2  F   UNL     1      34.054 -23.025 -18.994  0.00  0.00    -0.199 F 
ATOM      3  N   UNL     1      34.579 -23.490 -15.434  0.00  0.00    -0.331 NA
ATOM      4  C   UNL     1      35.863 -22.318 -17.623  0.00  0.00    +0.031 C 
ATOM      5  C   UNL     1      35.769 -22.860 -15.309  0.00  0.00    +0.298 C 
ATOM      6  C   UNL     1      34.058 -23.516 -16.674  0.00  0.00    +0.312 C 
ATOM      7  C   UNL     1      36.445 -22.263 -16.361  0.00  0.00    +0.270 C 
ATOM      8  C   UNL     1      34.639 -22.958 -17.792  0.00  0.00    +0.201 C 
ATOM      9  C   UNL     1      36.548 -21.694 -18.791  0.00  0.00    +0.032 C 
ENDROOT
BRANCH   5  10
ATOM     10  O   UNL     1      36.322 -22.821 -14.057  0.00  0.00    -0.428 OA
BRANCH  10  11
ATOM     11  C   UNL     1      36.892 -23.983 -13.578  0.00  0.00    +0.148 C 
ATOM     12  C   UNL     1      38.644 -25.621 -13.663  0.00  0.00    +0.032 C 
ATOM     13  C   UNL     1      38.068 -24.446 -14.147  0.00  0.00    +0.040 C 
ATOM     14  C   UNL     1      36.277 -24.663 -12.540  0.00  0.00    +0.038 C 
ATOM     15  C   UNL     1      38.036 -26.317 -12.618  0.00  0.00    +0.003 C 
ATOM     16  C   UNL     1      36.852 -25.838 -12.057  0.00  0.00    +0.003 C 
BRANCH  12  19
ATOM     17  N   UNL     1      40.672 -26.940 -13.546  0.00  0.00    -0.387 N 
ATOM     18  N   UNL     1      40.226 -25.763 -15.491  0.00  0.00    -0.345 N 
ATOM     19  C   UNL     1      39.870 -26.118 -14.245  0.00  0.00    +0.096 C 
ATOM     20  H   UNL     1      41.506 -27.274 -13.949  0.00  0.00    +0.157 HD
ATOM     21  H   UNL     1      40.426 -27.209 -12.631  0.00  0.00    +0.157 HD
ATOM     22  H   UNL     1      41.064 -26.104 -15.880  0.00  0.00    +0.144 HD
ATOM     23  H   UNL     1      39.650 -25.160 -16.015  0.00  0.00    +0.144 HD
ENDBRANCH  12  19
ENDBRANCH  10  11
ENDBRANCH   5  10
BRANCH   6  24
ATOM     24  O   UNL     1      32.840 -24.161 -16.814  0.00  0.00    -0.426 OA
BRANCH  24  25
ATOM     25  C   UNL     1      31.816 -23.759 -16.013  0.00  0.00    +0.148 C 
ATOM     26  C   UNL     1      29.469 -23.279 -15.699  0.00  0.00    +0.034 C 
ATOM     27  C   UNL     1      30.518 -23.692 -16.520  0.00  0.00    +0.040 C 
ATOM     28  C   UNL     1      32.064 -23.411 -14.685  0.00  0.00    +0.038 C 
ATOM     29  C   UNL     1      29.717 -22.932 -14.371  0.00  0.00    +0.003 C 
ATOM     30  C   UNL     1      31.015 -22.998 -13.864  0.00  0.00    +0.003 C 
BRANCH  26  33
ATOM     31  N   UNL     1      27.102 -22.547 -15.540  0.00  0.00    -0.343 N 
ATOM     32  N   UNL     1      27.829 -23.789 -17.381  0.00  0.00    -0.285 NA
ATOM     33  C   UNL     1      28.115 -23.210 -16.228  0.00  0.00    +0.117 C 
ATOM     34  H   UNL     1      26.193 -22.512 -15.916  0.00  0.00    +0.144 HD
ATOM     35  H   UNL     1      27.294 -22.112 -14.677  0.00  0.00    +0.144 HD
ATOM     36  H   UNL     1      26.914 -23.743 -17.740  0.00  0.00    +0.188 HD
ENDBRANCH  26  33
ENDBRANCH  24  25
ENDBRANCH   6  24
TORSDOF 6
ENDMDL
MODEL 8
REMARK VINA RESULT:     -10.5      9.951     13.735
REMARK  Name = 4470378
REMARK  6 active torsions:
REMARK  status: ('A' for Active; 'I' for Inactive)
REMARK    1  A    between atoms: C_5  and  O_10
REMARK    2  A    between atoms: C_6  and  O_24
REMARK    3  A    between atoms: O_10  and  C_11
REMARK    4  A    between atoms: C_12  and  C_19
REMARK    5  A    between atoms: O_24  and  C_25
REMARK    6  A    between atoms: C_26  and  C_33
REMARK                            x       y       z     vdW  Elec       q    Type
REMARK                         _______ _______ _______ _____ _____    ______ ____
ROOT
ATOM      1  F   UNL     1      34.208 -16.125 -20.052  0.00  0.00    -0.221 F 
ATOM      2  F   UNL     1      31.552 -12.593 -21.803  0.00  0.00    -0.199 F 
ATOM      3  N   UNL     1      34.365 -14.384 -23.231  0.00  0.00    -0.331 NA
ATOM      4  C   UNL     1      32.851 -14.358 -20.882  0.00  0.00    +0.031 C 
ATOM      5  C   UNL     1      34.621 -15.232 -22.209  0.00  0.00    +0.298 C 
ATOM      6  C   UNL     1      33.341 -13.533 -23.044  0.00  0.00    +0.312 C 
ATOM      7  C   UNL     1      33.900 -15.259 -21.025  0.00  0.00    +0.270 C 
ATOM      8  C   UNL     1      32.557 -13.470 -21.912  0.00  0.00    +0.201 C 
ATOM      9  C   UNL     1      32.043 -14.343 -19.629  0.00  0.00    +0.032 C 
ENDROOT
BRANCH   5  10
ATOM     10  O   UNL     1      35.660 -16.108 -22.374  0.00  0.00    -0.428 OA
BRANCH  10  11
ATOM     11  C   UNL     1      35.349 -17.446 -22.502  0.00  0.00    +0.148 C 
ATOM     12  C   UNL     1      35.166 -19.634 -21.534  0.00  0.00    +0.032 C 
ATOM     13  C   UNL     1      35.480 -18.281 -21.404  0.00  0.00    +0.040 C 
ATOM     14  C   UNL     1      34.912 -17.927 -23.725  0.00  0.00    +0.038 C 
ATOM     15  C   UNL     1      34.724 -20.133 -22.759  0.00  0.00    +0.003 C 
ATOM     16  C   UNL     1      34.598 -19.280 -23.855  0.00  0.00    +0.003 C 
BRANCH  12  19
ATOM     17  N   UNL     1      36.498 -20.723 -19.829  0.00  0.00    -0.387 N 
ATOM     18  N   UNL     1      34.222 -21.151 -19.898  0.00  0.00    -0.345 N 
ATOM     19  C   UNL     1      35.297 -20.519 -20.398  0.00  0.00    +0.096 C 
ATOM     20  H   UNL     1      36.579 -21.327 -19.056  0.00  0.00    +0.157 HD
ATOM     21  H   UNL     1      37.295 -20.268 -20.185  0.00  0.00    +0.157 HD
ATOM     22  H   UNL     1      34.320 -21.753 -19.125  0.00  0.00    +0.144 HD
ATOM     23  H   UNL     1      33.336 -21.012 -20.305  0.00  0.00    +0.144 HD
ENDBRANCH  12  19
ENDBRANCH  10  11
ENDBRANCH   5  10
BRANCH   6  24
ATOM     24  O   UNL     1      33.071 -12.659 -24.084  0.00  0.00    -0.426 OA
BRANCH  24  25
ATOM     25  C   UNL     1      33.730 -11.469 -24.097  0.00  0.00    +0.148 C 
ATOM     26  C   UNL     1      33.976  -9.205 -23.289  0.00  0.00    +0.034 C 
ATOM     27  C   UNL     1      33.301 -10.426 -23.276  0.00  0.00    +0.040 C 
ATOM     28  C   UNL     1      34.833 -11.290 -24.932  0.00  0.00    +0.038 C 
ATOM     29  C   UNL     1      35.078  -9.026 -24.125  0.00  0.00    +0.003 C 
ATOM     30  C   UNL     1      35.507 -10.070 -24.946  0.00  0.00    +0.003 C 
BRANCH  26  33
ATOM     31  N   UNL     1      32.914  -8.367 -21.207  0.00  0.00    -0.343 N 
ATOM     32  N   UNL     1      33.698  -6.865 -22.817  0.00  0.00    -0.285 NA
ATOM     33  C   UNL     1      33.528  -8.117 -22.433  0.00  0.00    +0.117 C 
ATOM     34  H   UNL     1      32.619  -7.616 -20.643  0.00  0.00    +0.144 HD
ATOM     35  H   UNL     1      32.776  -9.293 -20.904  0.00  0.00    +0.144 HD
ATOM     36  H   UNL     1      33.396  -6.128 -22.238  0.00  0.00    +0.188 HD
ENDBRANCH  26  33
ENDBRANCH  24  25
ENDBRANCH   6  24
TORSDOF 6
ENDMDL
MODEL 9
REMARK VINA RESULT:     -10.5      9.969     12.790
REMARK  Name = 4470378
REMARK  6 active torsions:
REMARK  status: ('A' for Active; 'I' for Inactive)
REMARK    1  A    between atoms: C_5  and  O_10
REMARK    2  A    between atoms: C_6  and  O_24
REMARK    3  A    between atoms: O_10  and  C_11
REMARK    4  A    between atoms: C_12  and  C_19
REMARK    5  A    between atoms: O_24  and  C_25
REMARK    6  A    between atoms: C_26  and  C_33
REMARK                            x       y       z     vdW  Elec       q    Type
REMARK                         _______ _______ _______ _____ _____    ______ ____
ROOT
ATOM      1  F   UNL     1      31.562 -12.539 -21.803  0.00  0.00    -0.221 F 
ATOM      2  F   UNL     1      34.189 -16.065 -19.998  0.00  0.00    -0.199 F 
ATOM      3  N   UNL     1      34.357 -14.378 -23.205  0.00  0.00    -0.331 NA
ATOM      4  C   UNL     1      32.846 -14.301 -20.855  0.00  0.00    +0.031 C 
ATOM      5  C   UNL     1      33.336 -13.506 -23.042  0.00  0.00    +0.298 C 
ATOM      6  C   UNL     1      34.595 -15.202 -22.169  0.00  0.00    +0.312 C 
ATOM      7  C   UNL     1      32.559 -13.427 -21.898  0.00  0.00    +0.270 C 
ATOM      8  C   UNL     1      33.888 -15.213 -20.985  0.00  0.00    +0.201 C 
ATOM      9  C   UNL     1      32.040 -14.261 -19.601  0.00  0.00    +0.032 C 
ENDROOT
BRANCH   5  10
ATOM     10  O   UNL     1      33.073 -12.658 -24.085  0.00  0.00    -0.428 OA
BRANCH  10  11
ATOM     11  C   UNL     1      33.744 -11.453 -24.108  0.00  0.00    +0.148 C 
ATOM     12  C   UNL     1      33.988  -9.199 -23.321  0.00  0.00    +0.032 C 
ATOM     13  C   UNL     1      33.309 -10.418 -23.296  0.00  0.00    +0.040 C 
ATOM     14  C   UNL     1      34.839 -11.303 -24.943  0.00  0.00    +0.038 C 
ATOM     15  C   UNL     1      35.092  -9.033 -24.156  0.00  0.00    +0.003 C 
ATOM     16  C   UNL     1      35.518 -10.084 -24.968  0.00  0.00    +0.003 C 
BRANCH  12  19
ATOM     17  N   UNL     1      33.743  -6.834 -22.859  0.00  0.00    -0.387 N 
ATOM     18  N   UNL     1      32.936  -8.355 -21.309  0.00  0.00    -0.345 N 
ATOM     19  C   UNL     1      33.546  -8.109 -22.481  0.00  0.00    +0.096 C 
ATOM     20  H   UNL     1      33.440  -6.097 -22.281  0.00  0.00    +0.157 HD
ATOM     21  H   UNL     1      34.189  -6.637 -23.714  0.00  0.00    +0.157 HD
ATOM     22  H   UNL     1      32.640  -7.607 -20.741  0.00  0.00    +0.144 HD
ATOM     23  H   UNL     1      32.787  -9.284 -21.017  0.00  0.00    +0.144 HD
ENDBRANCH  12  19
ENDBRANCH  10  11
ENDBRANCH   5  10
BRANCH   6  24
ATOM     24  O   UNL     1      35.637 -16.101 -22.325  0.00  0.00    -0.426 OA
BRANCH  24  25
ATOM     25  C   UNL     1      35.320 -17.415 -22.480  0.00  0.00    +0.148 C 
ATOM     26  C   UNL     1      35.053 -19.627 -21.545  0.00  0.00    +0.034 C 
ATOM     27  C   UNL     1      35.376 -18.279 -21.387  0.00  0.00    +0.040 C 
ATOM     28  C   UNL     1      34.940 -17.898 -23.732  0.00  0.00    +0.038 C 
ATOM     29  C   UNL     1      34.673 -20.110 -22.797  0.00  0.00    +0.003 C 
ATOM     30  C   UNL     1      34.617 -19.246 -23.891  0.00  0.00    +0.003 C 
BRANCH  26  33
ATOM     31  N   UNL     1      33.959 -21.111 -19.882  0.00  0.00    -0.343 N 
ATOM     32  N   UNL     1      36.275 -20.802 -19.842  0.00  0.00    -0.285 NA
ATOM     33  C   UNL     1      35.112 -20.528 -20.405  0.00  0.00    +0.117 C 
ATOM     34  H   UNL     1      34.021 -21.718 -19.110  0.00  0.00    +0.144 HD
ATOM     35  H   UNL     1      33.082 -20.917 -20.285  0.00  0.00    +0.144 HD
ATOM     36  H   UNL     1      36.316 -21.412 -19.070  0.00  0.00    +0.188 HD
ENDBRANCH  26  33
ENDBRANCH  24  25
ENDBRANCH   6  24
TORSDOF 6
ENDMDL
