MODEL 1
REMARK VINA RESULT:     -11.8      0.000      0.000
REMARK  Name = 17758361
REMARK  5 active torsions:
REMARK  status: ('A' for Active; 'I' for Inactive)
REMARK    1  A    between atoms: N_1  and  C_18
REMARK    2  A    between atoms: C_4  and  C_10
REMARK    3  A    between atoms: C_10  and  C_11
REMARK    4  A    between atoms: C_18  and  C_19
REMARK    5  A    between atoms: C_22  and  C_27
REMARK                            x       y       z     vdW  Elec       q    Type
REMARK                         _______ _______ _______ _____ _____    ______ ____
ROOT
ATOM      1  N   UNL     1      32.589 -22.739 -17.985  0.00  0.00    -0.314 N 
ATOM      2  N   UNL     1      30.691 -22.778 -16.594  0.00  0.00    -0.229 NA
ATOM      3  C   UNL     1      31.993 -23.087 -16.785  0.00  0.00    +0.129 C 
ATOM      4  C   UNL     1      32.196 -24.090 -14.638  0.00  0.00    +0.043 C 
ATOM      5  C   UNL     1      32.782 -23.736 -15.849  0.00  0.00    +0.037 C 
ATOM      6  C   UNL     1      30.859 -23.790 -14.405  0.00  0.00    +0.024 C 
ATOM      7  C   UNL     1      30.156 -23.138 -15.405  0.00  0.00    +0.100 C 
ATOM      8  H   UNL     1      32.040 -22.278 -18.660  0.00  0.00    +0.149 HD
ENDROOT
BRANCH   4  10
ATOM      9  O   UNL     1      32.415 -25.435 -12.737  0.00  0.00    -0.287 OA
ATOM     10  C   UNL     1      32.979 -24.773 -13.620  0.00  0.00    +0.196 C 
BRANCH  10  11
ATOM     11  C   UNL     1      34.472 -24.712 -13.583  0.00  0.00    +0.039 C 
ATOM     12  C   UNL     1      35.117 -24.008 -12.566  0.00  0.00    -0.001 C 
ATOM     13  C   UNL     1      36.510 -23.952 -12.532  0.00  0.00    -0.022 C 
ATOM     14  C   UNL     1      35.220 -25.361 -14.565  0.00  0.00    +0.003 C 
ATOM     15  C   UNL     1      37.259 -24.602 -13.514  0.00  0.00    -0.004 C 
ATOM     16  C   UNL     1      36.613 -25.306 -14.530  0.00  0.00    -0.000 C 
ATOM     17  C   UNL     1      37.201 -23.202 -11.443  0.00  0.00    +0.031 C 
ENDBRANCH  10  11
ENDBRANCH   4  10
BRANCH   1  18
ATOM     18  C   UNL     1      33.973 -23.015 -18.301  0.00  0.00    +0.115 C 
BRANCH  18  19
ATOM     19  C   UNL     1      34.552 -21.937 -19.154  0.00  0.00    -0.003 C 
ATOM     20  C   UNL     1      33.711 -21.117 -19.906  0.00  0.00    -0.003 C 
ATOM     21  C   UNL     1      35.934 -21.750 -19.201  0.00  0.00    -0.003 C 
ATOM     22  C   UNL     1      35.633 -19.923 -20.752  0.00  0.00    +0.031 C 
ATOM     23  C   UNL     1      34.252 -20.111 -20.705  0.00  0.00    +0.002 C 
ATOM     24  C   UNL     1      36.474 -20.743 -20.000  0.00  0.00    +0.002 C 
BRANCH  22  27
ATOM     25  N   UNL     1      37.558 -18.825 -21.872  0.00  0.00    -0.343 N 
ATOM     26  N   UNL     1      35.408 -17.936 -22.084  0.00  0.00    -0.285 NA
ATOM     27  C   UNL     1      36.195 -18.873 -21.586  0.00  0.00    +0.117 C 
ATOM     28  H   UNL     1      37.918 -18.105 -22.439  0.00  0.00    +0.144 HD
ATOM     29  H   UNL     1      38.162 -19.513 -21.507  0.00  0.00    +0.144 HD
ATOM     30  H   UNL     1      35.786 -17.224 -22.649  0.00  0.00    +0.188 HD
ENDBRANCH  22  27
ENDBRANCH  18  19
ENDBRANCH   1  18
TORSDOF 5
ENDMDL
MODEL 2
REMARK VINA RESULT:     -11.7      0.878      1.859
REMARK  Name = 17758361
REMARK  5 active torsions:
REMARK  status: ('A' for Active; 'I' for Inactive)
REMARK    1  A    between atoms: N_1  and  C_18
REMARK    2  A    between atoms: C_4  and  C_10
REMARK    3  A    between atoms: C_10  and  C_11
REMARK    4  A    between atoms: C_18  and  C_19
REMARK    5  A    between atoms: C_22  and  C_27
REMARK                            x       y       z     vdW  Elec       q    Type
REMARK                         _______ _______ _______ _____ _____    ______ ____
ROOT
ATOM      1  N   UNL     1      32.579 -22.864 -18.077  0.00  0.00    -0.314 N 
ATOM      2  N   UNL     1      30.842 -22.918 -16.489  0.00  0.00    -0.229 NA
ATOM      3  C   UNL     1      32.143 -23.130 -16.790  0.00  0.00    +0.129 C 
ATOM      4  C   UNL     1      32.658 -23.871 -14.590  0.00  0.00    +0.043 C 
ATOM      5  C   UNL     1      33.082 -23.601 -15.886  0.00  0.00    +0.037 C 
ATOM      6  C   UNL     1      31.327 -23.665 -14.242  0.00  0.00    +0.024 C 
ATOM      7  C   UNL     1      30.467 -23.191 -15.220  0.00  0.00    +0.100 C 
ATOM      8  H   UNL     1      31.923 -22.530 -18.730  0.00  0.00    +0.149 HD
ENDROOT
BRANCH   4  10
ATOM      9  O   UNL     1      33.214 -24.670 -12.463  0.00  0.00    -0.287 OA
ATOM     10  C   UNL     1      33.602 -24.367 -13.600  0.00  0.00    +0.196 C 
BRANCH  10  11
ATOM     11  C   UNL     1      35.057 -24.533 -13.896  0.00  0.00    +0.039 C 
ATOM     12  C   UNL     1      35.568 -25.797 -14.196  0.00  0.00    -0.001 C 
ATOM     13  C   UNL     1      36.926 -25.952 -14.473  0.00  0.00    -0.022 C 
ATOM     14  C   UNL     1      35.904 -23.426 -13.872  0.00  0.00    +0.003 C 
ATOM     15  C   UNL     1      37.774 -24.844 -14.449  0.00  0.00    -0.004 C 
ATOM     16  C   UNL     1      37.263 -23.581 -14.150  0.00  0.00    -0.000 C 
ATOM     17  C   UNL     1      37.472 -27.301 -14.797  0.00  0.00    +0.031 C 
ENDBRANCH  10  11
ENDBRANCH   4  10
BRANCH   1  18
ATOM     18  C   UNL     1      33.945 -23.051 -18.514  0.00  0.00    +0.115 C 
BRANCH  18  19
ATOM     19  C   UNL     1      34.412 -21.886 -19.321  0.00  0.00    -0.003 C 
ATOM     20  C   UNL     1      35.777 -21.627 -19.444  0.00  0.00    -0.003 C 
ATOM     21  C   UNL     1      33.484 -21.056 -19.950  0.00  0.00    -0.003 C 
ATOM     22  C   UNL     1      35.287 -19.708 -20.827  0.00  0.00    +0.031 C 
ATOM     23  C   UNL     1      36.214 -20.538 -20.197  0.00  0.00    +0.002 C 
ATOM     24  C   UNL     1      33.922 -19.968 -20.704  0.00  0.00    +0.002 C 
BRANCH  22  27
ATOM     25  N   UNL     1      35.120 -17.330 -21.522  0.00  0.00    -0.343 N 
ATOM     26  N   UNL     1      36.769 -18.711 -22.435  0.00  0.00    -0.285 NA
ATOM     27  C   UNL     1      35.744 -18.573 -21.612  0.00  0.00    +0.117 C 
ATOM     28  H   UNL     1      35.446 -16.574 -22.062  0.00  0.00    +0.144 HD
ATOM     29  H   UNL     1      34.352 -17.207 -20.917  0.00  0.00    +0.144 HD
ATOM     30  H   UNL     1      37.080 -17.944 -22.967  0.00  0.00    +0.188 HD
ENDBRANCH  22  27
ENDBRANCH  18  19
ENDBRANCH   1  18
TORSDOF 5
ENDMDL
MODEL 3
REMARK VINA RESULT:     -11.7      1.626      4.295
REMARK  Name = 17758361
REMARK  5 active torsions:
REMARK  status: ('A' for Active; 'I' for Inactive)
REMARK    1  A    between atoms: N_1  and  C_18
REMARK    2  A    between atoms: C_4  and  C_10
REMARK    3  A    between atoms: C_10  and  C_11
REMARK    4  A    between atoms: C_18  and  C_19
REMARK    5  A    between atoms: C_22  and  C_27
REMARK                            x       y       z     vdW  Elec       q    Type
REMARK                         _______ _______ _______ _____ _____    ______ ____
ROOT
ATOM      1  N   UNL     1      35.035 -23.318 -17.227  0.00  0.00    -0.314 N 
ATOM      2  N   UNL     1      35.964 -24.117 -15.217  0.00  0.00    -0.229 NA
ATOM      3  C   UNL     1      34.885 -23.668 -15.896  0.00  0.00    +0.129 C 
ATOM      4  C   UNL     1      33.456 -23.882 -14.007  0.00  0.00    +0.043 C 
ATOM      5  C   UNL     1      33.621 -23.533 -15.343  0.00  0.00    +0.037 C 
ATOM      6  C   UNL     1      34.543 -24.349 -13.276  0.00  0.00    +0.024 C 
ATOM      7  C   UNL     1      35.765 -24.447 -13.922  0.00  0.00    +0.100 C 
ATOM      8  H   UNL     1      35.927 -23.408 -17.633  0.00  0.00    +0.149 HD
ENDROOT
BRANCH   4  10
ATOM      9  O   UNL     1      32.048 -23.280 -12.239  0.00  0.00    -0.287 OA
ATOM     10  C   UNL     1      32.150 -23.761 -13.376  0.00  0.00    +0.196 C 
BRANCH  10  11
ATOM     11  C   UNL     1      30.891 -24.201 -14.051  0.00  0.00    +0.039 C 
ATOM     12  C   UNL     1      30.114 -23.276 -14.748  0.00  0.00    -0.001 C 
ATOM     13  C   UNL     1      28.939 -23.686 -15.378  0.00  0.00    -0.022 C 
ATOM     14  C   UNL     1      30.495 -25.536 -13.985  0.00  0.00    +0.003 C 
ATOM     15  C   UNL     1      28.543 -25.022 -15.313  0.00  0.00    -0.004 C 
ATOM     16  C   UNL     1      29.321 -25.947 -14.617  0.00  0.00    -0.000 C 
ATOM     17  C   UNL     1      28.109 -22.698 -16.126  0.00  0.00    +0.031 C 
ENDBRANCH  10  11
ENDBRANCH   4  10
BRANCH   1  18
ATOM     18  C   UNL     1      33.953 -22.828 -18.052  0.00  0.00    +0.115 C 
BRANCH  18  19
ATOM     19  C   UNL     1      34.453 -21.850 -19.062  0.00  0.00    -0.003 C 
ATOM     20  C   UNL     1      33.548 -21.099 -19.812  0.00  0.00    -0.003 C 
ATOM     21  C   UNL     1      35.825 -21.688 -19.257  0.00  0.00    -0.003 C 
ATOM     22  C   UNL     1      35.386 -20.024 -20.953  0.00  0.00    +0.031 C 
ATOM     23  C   UNL     1      34.015 -20.186 -20.758  0.00  0.00    +0.002 C 
ATOM     24  C   UNL     1      36.291 -20.774 -20.203  0.00  0.00    +0.002 C 
BRANCH  22  27
ATOM     25  N   UNL     1      37.219 -18.722 -22.008  0.00  0.00    -0.343 N 
ATOM     26  N   UNL     1      35.026 -18.516 -22.789  0.00  0.00    -0.285 NA
ATOM     27  C   UNL     1      35.872 -19.071 -21.938  0.00  0.00    +0.117 C 
ATOM     28  H   UNL     1      37.527 -18.075 -22.683  0.00  0.00    +0.144 HD
ATOM     29  H   UNL     1      37.864 -19.123 -21.381  0.00  0.00    +0.144 HD
ATOM     30  H   UNL     1      35.353 -17.871 -23.457  0.00  0.00    +0.188 HD
ENDBRANCH  22  27
ENDBRANCH  18  19
ENDBRANCH   1  18
TORSDOF 5
ENDMDL
MODEL 4
REMARK VINA RESULT:     -11.7      5.766     10.888
REMARK  Name = 17758361
REMARK  5 active torsions:
REMARK  status: ('A' for Active; 'I' for Inactive)
REMARK    1  A    between atoms: N_1  and  C_18
REMARK    2  A    between atoms: C_4  and  C_10
REMARK    3  A    between atoms: C_10  and  C_11
REMARK    4  A    between atoms: C_18  and  C_19
REMARK    5  A    between atoms: C_22  and  C_27
REMARK                            x       y       z     vdW  Elec       q    Type
REMARK                         _______ _______ _______ _____ _____    ______ ____
ROOT
ATOM      1  N   UNL     1      35.353 -18.089 -23.505  0.00  0.00    -0.314 N 
ATOM      2  N   UNL     1      34.139 -17.258 -25.342  0.00  0.00    -0.229 NA
ATOM      3  C   UNL     1      34.664 -17.053 -24.113  0.00  0.00    +0.129 C 
ATOM      4  C   UNL     1      33.872 -14.814 -24.012  0.00  0.00    +0.043 C 
ATOM      5  C   UNL     1      34.560 -15.862 -23.412  0.00  0.00    +0.037 C 
ATOM      6  C   UNL     1      33.317 -14.985 -25.276  0.00  0.00    +0.024 C 
ATOM      7  C   UNL     1      33.478 -16.216 -25.893  0.00  0.00    +0.100 C 
ATOM      8  H   UNL     1      35.435 -18.941 -23.990  0.00  0.00    +0.149 HD
ENDROOT
BRANCH   4  10
ATOM      9  O   UNL     1      34.202 -12.506 -23.817  0.00  0.00    -0.287 OA
ATOM     10  C   UNL     1      33.733 -13.541 -23.322  0.00  0.00    +0.196 C 
BRANCH  10  11
ATOM     11  C   UNL     1      33.034 -13.416 -22.007  0.00  0.00    +0.039 C 
ATOM     12  C   UNL     1      32.441 -12.206 -21.644  0.00  0.00    -0.001 C 
ATOM     13  C   UNL     1      31.788 -12.089 -20.418  0.00  0.00    -0.022 C 
ATOM     14  C   UNL     1      32.973 -14.509 -21.143  0.00  0.00    +0.003 C 
ATOM     15  C   UNL     1      31.726 -13.183 -19.554  0.00  0.00    -0.004 C 
ATOM     16  C   UNL     1      32.318 -14.392 -19.917  0.00  0.00    -0.000 C 
ATOM     17  C   UNL     1      31.151 -10.797 -20.031  0.00  0.00    +0.031 C 
ENDBRANCH  10  11
ENDBRANCH   4  10
BRANCH   1  18
ATOM     18  C   UNL     1      35.959 -17.987 -22.195  0.00  0.00    +0.115 C 
BRANCH  18  19
ATOM     19  C   UNL     1      35.551 -19.130 -21.327  0.00  0.00    -0.003 C 
ATOM     20  C   UNL     1      34.199 -19.430 -21.161  0.00  0.00    -0.003 C 
ATOM     21  C   UNL     1      36.521 -19.897 -20.681  0.00  0.00    -0.003 C 
ATOM     22  C   UNL     1      34.786 -21.264 -19.703  0.00  0.00    +0.031 C 
ATOM     23  C   UNL     1      33.817 -20.497 -20.349  0.00  0.00    +0.002 C 
ATOM     24  C   UNL     1      36.138 -20.964 -19.869  0.00  0.00    +0.002 C 
BRANCH  22  27
ATOM     25  N   UNL     1      35.192 -22.816 -17.807  0.00  0.00    -0.343 N 
ATOM     26  N   UNL     1      33.239 -22.994 -19.079  0.00  0.00    -0.285 NA
ATOM     27  C   UNL     1      34.386 -22.377 -18.856  0.00  0.00    +0.117 C 
ATOM     28  H   UNL     1      34.902 -23.571 -17.246  0.00  0.00    +0.144 HD
ATOM     29  H   UNL     1      36.052 -22.371 -17.627  0.00  0.00    +0.144 HD
ATOM     30  H   UNL     1      32.966 -23.747 -18.507  0.00  0.00    +0.188 HD
ENDBRANCH  22  27
ENDBRANCH  18  19
ENDBRANCH   1  18
TORSDOF 5
ENDMDL
MODEL 5
REMARK VINA RESULT:     -11.4      6.089     11.932
REMARK  Name = 17758361
REMARK  5 active torsions:
REMARK  status: ('A' for Active; 'I' for Inactive)
REMARK    1  A    between atoms: N_1  and  C_18
REMARK    2  A    between atoms: C_4  and  C_10
REMARK    3  A    between atoms: C_10  and  C_11
REMARK    4  A    between atoms: C_18  and  C_19
REMARK    5  A    between atoms: C_22  and  C_27
REMARK                            x       y       z     vdW  Elec       q    Type
REMARK                         _______ _______ _______ _____ _____    ______ ____
ROOT
ATOM      1  N   UNL     1      35.642 -17.573 -23.424  0.00  0.00    -0.314 N 
ATOM      2  N   UNL     1      34.411 -16.766 -25.261  0.00  0.00    -0.229 NA
ATOM      3  C   UNL     1      34.773 -16.641 -23.965  0.00  0.00    +0.129 C 
ATOM      4  C   UNL     1      33.457 -14.684 -23.659  0.00  0.00    +0.043 C 
ATOM      5  C   UNL     1      34.329 -15.628 -23.129  0.00  0.00    +0.037 C 
ATOM      6  C   UNL     1      33.061 -14.779 -24.989  0.00  0.00    +0.024 C 
ATOM      7  C   UNL     1      33.562 -15.830 -25.741  0.00  0.00    +0.100 C 
ATOM      8  H   UNL     1      35.965 -18.299 -24.006  0.00  0.00    +0.149 HD
ENDROOT
BRANCH   4  10
ATOM      9  O   UNL     1      32.226 -13.840 -21.858  0.00  0.00    -0.287 OA
ATOM     10  C   UNL     1      32.960 -13.599 -22.827  0.00  0.00    +0.196 C 
BRANCH  10  11
ATOM     11  C   UNL     1      33.300 -12.168 -23.090  0.00  0.00    +0.039 C 
ATOM     12  C   UNL     1      34.341 -11.847 -23.963  0.00  0.00    -0.001 C 
ATOM     13  C   UNL     1      34.658 -10.512 -24.209  0.00  0.00    -0.022 C 
ATOM     14  C   UNL     1      32.578 -11.154 -22.464  0.00  0.00    +0.003 C 
ATOM     15  C   UNL     1      33.934  -9.497 -23.583  0.00  0.00    -0.004 C 
ATOM     16  C   UNL     1      32.894  -9.817 -22.711  0.00  0.00    -0.000 C 
ATOM     17  C   UNL     1      35.767 -10.168 -25.144  0.00  0.00    +0.031 C 
ENDBRANCH  10  11
ENDBRANCH   4  10
BRANCH   1  18
ATOM     18  C   UNL     1      36.100 -17.540 -22.053  0.00  0.00    +0.115 C 
BRANCH  18  19
ATOM     19  C   UNL     1      35.660 -18.759 -21.313  0.00  0.00    -0.003 C 
ATOM     20  C   UNL     1      34.304 -19.078 -21.241  0.00  0.00    -0.003 C 
ATOM     21  C   UNL     1      36.604 -19.578 -20.693  0.00  0.00    -0.003 C 
ATOM     22  C   UNL     1      34.835 -21.035 -19.929  0.00  0.00    +0.031 C 
ATOM     23  C   UNL     1      33.892 -20.217 -20.549  0.00  0.00    +0.002 C 
ATOM     24  C   UNL     1      36.191 -20.716 -20.001  0.00  0.00    +0.002 C 
BRANCH  22  27
ATOM     25  N   UNL     1      33.107 -22.716 -19.332  0.00  0.00    -0.343 N 
ATOM     26  N   UNL     1      35.251 -22.851 -18.411  0.00  0.00    -0.285 NA
ATOM     27  C   UNL     1      34.404 -22.222 -19.207  0.00  0.00    +0.117 C 
ATOM     28  H   UNL     1      32.836 -23.521 -18.834  0.00  0.00    +0.144 HD
ATOM     29  H   UNL     1      32.461 -22.259 -19.918  0.00  0.00    +0.144 HD
ATOM     30  H   UNL     1      34.962 -23.655 -17.922  0.00  0.00    +0.188 HD
ENDBRANCH  22  27
ENDBRANCH  18  19
ENDBRANCH   1  18
TORSDOF 5
ENDMDL
MODEL 6
REMARK VINA RESULT:     -11.0     11.098     15.981
REMARK  Name = 17758361
REMARK  5 active torsions:
REMARK  status: ('A' for Active; 'I' for Inactive)
REMARK    1  A    between atoms: N_1  and  C_18
REMARK    2  A    between atoms: C_4  and  C_10
REMARK    3  A    between atoms: C_10  and  C_11
REMARK    4  A    between atoms: C_18  and  C_19
REMARK    5  A    between atoms: C_22  and  C_27
REMARK                            x       y       z     vdW  Elec       q    Type
REMARK                         _______ _______ _______ _____ _____    ______ ____
ROOT
ATOM      1  N   UNL     1      31.815 -10.962 -19.813  0.00  0.00    -0.314 N 
ATOM      2  N   UNL     1      32.593  -8.815 -19.245  0.00  0.00    -0.229 NA
ATOM      3  C   UNL     1      31.994  -9.629 -20.142  0.00  0.00    +0.129 C 
ATOM      4  C   UNL     1      31.710  -7.879 -21.726  0.00  0.00    +0.043 C 
ATOM      5  C   UNL     1      31.538  -9.215 -21.384  0.00  0.00    +0.037 C 
ATOM      6  C   UNL     1      32.323  -7.010 -20.830  0.00  0.00    +0.024 C 
ATOM      7  C   UNL     1      32.743  -7.523 -19.613  0.00  0.00    +0.100 C 
ATOM      8  H   UNL     1      32.134 -11.271 -18.934  0.00  0.00    +0.149 HD
ENDROOT
BRANCH   4  10
ATOM      9  O   UNL     1      30.327  -7.966 -23.611  0.00  0.00    -0.287 OA
ATOM     10  C   UNL     1      31.250  -7.390 -23.017  0.00  0.00    +0.196 C 
BRANCH  10  11
ATOM     11  C   UNL     1      31.853  -6.195 -23.681  0.00  0.00    +0.039 C 
ATOM     12  C   UNL     1      33.011  -6.332 -24.448  0.00  0.00    -0.001 C 
ATOM     13  C   UNL     1      33.573  -5.217 -25.068  0.00  0.00    -0.022 C 
ATOM     14  C   UNL     1      31.257  -4.943 -23.537  0.00  0.00    +0.003 C 
ATOM     15  C   UNL     1      32.976  -3.964 -24.923  0.00  0.00    -0.004 C 
ATOM     16  C   UNL     1      31.818  -3.827 -24.158  0.00  0.00    -0.000 C 
ATOM     17  C   UNL     1      34.809  -5.364 -25.889  0.00  0.00    +0.031 C 
ENDBRANCH  10  11
ENDBRANCH   4  10
BRANCH   1  18
ATOM     18  C   UNL     1      31.186 -11.925 -20.689  0.00  0.00    +0.115 C 
BRANCH  18  19
ATOM     19  C   UNL     1      32.132 -13.023 -21.044  0.00  0.00    -0.003 C 
ATOM     20  C   UNL     1      32.820 -12.984 -22.257  0.00  0.00    -0.003 C 
ATOM     21  C   UNL     1      32.328 -14.088 -20.164  0.00  0.00    -0.003 C 
ATOM     22  C   UNL     1      33.900 -15.075 -21.710  0.00  0.00    +0.031 C 
ATOM     23  C   UNL     1      33.704 -14.010 -22.590  0.00  0.00    +0.002 C 
ATOM     24  C   UNL     1      33.212 -15.113 -20.498  0.00  0.00    +0.002 C 
BRANCH  22  27
ATOM     25  N   UNL     1      35.046 -17.217 -21.198  0.00  0.00    -0.343 N 
ATOM     26  N   UNL     1      35.468 -16.107 -23.210  0.00  0.00    -0.285 NA
ATOM     27  C   UNL     1      34.821 -16.144 -22.058  0.00  0.00    +0.117 C 
ATOM     28  H   UNL     1      35.675 -17.931 -21.454  0.00  0.00    +0.144 HD
ATOM     29  H   UNL     1      34.576 -17.262 -20.333  0.00  0.00    +0.144 HD
ATOM     30  H   UNL     1      36.092 -16.830 -23.449  0.00  0.00    +0.188 HD
ENDBRANCH  22  27
ENDBRANCH  18  19
ENDBRANCH   1  18
TORSDOF 5
ENDMDL
MODEL 7
REMARK VINA RESULT:     -11.0      1.353      2.065
REMARK  Name = 17758361
REMARK  5 active torsions:
REMARK  status: ('A' for Active; 'I' for Inactive)
REMARK    1  A    between atoms: N_1  and  C_18
REMARK    2  A    between atoms: C_4  and  C_10
REMARK    3  A    between atoms: C_10  and  C_11
REMARK    4  A    between atoms: C_18  and  C_19
REMARK    5  A    between atoms: C_22  and  C_27
REMARK                            x       y       z     vdW  Elec       q    Type
REMARK                         _______ _______ _______ _____ _____    ______ ____
ROOT
ATOM      1  N   UNL     1      32.853 -22.853 -18.110  0.00  0.00    -0.314 N 
ATOM      2  N   UNL     1      31.659 -23.104 -16.097  0.00  0.00    -0.229 NA
ATOM      3  C   UNL     1      32.798 -23.295 -16.799  0.00  0.00    +0.129 C 
ATOM      4  C   UNL     1      33.890 -24.358 -14.974  0.00  0.00    +0.043 C 
ATOM      5  C   UNL     1      33.930 -23.910 -16.289  0.00  0.00    +0.037 C 
ATOM      6  C   UNL     1      32.735 -24.179 -14.219  0.00  0.00    +0.024 C 
ATOM      7  C   UNL     1      31.657 -23.552 -14.822  0.00  0.00    +0.100 C 
ATOM      8  H   UNL     1      32.055 -22.414 -18.486  0.00  0.00    +0.149 HD
ENDROOT
BRANCH   4  10
ATOM      9  O   UNL     1      35.520 -26.035 -14.904  0.00  0.00    -0.287 OA
ATOM     10  C   UNL     1      35.050 -25.010 -14.387  0.00  0.00    +0.196 C 
BRANCH  10  11
ATOM     11  C   UNL     1      35.724 -24.492 -13.158  0.00  0.00    +0.039 C 
ATOM     12  C   UNL     1      35.300 -24.917 -11.898  0.00  0.00    -0.001 C 
ATOM     13  C   UNL     1      35.930 -24.434 -10.752  0.00  0.00    -0.022 C 
ATOM     14  C   UNL     1      36.777 -23.585 -13.271  0.00  0.00    +0.003 C 
ATOM     15  C   UNL     1      36.984 -23.526 -10.864  0.00  0.00    -0.004 C 
ATOM     16  C   UNL     1      37.407 -23.103 -12.123  0.00  0.00    -0.000 C 
ATOM     17  C   UNL     1      35.479 -24.890  -9.405  0.00  0.00    +0.031 C 
ENDBRANCH  10  11
ENDBRANCH   4  10
BRANCH   1  18
ATOM     18  C   UNL     1      34.016 -23.000 -18.957  0.00  0.00    +0.115 C 
BRANCH  18  19
ATOM     19  C   UNL     1      34.341 -21.718 -19.647  0.00  0.00    -0.003 C 
ATOM     20  C   UNL     1      35.672 -21.347 -19.836  0.00  0.00    -0.003 C 
ATOM     21  C   UNL     1      33.314 -20.890 -20.100  0.00  0.00    -0.003 C 
ATOM     22  C   UNL     1      34.950 -19.320 -20.934  0.00  0.00    +0.031 C 
ATOM     23  C   UNL     1      35.976 -20.147 -20.480  0.00  0.00    +0.002 C 
ATOM     24  C   UNL     1      33.619 -19.691 -20.744  0.00  0.00    +0.002 C 
BRANCH  22  27
ATOM     25  N   UNL     1      35.989 -18.049 -22.797  0.00  0.00    -0.343 N 
ATOM     26  N   UNL     1      34.873 -16.923 -21.080  0.00  0.00    -0.285 NA
ATOM     27  C   UNL     1      35.268 -18.069 -21.605  0.00  0.00    +0.117 C 
ATOM     28  H   UNL     1      36.194 -17.191 -23.235  0.00  0.00    +0.144 HD
ATOM     29  H   UNL     1      36.295 -18.893 -23.202  0.00  0.00    +0.144 HD
ATOM     30  H   UNL     1      35.087 -16.075 -21.533  0.00  0.00    +0.188 HD
ENDBRANCH  22  27
ENDBRANCH  18  19
ENDBRANCH   1  18
TORSDOF 5
ENDMDL
MODEL 8
REMARK VINA RESULT:     -11.0      3.764      6.971
REMARK  Name = 17758361
REMARK  5 active torsions:
REMARK  status: ('A' for Active; 'I' for Inactive)
REMARK    1  A    between atoms: N_1  and  C_18
REMARK    2  A    between atoms: C_4  and  C_10
REMARK    3  A    between atoms: C_10  and  C_11
REMARK    4  A    between atoms: C_18  and  C_19
REMARK    5  A    between atoms: C_22  and  C_27
REMARK                            x       y       z     vdW  Elec       q    Type
REMARK                         _______ _______ _______ _____ _____    ______ ____
ROOT
ATOM      1  N   UNL     1      34.324 -24.368 -12.617  0.00  0.00    -0.314 N 
ATOM      2  N   UNL     1      32.236 -25.411 -12.923  0.00  0.00    -0.229 NA
ATOM      3  C   UNL     1      33.163 -24.527 -13.355  0.00  0.00    +0.129 C 
ATOM      4  C   UNL     1      31.870 -23.912 -15.253  0.00  0.00    +0.043 C 
ATOM      5  C   UNL     1      33.030 -23.761 -14.502  0.00  0.00    +0.037 C 
ATOM      6  C   UNL     1      30.892 -24.811 -14.841  0.00  0.00    +0.024 C 
ATOM      7  C   UNL     1      31.121 -25.531 -13.679  0.00  0.00    +0.100 C 
ATOM      8  H   UNL     1      34.432 -24.906 -11.799  0.00  0.00    +0.149 HD
ENDROOT
BRANCH   4  10
ATOM      9  O   UNL     1      30.544 -22.760 -16.798  0.00  0.00    -0.287 OA
ATOM     10  C   UNL     1      31.678 -23.133 -16.467  0.00  0.00    +0.196 C 
BRANCH  10  11
ATOM     11  C   UNL     1      32.814 -22.749 -17.359  0.00  0.00    +0.039 C 
ATOM     12  C   UNL     1      32.586 -21.932 -18.467  0.00  0.00    -0.001 C 
ATOM     13  C   UNL     1      33.646 -21.573 -19.298  0.00  0.00    -0.022 C 
ATOM     14  C   UNL     1      34.102 -23.206 -17.083  0.00  0.00    +0.003 C 
ATOM     15  C   UNL     1      34.935 -22.030 -19.022  0.00  0.00    -0.004 C 
ATOM     16  C   UNL     1      35.163 -22.846 -17.915  0.00  0.00    -0.000 C 
ATOM     17  C   UNL     1      33.403 -20.697 -20.481  0.00  0.00    +0.031 C 
ENDBRANCH  10  11
ENDBRANCH   4  10
BRANCH   1  18
ATOM     18  C   UNL     1      35.385 -23.456 -12.982  0.00  0.00    +0.115 C 
BRANCH  18  19
ATOM     19  C   UNL     1      36.622 -24.199 -13.361  0.00  0.00    -0.003 C 
ATOM     20  C   UNL     1      37.117 -25.199 -12.525  0.00  0.00    -0.003 C 
ATOM     21  C   UNL     1      37.283 -23.892 -14.551  0.00  0.00    -0.003 C 
ATOM     22  C   UNL     1      38.935 -25.587 -14.067  0.00  0.00    +0.031 C 
ATOM     23  C   UNL     1      38.274 -25.893 -12.878  0.00  0.00    +0.002 C 
ATOM     24  C   UNL     1      38.440 -24.586 -14.903  0.00  0.00    +0.002 C 
BRANCH  22  27
ATOM     25  N   UNL     1      40.884 -27.013 -13.487  0.00  0.00    -0.343 N 
ATOM     26  N   UNL     1      40.554 -26.308 -15.690  0.00  0.00    -0.285 NA
ATOM     27  C   UNL     1      40.142 -26.311 -14.435  0.00  0.00    +0.117 C 
ATOM     28  H   UNL     1      41.697 -27.497 -13.757  0.00  0.00    +0.144 HD
ATOM     29  H   UNL     1      40.594 -27.025 -12.545  0.00  0.00    +0.144 HD
ATOM     30  H   UNL     1      41.370 -26.798 -15.941  0.00  0.00    +0.188 HD
ENDBRANCH  22  27
ENDBRANCH  18  19
ENDBRANCH   1  18
TORSDOF 5
ENDMDL
MODEL 9
REMARK VINA RESULT:     -10.9      1.636      4.553
REMARK  Name = 17758361
REMARK  5 active torsions:
REMARK  status: ('A' for Active; 'I' for Inactive)
REMARK    1  A    between atoms: N_1  and  C_18
REMARK    2  A    between atoms: C_4  and  C_10
REMARK    3  A    between atoms: C_10  and  C_11
REMARK    4  A    between atoms: C_18  and  C_19
REMARK    5  A    between atoms: C_22  and  C_27
REMARK                            x       y       z     vdW  Elec       q    Type
REMARK                         _______ _______ _______ _____ _____    ______ ____
ROOT
ATOM      1  N   UNL     1      35.166 -23.180 -17.021  0.00  0.00    -0.314 N 
ATOM      2  N   UNL     1      35.989 -23.588 -14.854  0.00  0.00    -0.229 NA
ATOM      3  C   UNL     1      34.948 -23.588 -15.716  0.00  0.00    +0.129 C 
ATOM      4  C   UNL     1      33.428 -24.387 -14.072  0.00  0.00    +0.043 C 
ATOM      5  C   UNL     1      33.661 -23.974 -15.378  0.00  0.00    +0.037 C 
ATOM      6  C   UNL     1      34.474 -24.401 -13.155  0.00  0.00    +0.024 C 
ATOM      7  C   UNL     1      35.725 -23.996 -13.592  0.00  0.00    +0.100 C 
ATOM      8  H   UNL     1      36.076 -22.902 -17.275  0.00  0.00    +0.149 HD
ENDROOT
BRANCH   4  10
ATOM      9  O   UNL     1      31.951 -25.661 -12.779  0.00  0.00    -0.287 OA
ATOM     10  C   UNL     1      32.095 -24.804 -13.663  0.00  0.00    +0.196 C 
BRANCH  10  11
ATOM     11  C   UNL     1      30.856 -24.234 -14.274  0.00  0.00    +0.039 C 
ATOM     12  C   UNL     1      30.097 -25.003 -15.158  0.00  0.00    -0.001 C 
ATOM     13  C   UNL     1      28.941 -24.472 -15.727  0.00  0.00    -0.022 C 
ATOM     14  C   UNL     1      30.457 -22.936 -13.959  0.00  0.00    +0.003 C 
ATOM     15  C   UNL     1      28.541 -23.172 -15.412  0.00  0.00    -0.004 C 
ATOM     16  C   UNL     1      29.299 -22.405 -14.528  0.00  0.00    -0.000 C 
ATOM     17  C   UNL     1      28.128 -25.293 -16.670  0.00  0.00    +0.031 C 
ENDBRANCH  10  11
ENDBRANCH   4  10
BRANCH   1  18
ATOM     18  C   UNL     1      34.131 -23.140 -18.030  0.00  0.00    +0.115 C 
BRANCH  18  19
ATOM     19  C   UNL     1      34.380 -22.039 -19.007  0.00  0.00    -0.003 C 
ATOM     20  C   UNL     1      35.687 -21.698 -19.353  0.00  0.00    -0.003 C 
ATOM     21  C   UNL     1      33.305 -21.351 -19.571  0.00  0.00    -0.003 C 
ATOM     22  C   UNL     1      34.846 -19.980 -20.829  0.00  0.00    +0.031 C 
ATOM     23  C   UNL     1      35.919 -20.668 -20.265  0.00  0.00    +0.002 C 
ATOM     24  C   UNL     1      33.539 -20.322 -20.483  0.00  0.00    +0.002 C 
BRANCH  22  27
ATOM     25  N   UNL     1      35.140 -19.149 -23.151  0.00  0.00    -0.343 N 
ATOM     26  N   UNL     1      35.272 -17.672 -21.345  0.00  0.00    -0.285 NA
ATOM     27  C   UNL     1      35.090 -18.907 -21.779  0.00  0.00    +0.117 C 
ATOM     28  H   UNL     1      35.306 -18.408 -23.777  0.00  0.00    +0.144 HD
ATOM     29  H   UNL     1      35.009 -20.063 -23.494  0.00  0.00    +0.144 HD
ATOM     30  H   UNL     1      35.437 -16.944 -21.986  0.00  0.00    +0.188 HD
ENDBRANCH  22  27
ENDBRANCH  18  19
ENDBRANCH   1  18
TORSDOF 5
ENDMDL
