MODEL 1
REMARK VINA RESULT:     -11.9      0.000      0.000
REMARK  Name = 198752
REMARK  6 active torsions:
REMARK  status: ('A' for Active; 'I' for Inactive)
REMARK    1  A    between atoms: C_1  and  C_3
REMARK    2  A    between atoms: C_1  and  C_16
REMARK    3  A    between atoms: N_2  and  C_9
REMARK    4  A    between atoms: C_9  and  C_10
REMARK    5  A    between atoms: C_16  and  C_18
REMARK    6  A    between atoms: C_18  and  C_20
REMARK                            x       y       z     vdW  Elec       q    Type
REMARK                         _______ _______ _______ _____ _____    ______ ____
ROOT
ATOM      1  C   UNL     1      36.412 -21.806 -18.691  0.00  0.00    +0.008 C 
ENDROOT
BRANCH   1   3
ATOM      2  N   UNL     1      35.468 -18.696 -21.535  0.00  0.00    +0.390 N 
ATOM      3  C   UNL     1      36.231 -21.091 -20.026  0.00  0.00    -0.004 C 
ATOM      4  C   UNL     1      37.130 -19.853 -20.114  0.00  0.00    -0.023 C 
ATOM      5  C   UNL     1      34.769 -20.686 -20.241  0.00  0.00    -0.023 C 
ATOM      6  C   UNL     1      36.881 -19.075 -21.408  0.00  0.00    -0.077 C 
ATOM      7  C   UNL     1      34.599 -19.881 -21.531  0.00  0.00    -0.077 C 
ATOM      8  H   UNL     1      35.222 -18.123 -20.728  0.00  0.00    -0.079 HD
BRANCH   2   9
ATOM      9  C   UNL     1      35.254 -17.910 -22.750  0.00  0.00    -0.050 C 
BRANCH   9  10
ATOM     10  C   UNL     1      34.853 -16.493 -22.438  0.00  0.00    -0.043 C 
ATOM     11  C   UNL     1      34.731 -15.574 -23.471  0.00  0.00    -0.006 C 
ATOM     12  C   UNL     1      34.609 -16.125 -21.122  0.00  0.00    -0.006 C 
ATOM     13  C   UNL     1      34.359 -14.261 -23.181  0.00  0.00    -0.000 C 
ATOM     14  C   UNL     1      34.237 -14.813 -20.832  0.00  0.00    -0.000 C 
ATOM     15  C   UNL     1      34.112 -13.880 -21.862  0.00  0.00    -0.000 C 
ENDBRANCH   9  10
ENDBRANCH   2   9
ENDBRANCH   1   3
BRANCH   1  16
ATOM     16  C   UNL     1      35.123 -22.495 -18.244  0.00  0.00    +0.069 C 
BRANCH  16  18
ATOM     17  O   UNL     1      36.289 -23.176 -16.247  0.00  0.00    -0.291 OA
ATOM     18  C   UNL     1      35.180 -23.025 -16.798  0.00  0.00    +0.173 C 
BRANCH  18  20
ATOM     19  N   UNL     1      30.324 -23.129 -16.740  0.00  0.00    -0.333 N 
ATOM     20  C   UNL     1      33.949 -23.342 -16.093  0.00  0.00    +0.036 C 
ATOM     21  C   UNL     1      31.554 -23.962 -14.753  0.00  0.00    -0.009 C 
ATOM     22  C   UNL     1      30.330 -24.379 -13.961  0.00  0.00    +0.028 C 
ATOM     23  C   UNL     1      31.497 -23.423 -16.058  0.00  0.00    +0.041 C 
ATOM     24  C   UNL     1      29.286 -25.119 -14.797  0.00  0.00    +0.006 C 
ATOM     25  C   UNL     1      28.401 -24.205 -15.644  0.00  0.00    +0.022 C 
ATOM     26  C   UNL     1      32.715 -23.138 -16.712  0.00  0.00    +0.017 C 
ATOM     27  C   UNL     1      29.055 -22.904 -16.086  0.00  0.00    +0.087 C 
ATOM     28  C   UNL     1      33.995 -23.836 -14.799  0.00  0.00    +0.003 C 
ATOM     29  C   UNL     1      32.809 -24.141 -14.134  0.00  0.00    -0.003 C 
ATOM     30  H   UNL     1      30.358 -23.070 -17.722  0.00  0.00    +0.147 HD
ENDBRANCH  18  20
ENDBRANCH  16  18
ENDBRANCH   1  16
TORSDOF 6
ENDMDL
MODEL 2
REMARK VINA RESULT:     -11.5      2.905      4.603
REMARK  Name = 198752
REMARK  6 active torsions:
REMARK  status: ('A' for Active; 'I' for Inactive)
REMARK    1  A    between atoms: C_1  and  C_3
REMARK    2  A    between atoms: C_1  and  C_16
REMARK    3  A    between atoms: N_2  and  C_9
REMARK    4  A    between atoms: C_9  and  C_10
REMARK    5  A    between atoms: C_16  and  C_18
REMARK    6  A    between atoms: C_18  and  C_20
REMARK                            x       y       z     vdW  Elec       q    Type
REMARK                         _______ _______ _______ _____ _____    ______ ____
ROOT
ATOM      1  C   UNL     1      32.784 -22.481 -18.128  0.00  0.00    +0.008 C 
ENDROOT
BRANCH   1   3
ATOM      2  N   UNL     1      35.093 -19.796 -20.601  0.00  0.00    +0.390 N 
ATOM      3  C   UNL     1      33.556 -21.945 -19.330  0.00  0.00    -0.004 C 
ATOM      4  C   UNL     1      35.012 -21.645 -18.960  0.00  0.00    -0.023 C 
ATOM      5  C   UNL     1      32.894 -20.682 -19.892  0.00  0.00    -0.023 C 
ATOM      6  C   UNL     1      35.766 -21.014 -20.132  0.00  0.00    -0.077 C 
ATOM      7  C   UNL     1      33.718 -20.083 -21.033  0.00  0.00    -0.077 C 
ATOM      8  H   UNL     1      35.046 -19.141 -19.821  0.00  0.00    -0.079 HD
BRANCH   2   9
ATOM      9  C   UNL     1      35.852 -19.176 -21.688  0.00  0.00    -0.050 C 
BRANCH   9  10
ATOM     10  C   UNL     1      35.348 -17.793 -22.005  0.00  0.00    -0.043 C 
ATOM     11  C   UNL     1      35.284 -17.377 -23.327  0.00  0.00    -0.006 C 
ATOM     12  C   UNL     1      34.955 -16.954 -20.971  0.00  0.00    -0.006 C 
ATOM     13  C   UNL     1      34.818 -16.095 -23.621  0.00  0.00    -0.000 C 
ATOM     14  C   UNL     1      34.489 -15.673 -21.265  0.00  0.00    -0.000 C 
ATOM     15  C   UNL     1      34.420 -15.243 -22.591  0.00  0.00    -0.000 C 
ENDBRANCH   9  10
ENDBRANCH   2   9
ENDBRANCH   1   3
BRANCH   1  16
ATOM     16  C   UNL     1      33.576 -23.559 -17.388  0.00  0.00    +0.069 C 
BRANCH  16  18
ATOM     17  O   UNL     1      31.986 -23.445 -15.579  0.00  0.00    -0.291 OA
ATOM     18  C   UNL     1      33.155 -23.726 -15.915  0.00  0.00    +0.173 C 
BRANCH  18  20
ATOM     19  N   UNL     1      37.493 -25.689 -14.958  0.00  0.00    -0.333 N 
ATOM     20  C   UNL     1      34.117 -24.206 -14.937  0.00  0.00    +0.036 C 
ATOM     21  C   UNL     1      35.999 -25.127 -13.059  0.00  0.00    -0.009 C 
ATOM     22  C   UNL     1      36.956 -25.548 -11.962  0.00  0.00    +0.028 C 
ATOM     23  C   UNL     1      36.314 -25.176 -14.435  0.00  0.00    +0.041 C 
ATOM     24  C   UNL     1      38.394 -25.084 -12.195  0.00  0.00    +0.006 C 
ATOM     25  C   UNL     1      39.178 -25.947 -13.182  0.00  0.00    +0.022 C 
ATOM     26  C   UNL     1      35.358 -24.690 -15.353  0.00  0.00    +0.017 C 
ATOM     27  C   UNL     1      38.337 -26.628 -14.252  0.00  0.00    +0.087 C 
ATOM     28  C   UNL     1      33.801 -24.197 -13.587  0.00  0.00    +0.003 C 
ATOM     29  C   UNL     1      34.732 -24.654 -12.657  0.00  0.00    -0.003 C 
ATOM     30  H   UNL     1      37.770 -25.401 -15.858  0.00  0.00    +0.147 HD
ENDBRANCH  18  20
ENDBRANCH  16  18
ENDBRANCH   1  16
TORSDOF 6
ENDMDL
MODEL 3
REMARK VINA RESULT:     -11.5      2.798     10.299
REMARK  Name = 198752
REMARK  6 active torsions:
REMARK  status: ('A' for Active; 'I' for Inactive)
REMARK    1  A    between atoms: C_1  and  C_3
REMARK    2  A    between atoms: C_1  and  C_16
REMARK    3  A    between atoms: N_2  and  C_9
REMARK    4  A    between atoms: C_9  and  C_10
REMARK    5  A    between atoms: C_16  and  C_18
REMARK    6  A    between atoms: C_18  and  C_20
REMARK                            x       y       z     vdW  Elec       q    Type
REMARK                         _______ _______ _______ _____ _____    ______ ____
ROOT
ATOM      1  C   UNL     1      36.129 -21.565 -19.775  0.00  0.00    +0.008 C 
ENDROOT
BRANCH   1   3
ATOM      2  N   UNL     1      35.057 -23.838 -16.262  0.00  0.00    +0.390 N 
ATOM      3  C   UNL     1      35.547 -21.897 -18.403  0.00  0.00    -0.004 C 
ATOM      4  C   UNL     1      36.646 -22.348 -17.435  0.00  0.00    -0.023 C 
ATOM      5  C   UNL     1      34.472 -22.984 -18.509  0.00  0.00    -0.023 C 
ATOM      6  C   UNL     1      36.058 -22.778 -16.089  0.00  0.00    -0.077 C 
ATOM      7  C   UNL     1      33.957 -23.393 -17.127  0.00  0.00    -0.077 C 
ATOM      8  H   UNL     1      35.513 -24.630 -16.715  0.00  0.00    -0.079 HD
BRANCH   2   9
ATOM      9  C   UNL     1      34.542 -24.275 -14.964  0.00  0.00    -0.050 C 
BRANCH   9  10
ATOM     10  C   UNL     1      35.531 -25.142 -14.231  0.00  0.00    -0.043 C 
ATOM     11  C   UNL     1      35.829 -24.867 -12.904  0.00  0.00    -0.006 C 
ATOM     12  C   UNL     1      36.131 -26.205 -14.892  0.00  0.00    -0.006 C 
ATOM     13  C   UNL     1      36.746 -25.670 -12.225  0.00  0.00    -0.000 C 
ATOM     14  C   UNL     1      37.047 -27.008 -14.214  0.00  0.00    -0.000 C 
ATOM     15  C   UNL     1      37.355 -26.740 -12.880  0.00  0.00    -0.000 C 
ENDBRANCH   9  10
ENDBRANCH   2   9
ENDBRANCH   1   3
BRANCH   1  16
ATOM     16  C   UNL     1      35.321 -20.474 -20.477  0.00  0.00    +0.069 C 
BRANCH  16  18
ATOM     17  O   UNL     1      37.343 -19.161 -20.460  0.00  0.00    -0.291 OA
ATOM     18  C   UNL     1      36.155 -19.230 -20.838  0.00  0.00    +0.173 C 
BRANCH  18  20
ATOM     19  N   UNL     1      33.687 -15.047 -20.931  0.00  0.00    -0.333 N 
ATOM     20  C   UNL     1      35.555 -18.154 -21.610  0.00  0.00    +0.036 C 
ATOM     21  C   UNL     1      34.402 -16.052 -23.083  0.00  0.00    -0.009 C 
ATOM     22  C   UNL     1      33.862 -14.949 -23.972  0.00  0.00    +0.028 C 
ATOM     23  C   UNL     1      34.331 -16.029 -21.673  0.00  0.00    +0.041 C 
ATOM     24  C   UNL     1      34.157 -13.544 -23.448  0.00  0.00    +0.006 C 
ATOM     25  C   UNL     1      33.217 -13.081 -22.335  0.00  0.00    +0.022 C 
ATOM     26  C   UNL     1      34.934 -17.087 -20.960  0.00  0.00    +0.017 C 
ATOM     27  C   UNL     1      32.650 -14.194 -21.466  0.00  0.00    +0.087 C 
ATOM     28  C   UNL     1      35.589 -18.188 -22.995  0.00  0.00    +0.003 C 
ATOM     29  C   UNL     1      35.017 -17.149 -23.725  0.00  0.00    -0.003 C 
ATOM     30  H   UNL     1      33.951 -14.926 -19.990  0.00  0.00    +0.147 HD
ENDBRANCH  18  20
ENDBRANCH  16  18
ENDBRANCH   1  16
TORSDOF 6
ENDMDL
MODEL 4
REMARK VINA RESULT:     -11.4      4.861     12.150
REMARK  Name = 198752
REMARK  6 active torsions:
REMARK  status: ('A' for Active; 'I' for Inactive)
REMARK    1  A    between atoms: C_1  and  C_3
REMARK    2  A    between atoms: C_1  and  C_16
REMARK    3  A    between atoms: N_2  and  C_9
REMARK    4  A    between atoms: C_9  and  C_10
REMARK    5  A    between atoms: C_16  and  C_18
REMARK    6  A    between atoms: C_18  and  C_20
REMARK                            x       y       z     vdW  Elec       q    Type
REMARK                         _______ _______ _______ _____ _____    ______ ____
ROOT
ATOM      1  C   UNL     1      33.943 -15.085 -23.775  0.00  0.00    +0.008 C 
ENDROOT
BRANCH   1   3
ATOM      2  N   UNL     1      35.238 -18.648 -21.706  0.00  0.00    +0.390 N 
ATOM      3  C   UNL     1      34.865 -16.099 -23.105  0.00  0.00    -0.004 C 
ATOM      4  C   UNL     1      34.818 -17.449 -23.828  0.00  0.00    -0.023 C 
ATOM      5  C   UNL     1      34.497 -16.289 -21.630  0.00  0.00    -0.023 C 
ATOM      6  C   UNL     1      35.663 -18.499 -23.104  0.00  0.00    -0.077 C 
ATOM      7  C   UNL     1      35.352 -17.377 -20.978  0.00  0.00    -0.077 C 
ATOM      8  H   UNL     1      34.256 -18.925 -21.703  0.00  0.00    -0.079 HD
BRANCH   2   9
ATOM      9  C   UNL     1      36.019 -19.691 -21.041  0.00  0.00    -0.050 C 
BRANCH   9  10
ATOM     10  C   UNL     1      35.146 -20.629 -20.252  0.00  0.00    -0.043 C 
ATOM     11  C   UNL     1      33.765 -20.515 -20.342  0.00  0.00    -0.006 C 
ATOM     12  C   UNL     1      35.731 -21.596 -19.446  0.00  0.00    -0.006 C 
ATOM     13  C   UNL     1      32.955 -21.385 -19.611  0.00  0.00    -0.000 C 
ATOM     14  C   UNL     1      34.922 -22.465 -18.716  0.00  0.00    -0.000 C 
ATOM     15  C   UNL     1      33.533 -22.359 -18.798  0.00  0.00    -0.000 C 
ENDBRANCH   9  10
ENDBRANCH   2   9
ENDBRANCH   1   3
BRANCH   1  16
ATOM     16  C   UNL     1      34.173 -13.674 -23.234  0.00  0.00    +0.069 C 
BRANCH  16  18
ATOM     17  O   UNL     1      33.719 -12.879 -25.464  0.00  0.00    -0.291 OA
ATOM     18  C   UNL     1      33.889 -12.567 -24.267  0.00  0.00    +0.173 C 
BRANCH  18  20
ATOM     19  N   UNL     1      31.326  -8.927 -22.327  0.00  0.00    -0.333 N 
ATOM     20  C   UNL     1      33.822 -11.178 -23.843  0.00  0.00    +0.036 C 
ATOM     21  C   UNL     1      33.674  -8.498 -23.000  0.00  0.00    -0.009 C 
ATOM     22  C   UNL     1      33.722  -7.056 -22.534  0.00  0.00    +0.028 C 
ATOM     23  C   UNL     1      32.548  -9.336 -22.842  0.00  0.00    +0.041 C 
ATOM     24  C   UNL     1      33.083  -6.836 -21.163  0.00  0.00    +0.006 C 
ATOM     25  C   UNL     1      31.557  -6.756 -21.190  0.00  0.00    +0.022 C 
ATOM     26  C   UNL     1      32.657 -10.680 -23.258  0.00  0.00    +0.017 C 
ATOM     27  C   UNL     1      30.890  -7.548 -22.305  0.00  0.00    +0.087 C 
ATOM     28  C   UNL     1      34.910 -10.341 -24.027  0.00  0.00    +0.003 C 
ATOM     29  C   UNL     1      34.837  -9.013 -23.612  0.00  0.00    -0.003 C 
ATOM     30  H   UNL     1      30.722  -9.611 -21.957  0.00  0.00    +0.147 HD
ENDBRANCH  18  20
ENDBRANCH  16  18
ENDBRANCH   1  16
TORSDOF 6
ENDMDL
MODEL 5
REMARK VINA RESULT:     -11.3      2.221      3.747
REMARK  Name = 198752
REMARK  6 active torsions:
REMARK  status: ('A' for Active; 'I' for Inactive)
REMARK    1  A    between atoms: C_1  and  C_3
REMARK    2  A    between atoms: C_1  and  C_16
REMARK    3  A    between atoms: N_2  and  C_9
REMARK    4  A    between atoms: C_9  and  C_10
REMARK    5  A    between atoms: C_16  and  C_18
REMARK    6  A    between atoms: C_18  and  C_20
REMARK                            x       y       z     vdW  Elec       q    Type
REMARK                         _______ _______ _______ _____ _____    ______ ____
ROOT
ATOM      1  C   UNL     1      35.518 -22.065 -18.695  0.00  0.00    +0.008 C 
ENDROOT
BRANCH   1   3
ATOM      2  N   UNL     1      35.441 -18.729 -21.438  0.00  0.00    +0.390 N 
ATOM      3  C   UNL     1      35.624 -21.276 -19.997  0.00  0.00    -0.004 C 
ATOM      4  C   UNL     1      36.707 -20.197 -19.900  0.00  0.00    -0.023 C 
ATOM      5  C   UNL     1      34.282 -20.632 -20.361  0.00  0.00    -0.023 C 
ATOM      6  C   UNL     1      36.751 -19.337 -21.165  0.00  0.00    -0.077 C 
ATOM      7  C   UNL     1      34.406 -19.757 -21.610  0.00  0.00    -0.077 C 
ATOM      8  H   UNL     1      35.186 -18.158 -20.633  0.00  0.00    -0.079 HD
BRANCH   2   9
ATOM      9  C   UNL     1      35.511 -17.870 -22.619  0.00  0.00    -0.050 C 
BRANCH   9  10
ATOM     10  C   UNL     1      34.959 -16.496 -22.346  0.00  0.00    -0.043 C 
ATOM     11  C   UNL     1      34.582 -16.156 -21.054  0.00  0.00    -0.006 C 
ATOM     12  C   UNL     1      34.835 -15.588 -23.389  0.00  0.00    -0.006 C 
ATOM     13  C   UNL     1      34.070 -14.883 -20.801  0.00  0.00    -0.000 C 
ATOM     14  C   UNL     1      34.324 -14.316 -23.136  0.00  0.00    -0.000 C 
ATOM     15  C   UNL     1      33.941 -13.964 -21.841  0.00  0.00    -0.000 C 
ENDBRANCH   9  10
ENDBRANCH   2   9
ENDBRANCH   1   3
BRANCH   1  16
ATOM     16  C   UNL     1      34.432 -23.138 -18.776  0.00  0.00    +0.069 C 
BRANCH  16  18
ATOM     17  O   UNL     1      32.256 -22.642 -17.866  0.00  0.00    -0.291 OA
ATOM     18  C   UNL     1      33.408 -23.061 -17.628  0.00  0.00    +0.173 C 
BRANCH  18  20
ATOM     19  N   UNL     1      36.902 -24.259 -14.475  0.00  0.00    -0.333 N 
ATOM     20  C   UNL     1      33.788 -23.473 -16.287  0.00  0.00    +0.036 C 
ATOM     21  C   UNL     1      34.548 -24.257 -13.694  0.00  0.00    -0.009 C 
ATOM     22  C   UNL     1      34.848 -24.628 -12.255  0.00  0.00    +0.028 C 
ATOM     23  C   UNL     1      35.543 -24.058 -14.676  0.00  0.00    +0.041 C 
ATOM     24  C   UNL     1      36.034 -23.868 -11.663  0.00  0.00    +0.006 C 
ATOM     25  C   UNL     1      37.399 -24.422 -12.070  0.00  0.00    +0.022 C 
ATOM     26  C   UNL     1      35.134 -23.648 -15.963  0.00  0.00    +0.017 C 
ATOM     27  C   UNL     1      37.438 -25.102 -13.430  0.00  0.00    +0.087 C 
ATOM     28  C   UNL     1      32.814 -23.707 -15.328  0.00  0.00    +0.003 C 
ATOM     29  C   UNL     1      33.190 -24.096 -14.045  0.00  0.00    -0.003 C 
ATOM     30  H   UNL     1      37.535 -23.804 -15.076  0.00  0.00    +0.147 HD
ENDBRANCH  18  20
ENDBRANCH  16  18
ENDBRANCH   1  16
TORSDOF 6
ENDMDL
MODEL 6
REMARK VINA RESULT:     -11.3      4.850     11.952
REMARK  Name = 198752
REMARK  6 active torsions:
REMARK  status: ('A' for Active; 'I' for Inactive)
REMARK    1  A    between atoms: C_1  and  C_3
REMARK    2  A    between atoms: C_1  and  C_16
REMARK    3  A    between atoms: N_2  and  C_9
REMARK    4  A    between atoms: C_9  and  C_10
REMARK    5  A    between atoms: C_16  and  C_18
REMARK    6  A    between atoms: C_18  and  C_20
REMARK                            x       y       z     vdW  Elec       q    Type
REMARK                         _______ _______ _______ _____ _____    ______ ____
ROOT
ATOM      1  C   UNL     1      33.576 -14.491 -23.631  0.00  0.00    +0.008 C 
ENDROOT
BRANCH   1   3
ATOM      2  N   UNL     1      35.085 -18.165 -21.933  0.00  0.00    +0.390 N 
ATOM      3  C   UNL     1      34.560 -15.515 -23.073  0.00  0.00    -0.004 C 
ATOM      4  C   UNL     1      34.572 -16.789 -23.924  0.00  0.00    -0.023 C 
ATOM      5  C   UNL     1      34.223 -15.867 -21.620  0.00  0.00    -0.023 C 
ATOM      6  C   UNL     1      35.481 -17.858 -23.314  0.00  0.00    -0.077 C 
ATOM      7  C   UNL     1      35.144 -16.966 -21.086  0.00  0.00    -0.077 C 
ATOM      8  H   UNL     1      34.119 -18.492 -21.948  0.00  0.00    -0.079 HD
BRANCH   2   9
ATOM      9  C   UNL     1      35.929 -19.224 -21.381  0.00  0.00    -0.050 C 
BRANCH   9  10
ATOM     10  C   UNL     1      35.130 -20.218 -20.581  0.00  0.00    -0.043 C 
ATOM     11  C   UNL     1      35.792 -21.174 -19.823  0.00  0.00    -0.006 C 
ATOM     12  C   UNL     1      33.744 -20.166 -20.613  0.00  0.00    -0.006 C 
ATOM     13  C   UNL     1      35.052 -22.096 -19.082  0.00  0.00    -0.000 C 
ATOM     14  C   UNL     1      33.004 -21.087 -19.872  0.00  0.00    -0.000 C 
ATOM     15  C   UNL     1      33.658 -22.052 -19.107  0.00  0.00    -0.000 C 
ENDBRANCH   9  10
ENDBRANCH   2   9
ENDBRANCH   1   3
BRANCH   1  16
ATOM     16  C   UNL     1      33.753 -13.124 -22.970  0.00  0.00    +0.069 C 
BRANCH  16  18
ATOM     17  O   UNL     1      31.718 -13.556 -21.752  0.00  0.00    -0.291 OA
ATOM     18  C   UNL     1      32.544 -12.694 -22.118  0.00  0.00    +0.173 C 
BRANCH  18  20
ATOM     19  N   UNL     1      33.028  -7.999 -23.264  0.00  0.00    -0.333 N 
ATOM     20  C   UNL     1      32.377 -11.298 -21.749  0.00  0.00    +0.036 C 
ATOM     21  C   UNL     1      32.047  -8.589 -21.063  0.00  0.00    -0.009 C 
ATOM     22  C   UNL     1      31.778  -7.167 -20.613  0.00  0.00    +0.028 C 
ATOM     23  C   UNL     1      32.592  -8.923 -22.323  0.00  0.00    +0.041 C 
ATOM     24  C   UNL     1      31.173  -6.285 -21.704  0.00  0.00    +0.006 C 
ATOM     25  C   UNL     1      32.190  -5.752 -22.713  0.00  0.00    +0.022 C 
ATOM     26  C   UNL     1      32.730 -10.289 -22.647  0.00  0.00    +0.017 C 
ATOM     27  C   UNL     1      33.403  -6.642 -22.936  0.00  0.00    +0.087 C 
ATOM     28  C   UNL     1      31.876 -10.963 -20.501  0.00  0.00    +0.003 C 
ATOM     29  C   UNL     1      31.714  -9.622 -20.160  0.00  0.00    -0.003 C 
ATOM     30  H   UNL     1      33.086  -8.284 -24.205  0.00  0.00    +0.147 HD
ENDBRANCH  18  20
ENDBRANCH  16  18
ENDBRANCH   1  16
TORSDOF 6
ENDMDL
MODEL 7
REMARK VINA RESULT:     -11.3      2.500     10.283
REMARK  Name = 198752
REMARK  6 active torsions:
REMARK  status: ('A' for Active; 'I' for Inactive)
REMARK    1  A    between atoms: C_1  and  C_3
REMARK    2  A    between atoms: C_1  and  C_16
REMARK    3  A    between atoms: N_2  and  C_9
REMARK    4  A    between atoms: C_9  and  C_10
REMARK    5  A    between atoms: C_16  and  C_18
REMARK    6  A    between atoms: C_18  and  C_20
REMARK                            x       y       z     vdW  Elec       q    Type
REMARK                         _______ _______ _______ _____ _____    ______ ____
ROOT
ATOM      1  C   UNL     1      35.935 -18.826 -21.032  0.00  0.00    +0.008 C 
ENDROOT
BRANCH   1   3
ATOM      2  N   UNL     1      34.236 -22.142 -18.847  0.00  0.00    +0.390 N 
ATOM      3  C   UNL     1      35.379 -20.216 -20.739  0.00  0.00    -0.004 C 
ATOM      4  C   UNL     1      33.924 -20.139 -20.265  0.00  0.00    -0.023 C 
ATOM      5  C   UNL     1      36.228 -20.940 -19.689  0.00  0.00    -0.023 C 
ATOM      6  C   UNL     1      33.392 -21.519 -19.875  0.00  0.00    -0.077 C 
ATOM      7  C   UNL     1      35.619 -22.293 -19.317  0.00  0.00    -0.077 C 
ATOM      8  H   UNL     1      34.246 -21.527 -18.033  0.00  0.00    -0.079 HD
BRANCH   2   9
ATOM      9  C   UNL     1      33.687 -23.437 -18.447  0.00  0.00    -0.050 C 
BRANCH   9  10
ATOM     10  C   UNL     1      33.267 -23.446 -17.001  0.00  0.00    -0.043 C 
ATOM     11  C   UNL     1      34.214 -23.692 -16.016  0.00  0.00    -0.006 C 
ATOM     12  C   UNL     1      31.940 -23.207 -16.671  0.00  0.00    -0.006 C 
ATOM     13  C   UNL     1      33.825 -23.700 -14.677  0.00  0.00    -0.000 C 
ATOM     14  C   UNL     1      31.552 -23.214 -15.333  0.00  0.00    -0.000 C 
ATOM     15  C   UNL     1      32.495 -23.462 -14.335  0.00  0.00    -0.000 C 
ENDBRANCH   9  10
ENDBRANCH   2   9
ENDBRANCH   1   3
BRANCH   1  16
ATOM     16  C   UNL     1      36.355 -18.686 -22.495  0.00  0.00    +0.069 C 
BRANCH  16  18
ATOM     17  O   UNL     1      34.642 -19.691 -23.860  0.00  0.00    -0.291 OA
ATOM     18  C   UNL     1      35.166 -18.627 -23.472  0.00  0.00    +0.173 C 
BRANCH  18  20
ATOM     19  N   UNL     1      34.198 -13.961 -22.532  0.00  0.00    -0.333 N 
ATOM     20  C   UNL     1      34.667 -17.341 -23.931  0.00  0.00    +0.036 C 
ATOM     21  C   UNL     1      33.721 -14.839 -24.802  0.00  0.00    -0.009 C 
ATOM     22  C   UNL     1      33.238 -13.528 -25.391  0.00  0.00    +0.028 C 
ATOM     23  C   UNL     1      34.195 -14.977 -23.479  0.00  0.00    +0.041 C 
ATOM     24  C   UNL     1      34.109 -12.331 -25.010  0.00  0.00    +0.006 C 
ATOM     25  C   UNL     1      33.838 -11.779 -23.611  0.00  0.00    +0.022 C 
ATOM     26  C   UNL     1      34.680 -16.239 -23.075  0.00  0.00    +0.017 C 
ATOM     27  C   UNL     1      33.338 -12.801 -22.602  0.00  0.00    +0.087 C 
ATOM     28  C   UNL     1      34.166 -17.207 -25.216  0.00  0.00    +0.003 C 
ATOM     29  C   UNL     1      33.696 -15.969 -25.647  0.00  0.00    -0.003 C 
ATOM     30  H   UNL     1      34.819 -14.035 -21.771  0.00  0.00    +0.147 HD
ENDBRANCH  18  20
ENDBRANCH  16  18
ENDBRANCH   1  16
TORSDOF 6
ENDMDL
MODEL 8
REMARK VINA RESULT:     -11.2      3.884      7.606
REMARK  Name = 198752
REMARK  6 active torsions:
REMARK  status: ('A' for Active; 'I' for Inactive)
REMARK    1  A    between atoms: C_1  and  C_3
REMARK    2  A    between atoms: C_1  and  C_16
REMARK    3  A    between atoms: N_2  and  C_9
REMARK    4  A    between atoms: C_9  and  C_10
REMARK    5  A    between atoms: C_16  and  C_18
REMARK    6  A    between atoms: C_18  and  C_20
REMARK                            x       y       z     vdW  Elec       q    Type
REMARK                         _______ _______ _______ _____ _____    ______ ____
ROOT
ATOM      1  C   UNL     1      34.768 -15.648 -22.125  0.00  0.00    +0.008 C 
ENDROOT
BRANCH   1   3
ATOM      2  N   UNL     1      32.347 -12.135 -21.449  0.00  0.00    +0.390 N 
ATOM      3  C   UNL     1      33.564 -14.711 -22.141  0.00  0.00    -0.004 C 
ATOM      4  C   UNL     1      33.880 -13.420 -22.904  0.00  0.00    -0.023 C 
ATOM      5  C   UNL     1      33.109 -14.373 -20.718  0.00  0.00    -0.023 C 
ATOM      6  C   UNL     1      32.712 -12.435 -22.840  0.00  0.00    -0.077 C 
ATOM      7  C   UNL     1      31.966 -13.356 -20.726  0.00  0.00    -0.077 C 
ATOM      8  H   UNL     1      33.166 -11.739 -20.987  0.00  0.00    -0.079 HD
BRANCH   2   9
ATOM      9  C   UNL     1      31.264 -11.153 -21.403  0.00  0.00    -0.050 C 
BRANCH   9  10
ATOM     10  C   UNL     1      31.787  -9.745 -21.314  0.00  0.00    -0.043 C 
ATOM     11  C   UNL     1      31.852  -8.967 -22.462  0.00  0.00    -0.006 C 
ATOM     12  C   UNL     1      32.197  -9.242 -20.086  0.00  0.00    -0.006 C 
ATOM     13  C   UNL     1      32.337  -7.661 -22.379  0.00  0.00    -0.000 C 
ATOM     14  C   UNL     1      32.682  -7.938 -20.004  0.00  0.00    -0.000 C 
ATOM     15  C   UNL     1      32.752  -7.147 -21.152  0.00  0.00    -0.000 C 
ENDBRANCH   9  10
ENDBRANCH   2   9
ENDBRANCH   1   3
BRANCH   1  16
ATOM     16  C   UNL     1      35.117 -16.138 -23.530  0.00  0.00    +0.069 C 
BRANCH  16  18
ATOM     17  O   UNL     1      34.546 -18.093 -24.821  0.00  0.00    -0.291 OA
ATOM     18  C   UNL     1      34.927 -17.655 -23.715  0.00  0.00    +0.173 C 
BRANCH  18  20
ATOM     19  N   UNL     1      33.255 -20.849 -20.460  0.00  0.00    -0.333 N 
ATOM     20  C   UNL     1      35.191 -18.560 -22.608  0.00  0.00    +0.036 C 
ATOM     21  C   UNL     1      35.680 -20.328 -20.474  0.00  0.00    -0.009 C 
ATOM     22  C   UNL     1      36.065 -21.287 -19.365  0.00  0.00    +0.028 C 
ATOM     23  C   UNL     1      34.366 -20.192 -20.973  0.00  0.00    +0.041 C 
ATOM     24  C   UNL     1      35.399 -22.657 -19.485  0.00  0.00    +0.006 C 
ATOM     25  C   UNL     1      33.953 -22.696 -18.990  0.00  0.00    +0.022 C 
ATOM     26  C   UNL     1      34.153 -19.312 -22.055  0.00  0.00    +0.017 C 
ATOM     27  C   UNL     1      33.194 -21.384 -19.118  0.00  0.00    +0.087 C 
ATOM     28  C   UNL     1      36.471 -18.670 -22.088  0.00  0.00    +0.003 C 
ATOM     29  C   UNL     1      36.714 -19.544 -21.031  0.00  0.00    -0.003 C 
ATOM     30  H   UNL     1      32.467 -20.956 -21.040  0.00  0.00    +0.147 HD
ENDBRANCH  18  20
ENDBRANCH  16  18
ENDBRANCH   1  16
TORSDOF 6
ENDMDL
MODEL 9
REMARK VINA RESULT:     -10.9      1.394      2.023
REMARK  Name = 198752
REMARK  6 active torsions:
REMARK  status: ('A' for Active; 'I' for Inactive)
REMARK    1  A    between atoms: C_1  and  C_3
REMARK    2  A    between atoms: C_1  and  C_16
REMARK    3  A    between atoms: N_2  and  C_9
REMARK    4  A    between atoms: C_9  and  C_10
REMARK    5  A    between atoms: C_16  and  C_18
REMARK    6  A    between atoms: C_18  and  C_20
REMARK                            x       y       z     vdW  Elec       q    Type
REMARK                         _______ _______ _______ _____ _____    ______ ____
ROOT
ATOM      1  C   UNL     1      35.886 -22.108 -19.331  0.00  0.00    +0.008 C 
ENDROOT
BRANCH   1   3
ATOM      2  N   UNL     1      35.565 -18.241 -21.226  0.00  0.00    +0.390 N 
ATOM      3  C   UNL     1      35.917 -21.036 -20.416  0.00  0.00    -0.004 C 
ATOM      4  C   UNL     1      36.944 -19.948 -20.085  0.00  0.00    -0.023 C 
ATOM      5  C   UNL     1      34.535 -20.402 -20.605  0.00  0.00    -0.023 C 
ATOM      6  C   UNL     1      36.911 -18.819 -21.117  0.00  0.00    -0.077 C 
ATOM      7  C   UNL     1      34.581 -19.258 -21.619  0.00  0.00    -0.077 C 
ATOM      8  H   UNL     1      35.300 -17.885 -20.308  0.00  0.00    -0.079 HD
BRANCH   2   9
ATOM      9  C   UNL     1      35.560 -17.129 -22.178  0.00  0.00    -0.050 C 
BRANCH   9  10
ATOM     10  C   UNL     1      34.549 -16.078 -21.806  0.00  0.00    -0.043 C 
ATOM     11  C   UNL     1      34.069 -15.217 -22.783  0.00  0.00    -0.006 C 
ATOM     12  C   UNL     1      34.110 -15.984 -20.493  0.00  0.00    -0.006 C 
ATOM     13  C   UNL     1      33.132 -14.242 -22.439  0.00  0.00    -0.000 C 
ATOM     14  C   UNL     1      33.173 -15.011 -20.149  0.00  0.00    -0.000 C 
ATOM     15  C   UNL     1      32.685 -14.138 -21.122  0.00  0.00    -0.000 C 
ENDBRANCH   9  10
ENDBRANCH   2   9
ENDBRANCH   1   3
BRANCH   1  16
ATOM     16  C   UNL     1      36.775 -21.733 -18.145  0.00  0.00    +0.069 C 
BRANCH  16  18
ATOM     17  O   UNL     1      37.428 -22.894 -16.136  0.00  0.00    -0.291 OA
ATOM     18  C   UNL     1      36.481 -22.553 -16.875  0.00  0.00    +0.173 C 
BRANCH  18  20
ATOM     19  N   UNL     1      33.230 -23.972 -13.557  0.00  0.00    -0.333 N 
ATOM     20  C   UNL     1      35.113 -22.921 -16.549  0.00  0.00    +0.036 C 
ATOM     21  C   UNL     1      32.468 -23.621 -15.892  0.00  0.00    -0.009 C 
ATOM     22  C   UNL     1      31.006 -23.931 -15.640  0.00  0.00    +0.028 C 
ATOM     23  C   UNL     1      33.454 -23.614 -14.880  0.00  0.00    +0.041 C 
ATOM     24  C   UNL     1      30.457 -23.289 -14.366  0.00  0.00    +0.006 C 
ATOM     25  C   UNL     1      30.816 -24.037 -13.083  0.00  0.00    +0.022 C 
ATOM     26  C   UNL     1      34.768 -23.242 -15.235  0.00  0.00    +0.017 C 
ATOM     27  C   UNL     1      32.128 -24.805 -13.131  0.00  0.00    +0.087 C 
ATOM     28  C   UNL     1      34.148 -22.965 -17.543  0.00  0.00    +0.003 C 
ATOM     29  C   UNL     1      32.839 -23.313 -17.218  0.00  0.00    -0.003 C 
ATOM     30  H   UNL     1      33.855 -23.641 -12.872  0.00  0.00    +0.147 HD
ENDBRANCH  18  20
ENDBRANCH  16  18
ENDBRANCH   1  16
TORSDOF 6
ENDMDL
