MODEL 1
REMARK VINA RESULT:     -12.8      0.000      0.000
REMARK  Name = 11581936
REMARK  5 active torsions:
REMARK  status: ('A' for Active; 'I' for Inactive)
REMARK    1  A    between atoms: C_1  and  C_9
REMARK    2  A    between atoms: C_4  and  O_19
REMARK    3  A    between atoms: C_10  and  C_14
REMARK    4  A    between atoms: O_19  and  C_20
REMARK    5  A    between atoms: C_20  and  C_22
REMARK                            x       y       z     vdW  Elec       q    Type
REMARK                         _______ _______ _______ _____ _____    ______ ____
ROOT
ATOM      1  C   UNL     1      33.799 -22.255 -18.313  0.00  0.00    +0.019 C 
ATOM      2  C   UNL     1      33.034 -21.410 -19.116  0.00  0.00    +0.005 C 
ATOM      3  C   UNL     1      35.158 -22.429 -18.577  0.00  0.00    +0.005 C 
ATOM      4  C   UNL     1      34.983 -20.915 -20.442  0.00  0.00    +0.139 C 
ATOM      5  C   UNL     1      33.629 -20.738 -20.185  0.00  0.00    +0.037 C 
ATOM      6  C   UNL     1      35.753 -21.756 -19.645  0.00  0.00    +0.037 C 
ENDROOT
BRANCH   1   9
ATOM      7  N   UNL     1      31.668 -23.799 -16.034  0.00  0.00    -0.208 N 
ATOM      8  N   UNL     1      31.862 -23.132 -17.184  0.00  0.00    -0.178 NA
ATOM      9  C   UNL     1      33.188 -22.947 -17.213  0.00  0.00    +0.100 C 
ATOM     10  C   UNL     1      33.830 -23.496 -16.083  0.00  0.00    +0.036 C 
ATOM     11  C   UNL     1      32.815 -24.042 -15.337  0.00  0.00    +0.086 C 
ATOM     12  C   UNL     1      30.332 -24.184 -15.647  0.00  0.00    +0.140 C 
BRANCH  10  14
ATOM     13  N   UNL     1      37.898 -23.614 -14.927  0.00  0.00    -0.242 NA
ATOM     14  C   UNL     1      35.207 -23.536 -15.693  0.00  0.00    +0.006 C 
ATOM     15  C   UNL     1      35.998 -22.394 -15.790  0.00  0.00    +0.021 C 
ATOM     16  C   UNL     1      35.766 -24.717 -15.211  0.00  0.00    +0.021 C 
ATOM     17  C   UNL     1      37.324 -22.485 -15.398  0.00  0.00    +0.099 C 
ATOM     18  C   UNL     1      37.102 -24.704 -14.846  0.00  0.00    +0.099 C 
ENDBRANCH  10  14
ENDBRANCH   1   9
BRANCH   4  19
ATOM     19  O   UNL     1      35.567 -20.254 -21.491  0.00  0.00    -0.468 OA
BRANCH  19  20
ATOM     20  C   UNL     1      36.318 -19.089 -21.175  0.00  0.00    +0.264 C 
BRANCH  20  22
ATOM     21  N   UNL     1      34.969 -17.125 -20.745  0.00  0.00    -0.406 NA
ATOM     22  C   UNL     1      35.592 -17.884 -21.676  0.00  0.00    +0.152 C 
ATOM     23  C   UNL     1      34.243 -15.665 -22.520  0.00  0.00    +0.026 C 
ATOM     24  C   UNL     1      34.303 -16.029 -21.159  0.00  0.00    +0.113 C 
ATOM     25  C   UNL     1      35.589 -17.607 -23.028  0.00  0.00    +0.031 C 
ATOM     26  C   UNL     1      34.903 -16.478 -23.451  0.00  0.00    +0.005 C 
ATOM     27  C   UNL     1      33.539 -14.516 -22.916  0.00  0.00    +0.002 C 
ATOM     28  C   UNL     1      33.649 -15.220 -20.234  0.00  0.00    +0.085 C 
ATOM     29  C   UNL     1      32.892 -13.724 -21.971  0.00  0.00    -0.004 C 
ATOM     30  C   UNL     1      32.947 -14.077 -20.628  0.00  0.00    -0.019 C 
ENDBRANCH  20  22
ENDBRANCH  19  20
ENDBRANCH   4  19
TORSDOF 5
ENDMDL
MODEL 2
REMARK VINA RESULT:     -12.7      0.842      2.087
REMARK  Name = 11581936
REMARK  5 active torsions:
REMARK  status: ('A' for Active; 'I' for Inactive)
REMARK    1  A    between atoms: C_1  and  C_9
REMARK    2  A    between atoms: C_4  and  O_19
REMARK    3  A    between atoms: C_10  and  C_14
REMARK    4  A    between atoms: O_19  and  C_20
REMARK    5  A    between atoms: C_20  and  C_22
REMARK                            x       y       z     vdW  Elec       q    Type
REMARK                         _______ _______ _______ _____ _____    ______ ____
ROOT
ATOM      1  C   UNL     1      33.752 -22.220 -18.374  0.00  0.00    +0.019 C 
ATOM      2  C   UNL     1      35.102 -22.406 -18.668  0.00  0.00    +0.005 C 
ATOM      3  C   UNL     1      32.979 -21.359 -19.152  0.00  0.00    +0.005 C 
ATOM      4  C   UNL     1      34.903 -20.872 -20.515  0.00  0.00    +0.139 C 
ATOM      5  C   UNL     1      35.680 -21.729 -19.743  0.00  0.00    +0.037 C 
ATOM      6  C   UNL     1      33.556 -20.683 -20.227  0.00  0.00    +0.037 C 
ENDROOT
BRANCH   1   9
ATOM      7  N   UNL     1      31.655 -23.781 -16.074  0.00  0.00    -0.208 N 
ATOM      8  N   UNL     1      31.832 -23.114 -17.227  0.00  0.00    -0.178 NA
ATOM      9  C   UNL     1      33.156 -22.917 -17.268  0.00  0.00    +0.100 C 
ATOM     10  C   UNL     1      33.814 -23.458 -16.143  0.00  0.00    +0.036 C 
ATOM     11  C   UNL     1      32.810 -24.013 -15.387  0.00  0.00    +0.086 C 
ATOM     12  C   UNL     1      30.326 -24.179 -15.675  0.00  0.00    +0.140 C 
BRANCH  10  14
ATOM     13  N   UNL     1      37.894 -23.540 -15.028  0.00  0.00    -0.242 NA
ATOM     14  C   UNL     1      35.194 -23.485 -15.765  0.00  0.00    +0.006 C 
ATOM     15  C   UNL     1      35.742 -24.630 -15.192  0.00  0.00    +0.021 C 
ATOM     16  C   UNL     1      36.000 -22.368 -15.968  0.00  0.00    +0.021 C 
ATOM     17  C   UNL     1      37.084 -24.606 -14.845  0.00  0.00    +0.099 C 
ATOM     18  C   UNL     1      37.329 -22.445 -15.586  0.00  0.00    +0.099 C 
ENDBRANCH  10  14
ENDBRANCH   1   9
BRANCH   4  19
ATOM     19  O   UNL     1      35.471 -20.208 -21.571  0.00  0.00    -0.468 OA
BRANCH  19  20
ATOM     20  C   UNL     1      36.215 -19.036 -21.264  0.00  0.00    +0.264 C 
BRANCH  20  22
ATOM     21  N   UNL     1      35.324 -17.779 -23.132  0.00  0.00    -0.406 NA
ATOM     22  C   UNL     1      35.493 -17.840 -21.791  0.00  0.00    +0.152 C 
ATOM     23  C   UNL     1      34.182 -15.680 -22.825  0.00  0.00    +0.026 C 
ATOM     24  C   UNL     1      34.677 -16.715 -23.644  0.00  0.00    +0.113 C 
ATOM     25  C   UNL     1      35.045 -16.876 -20.910  0.00  0.00    +0.031 C 
ATOM     26  C   UNL     1      34.379 -15.781 -21.441  0.00  0.00    +0.005 C 
ATOM     27  C   UNL     1      33.513 -14.583 -23.394  0.00  0.00    +0.002 C 
ATOM     28  C   UNL     1      34.481 -16.614 -25.019  0.00  0.00    +0.085 C 
ATOM     29  C   UNL     1      33.330 -14.506 -24.772  0.00  0.00    -0.004 C 
ATOM     30  C   UNL     1      33.815 -15.523 -25.585  0.00  0.00    -0.019 C 
ENDBRANCH  20  22
ENDBRANCH  19  20
ENDBRANCH   4  19
TORSDOF 5
ENDMDL
MODEL 3
REMARK VINA RESULT:     -12.4      1.246      1.904
REMARK  Name = 11581936
REMARK  5 active torsions:
REMARK  status: ('A' for Active; 'I' for Inactive)
REMARK    1  A    between atoms: C_1  and  C_9
REMARK    2  A    between atoms: C_4  and  O_19
REMARK    3  A    between atoms: C_10  and  C_14
REMARK    4  A    between atoms: O_19  and  C_20
REMARK    5  A    between atoms: C_20  and  C_22
REMARK                            x       y       z     vdW  Elec       q    Type
REMARK                         _______ _______ _______ _____ _____    ______ ____
ROOT
ATOM      1  C   UNL     1      33.906 -23.096 -16.916  0.00  0.00    +0.019 C 
ATOM      2  C   UNL     1      35.270 -22.815 -16.978  0.00  0.00    +0.005 C 
ATOM      3  C   UNL     1      33.081 -22.796 -18.000  0.00  0.00    +0.005 C 
ATOM      4  C   UNL     1      34.982 -21.938 -19.202  0.00  0.00    +0.139 C 
ATOM      5  C   UNL     1      35.810 -22.234 -18.126  0.00  0.00    +0.037 C 
ATOM      6  C   UNL     1      33.621 -22.215 -19.148  0.00  0.00    +0.037 C 
ENDROOT
BRANCH   1   9
ATOM      7  N   UNL     1      31.886 -24.359 -14.377  0.00  0.00    -0.208 N 
ATOM      8  N   UNL     1      32.022 -23.746 -15.565  0.00  0.00    -0.178 NA
ATOM      9  C   UNL     1      33.349 -23.695 -15.735  0.00  0.00    +0.100 C 
ATOM     10  C   UNL     1      34.051 -24.274 -14.657  0.00  0.00    +0.036 C 
ATOM     11  C   UNL     1      33.071 -24.697 -13.792  0.00  0.00    +0.086 C 
ATOM     12  C   UNL     1      30.568 -24.600 -13.842  0.00  0.00    +0.140 C 
BRANCH  10  14
ATOM     13  N   UNL     1      38.187 -24.769 -13.918  0.00  0.00    -0.242 NA
ATOM     14  C   UNL     1      35.451 -24.442 -14.408  0.00  0.00    +0.006 C 
ATOM     15  C   UNL     1      36.177 -23.434 -13.778  0.00  0.00    +0.021 C 
ATOM     16  C   UNL     1      36.097 -25.613 -14.791  0.00  0.00    +0.021 C 
ATOM     17  C   UNL     1      37.528 -23.645 -13.559  0.00  0.00    +0.099 C 
ATOM     18  C   UNL     1      37.452 -25.727 -14.527  0.00  0.00    +0.099 C 
ENDBRANCH  10  14
ENDBRANCH   1   9
BRANCH   4  19
ATOM     19  O   UNL     1      35.513 -21.367 -20.330  0.00  0.00    -0.468 OA
BRANCH  19  20
ATOM     20  C   UNL     1      36.265 -20.173 -20.150  0.00  0.00    +0.264 C 
BRANCH  20  22
ATOM     21  N   UNL     1      35.419 -17.960 -20.649  0.00  0.00    -0.406 NA
ATOM     22  C   UNL     1      35.818 -19.154 -21.145  0.00  0.00    +0.152 C 
ATOM     23  C   UNL     1      34.986 -17.242 -22.908  0.00  0.00    +0.026 C 
ATOM     24  C   UNL     1      35.009 -17.015 -21.517  0.00  0.00    +0.113 C 
ATOM     25  C   UNL     1      35.830 -19.468 -22.489  0.00  0.00    +0.031 C 
ATOM     26  C   UNL     1      35.407 -18.492 -23.380  0.00  0.00    +0.005 C 
ATOM     27  C   UNL     1      34.551 -16.234 -23.784  0.00  0.00    +0.002 C 
ATOM     28  C   UNL     1      34.591 -15.773 -21.048  0.00  0.00    +0.085 C 
ATOM     29  C   UNL     1      34.137 -15.000 -23.290  0.00  0.00    -0.004 C 
ATOM     30  C   UNL     1      34.157 -14.769 -21.920  0.00  0.00    -0.019 C 
ENDBRANCH  20  22
ENDBRANCH  19  20
ENDBRANCH   4  19
TORSDOF 5
ENDMDL
MODEL 4
REMARK VINA RESULT:     -12.1      1.560      3.801
REMARK  Name = 11581936
REMARK  5 active torsions:
REMARK  status: ('A' for Active; 'I' for Inactive)
REMARK    1  A    between atoms: C_1  and  C_9
REMARK    2  A    between atoms: C_4  and  O_19
REMARK    3  A    between atoms: C_10  and  C_14
REMARK    4  A    between atoms: O_19  and  C_20
REMARK    5  A    between atoms: C_20  and  C_22
REMARK                            x       y       z     vdW  Elec       q    Type
REMARK                         _______ _______ _______ _____ _____    ______ ____
ROOT
ATOM      1  C   UNL     1      34.479 -23.279 -16.425  0.00  0.00    +0.019 C 
ATOM      2  C   UNL     1      33.337 -23.201 -17.223  0.00  0.00    +0.005 C 
ATOM      3  C   UNL     1      35.678 -22.722 -16.867  0.00  0.00    +0.005 C 
ATOM      4  C   UNL     1      34.596 -22.014 -18.897  0.00  0.00    +0.139 C 
ATOM      5  C   UNL     1      33.397 -22.567 -18.463  0.00  0.00    +0.037 C 
ATOM      6  C   UNL     1      35.738 -22.086 -18.107  0.00  0.00    +0.037 C 
ENDROOT
BRANCH   1   9
ATOM      7  N   UNL     1      35.098 -24.858 -13.384  0.00  0.00    -0.208 N 
ATOM      8  N   UNL     1      35.545 -24.290 -14.517  0.00  0.00    -0.178 NA
ATOM      9  C   UNL     1      34.418 -23.932 -15.147  0.00  0.00    +0.100 C 
ATOM     10  C   UNL     1      33.262 -24.273 -14.413  0.00  0.00    +0.036 C 
ATOM     11  C   UNL     1      33.739 -24.872 -13.273  0.00  0.00    +0.086 C 
ATOM     12  C   UNL     1      36.042 -25.380 -12.425  0.00  0.00    +0.140 C 
BRANCH  10  14
ATOM     13  N   UNL     1      29.144 -23.736 -15.220  0.00  0.00    -0.242 NA
ATOM     14  C   UNL     1      31.869 -24.091 -14.687  0.00  0.00    +0.006 C 
ATOM     15  C   UNL     1      31.107 -25.148 -15.178  0.00  0.00    +0.021 C 
ATOM     16  C   UNL     1      31.265 -22.857 -14.464  0.00  0.00    +0.021 C 
ATOM     17  C   UNL     1      29.762 -24.921 -15.426  0.00  0.00    +0.099 C 
ATOM     18  C   UNL     1      29.914 -22.732 -14.744  0.00  0.00    +0.099 C 
ENDBRANCH  10  14
ENDBRANCH   1   9
BRANCH   4  19
ATOM     19  O   UNL     1      34.654 -21.390 -20.117  0.00  0.00    -0.468 OA
BRANCH  19  20
ATOM     20  C   UNL     1      35.844 -20.671 -20.412  0.00  0.00    +0.264 C 
BRANCH  20  22
ATOM     21  N   UNL     1      35.236 -18.338 -20.632  0.00  0.00    -0.406 NA
ATOM     22  C   UNL     1      35.512 -19.497 -21.272  0.00  0.00    +0.152 C 
ATOM     23  C   UNL     1      34.895 -17.309 -22.784  0.00  0.00    +0.026 C 
ATOM     24  C   UNL     1      34.932 -17.257 -21.375  0.00  0.00    +0.113 C 
ATOM     25  C   UNL     1      35.501 -19.644 -22.644  0.00  0.00    +0.031 C 
ATOM     26  C   UNL     1      35.187 -18.529 -23.407  0.00  0.00    +0.005 C 
ATOM     27  C   UNL     1      34.572 -16.161 -23.528  0.00  0.00    +0.002 C 
ATOM     28  C   UNL     1      34.641 -16.044 -20.756  0.00  0.00    +0.085 C 
ATOM     29  C   UNL     1      34.286 -14.961 -22.884  0.00  0.00    -0.004 C 
ATOM     30  C   UNL     1      34.320 -14.902 -21.496  0.00  0.00    -0.019 C 
ENDBRANCH  20  22
ENDBRANCH  19  20
ENDBRANCH   4  19
TORSDOF 5
ENDMDL
MODEL 5
REMARK VINA RESULT:     -11.4      8.047     15.526
REMARK  Name = 11581936
REMARK  5 active torsions:
REMARK  status: ('A' for Active; 'I' for Inactive)
REMARK    1  A    between atoms: C_1  and  C_9
REMARK    2  A    between atoms: C_4  and  O_19
REMARK    3  A    between atoms: C_10  and  C_14
REMARK    4  A    between atoms: O_19  and  C_20
REMARK    5  A    between atoms: C_20  and  C_22
REMARK                            x       y       z     vdW  Elec       q    Type
REMARK                         _______ _______ _______ _____ _____    ______ ____
ROOT
ATOM      1  C   UNL     1      31.377  -6.154 -22.229  0.00  0.00    +0.019 C 
ATOM      2  C   UNL     1      30.867  -7.216 -22.974  0.00  0.00    +0.005 C 
ATOM      3  C   UNL     1      32.142  -6.404 -21.090  0.00  0.00    +0.005 C 
ATOM      4  C   UNL     1      31.887  -8.771 -21.444  0.00  0.00    +0.139 C 
ATOM      5  C   UNL     1      31.123  -8.530 -22.580  0.00  0.00    +0.037 C 
ATOM      6  C   UNL     1      32.399  -7.717 -20.696  0.00  0.00    +0.037 C 
ENDROOT
BRANCH   1   9
ATOM      7  N   UNL     1      30.262  -2.877 -22.610  0.00  0.00    -0.208 N 
ATOM      8  N   UNL     1      30.245  -4.047 -21.948  0.00  0.00    -0.178 NA
ATOM      9  C   UNL     1      31.114  -4.801 -22.634  0.00  0.00    +0.100 C 
ATOM     10  C   UNL     1      31.678  -4.110 -23.727  0.00  0.00    +0.036 C 
ATOM     11  C   UNL     1      31.105  -2.862 -23.682  0.00  0.00    +0.086 C 
ATOM     12  C   UNL     1      29.432  -1.787 -22.157  0.00  0.00    +0.140 C 
BRANCH  10  14
ATOM     13  N   UNL     1      34.496  -5.278 -26.658  0.00  0.00    -0.242 NA
ATOM     14  C   UNL     1      32.631  -4.506 -24.719  0.00  0.00    +0.006 C 
ATOM     15  C   UNL     1      32.619  -3.915 -25.979  0.00  0.00    +0.021 C 
ATOM     16  C   UNL     1      33.579  -5.484 -24.430  0.00  0.00    +0.021 C 
ATOM     17  C   UNL     1      33.563  -4.332 -26.904  0.00  0.00    +0.099 C 
ATOM     18  C   UNL     1      34.480  -5.831 -25.424  0.00  0.00    +0.099 C 
ENDBRANCH  10  14
ENDBRANCH   1   9
BRANCH   4  19
ATOM     19  O   UNL     1      32.139 -10.062 -21.057  0.00  0.00    -0.468 OA
BRANCH  19  20
ATOM     20  C   UNL     1      31.453 -11.088 -21.764  0.00  0.00    +0.264 C 
BRANCH  20  22
ATOM     21  N   UNL     1      32.909 -12.875 -22.505  0.00  0.00    -0.406 NA
ATOM     22  C   UNL     1      32.126 -12.396 -21.511  0.00  0.00    +0.152 C 
ATOM     23  C   UNL     1      33.386 -14.786 -21.117  0.00  0.00    +0.026 C 
ATOM     24  C   UNL     1      33.532 -14.053 -22.313  0.00  0.00    +0.113 C 
ATOM     25  C   UNL     1      31.923 -13.041 -20.308  0.00  0.00    +0.031 C 
ATOM     26  C   UNL     1      32.566 -14.255 -20.113  0.00  0.00    +0.005 C 
ATOM     27  C   UNL     1      34.050 -16.013 -20.952  0.00  0.00    +0.002 C 
ATOM     28  C   UNL     1      34.347 -14.582 -23.311  0.00  0.00    +0.085 C 
ATOM     29  C   UNL     1      34.860 -16.519 -21.966  0.00  0.00    -0.004 C 
ATOM     30  C   UNL     1      35.008 -15.803 -23.146  0.00  0.00    -0.019 C 
ENDBRANCH  20  22
ENDBRANCH  19  20
ENDBRANCH   4  19
TORSDOF 5
ENDMDL
MODEL 6
REMARK VINA RESULT:     -11.2      1.620      3.788
REMARK  Name = 11581936
REMARK  5 active torsions:
REMARK  status: ('A' for Active; 'I' for Inactive)
REMARK    1  A    between atoms: C_1  and  C_9
REMARK    2  A    between atoms: C_4  and  O_19
REMARK    3  A    between atoms: C_10  and  C_14
REMARK    4  A    between atoms: O_19  and  C_20
REMARK    5  A    between atoms: C_20  and  C_22
REMARK                            x       y       z     vdW  Elec       q    Type
REMARK                         _______ _______ _______ _____ _____    ______ ____
ROOT
ATOM      1  C   UNL     1      34.627 -23.037 -17.002  0.00  0.00    +0.019 C 
ATOM      2  C   UNL     1      33.391 -22.849 -17.621  0.00  0.00    +0.005 C 
ATOM      3  C   UNL     1      35.780 -22.493 -17.566  0.00  0.00    +0.005 C 
ATOM      4  C   UNL     1      34.464 -21.578 -19.363  0.00  0.00    +0.139 C 
ATOM      5  C   UNL     1      33.310 -22.117 -18.806  0.00  0.00    +0.037 C 
ATOM      6  C   UNL     1      35.699 -21.761 -18.751  0.00  0.00    +0.037 C 
ENDROOT
BRANCH   1   9
ATOM      7  N   UNL     1      35.581 -24.881 -14.207  0.00  0.00    -0.208 N 
ATOM      8  N   UNL     1      35.894 -24.239 -15.345  0.00  0.00    -0.178 NA
ATOM      9  C   UNL     1      34.711 -23.790 -15.782  0.00  0.00    +0.100 C 
ATOM     10  C   UNL     1      33.651 -24.148 -14.922  0.00  0.00    +0.036 C 
ATOM     11  C   UNL     1      34.250 -24.855 -13.908  0.00  0.00    +0.086 C 
ATOM     12  C   UNL     1      36.621 -25.514 -13.433  0.00  0.00    +0.140 C 
BRANCH  10  14
ATOM     13  N   UNL     1      29.492 -23.394 -15.105  0.00  0.00    -0.242 NA
ATOM     14  C   UNL     1      32.244 -23.893 -14.983  0.00  0.00    +0.006 C 
ATOM     15  C   UNL     1      31.706 -22.770 -14.360  0.00  0.00    +0.021 C 
ATOM     16  C   UNL     1      31.402 -24.766 -15.667  0.00  0.00    +0.021 C 
ATOM     17  C   UNL     1      30.338 -22.568 -14.450  0.00  0.00    +0.099 C 
ATOM     18  C   UNL     1      30.048 -24.475 -15.698  0.00  0.00    +0.099 C 
ENDBRANCH  10  14
ENDBRANCH   1   9
BRANCH   4  19
ATOM     19  O   UNL     1      34.384 -20.858 -20.527  0.00  0.00    -0.468 OA
BRANCH  19  20
ATOM     20  C   UNL     1      35.576 -20.219 -20.967  0.00  0.00    +0.264 C 
BRANCH  20  22
ATOM     21  N   UNL     1      35.051 -18.770 -22.834  0.00  0.00    -0.406 NA
ATOM     22  C   UNL     1      35.242 -18.865 -21.498  0.00  0.00    +0.152 C 
ATOM     23  C   UNL     1      34.629 -16.416 -22.539  0.00  0.00    +0.026 C 
ATOM     24  C   UNL     1      34.748 -17.563 -23.350  0.00  0.00    +0.113 C 
ATOM     25  C   UNL     1      35.147 -17.799 -20.626  0.00  0.00    +0.031 C 
ATOM     26  C   UNL     1      34.834 -16.557 -21.161  0.00  0.00    +0.005 C 
ATOM     27  C   UNL     1      34.313 -15.172 -23.112  0.00  0.00    +0.002 C 
ATOM     28  C   UNL     1      34.543 -17.422 -24.720  0.00  0.00    +0.085 C 
ATOM     29  C   UNL     1      34.113 -15.059 -24.486  0.00  0.00    -0.004 C 
ATOM     30  C   UNL     1      34.229 -16.185 -25.290  0.00  0.00    -0.019 C 
ENDBRANCH  20  22
ENDBRANCH  19  20
ENDBRANCH   4  19
TORSDOF 5
ENDMDL
MODEL 7
REMARK VINA RESULT:     -11.2      1.918      2.979
REMARK  Name = 11581936
REMARK  5 active torsions:
REMARK  status: ('A' for Active; 'I' for Inactive)
REMARK    1  A    between atoms: C_1  and  C_9
REMARK    2  A    between atoms: C_4  and  O_19
REMARK    3  A    between atoms: C_10  and  C_14
REMARK    4  A    between atoms: O_19  and  C_20
REMARK    5  A    between atoms: C_20  and  C_22
REMARK                            x       y       z     vdW  Elec       q    Type
REMARK                         _______ _______ _______ _____ _____    ______ ____
ROOT
ATOM      1  C   UNL     1      34.288 -23.344 -16.242  0.00  0.00    +0.019 C 
ATOM      2  C   UNL     1      33.542 -23.114 -17.398  0.00  0.00    +0.005 C 
ATOM      3  C   UNL     1      35.613 -22.915 -16.171  0.00  0.00    +0.005 C 
ATOM      4  C   UNL     1      35.443 -22.030 -18.403  0.00  0.00    +0.139 C 
ATOM      5  C   UNL     1      34.122 -22.455 -18.482  0.00  0.00    +0.037 C 
ATOM      6  C   UNL     1      36.193 -22.255 -17.255  0.00  0.00    +0.037 C 
ENDROOT
BRANCH   1   9
ATOM      7  N   UNL     1      32.186 -24.848 -13.909  0.00  0.00    -0.208 N 
ATOM      8  N   UNL     1      32.364 -24.190 -15.068  0.00  0.00    -0.178 NA
ATOM      9  C   UNL     1      33.692 -24.022 -15.126  0.00  0.00    +0.100 C 
ATOM     10  C   UNL     1      34.351 -24.574 -14.007  0.00  0.00    +0.036 C 
ATOM     11  C   UNL     1      33.345 -25.103 -13.237  0.00  0.00    +0.086 C 
ATOM     12  C   UNL     1      30.855 -25.214 -13.492  0.00  0.00    +0.140 C 
BRANCH  10  14
ATOM     13  N   UNL     1      38.443 -24.740 -12.944  0.00  0.00    -0.242 NA
ATOM     14  C   UNL     1      35.736 -24.630 -13.647  0.00  0.00    +0.006 C 
ATOM     15  C   UNL     1      36.581 -25.555 -14.253  0.00  0.00    +0.021 C 
ATOM     16  C   UNL     1      36.248 -23.760 -12.688  0.00  0.00    +0.021 C 
ATOM     17  C   UNL     1      37.913 -25.569 -13.871  0.00  0.00    +0.099 C 
ATOM     18  C   UNL     1      37.594 -23.855 -12.375  0.00  0.00    +0.099 C 
ENDBRANCH  10  14
ENDBRANCH   1   9
BRANCH   4  19
ATOM     19  O   UNL     1      36.012 -21.382 -19.469  0.00  0.00    -0.468 OA
BRANCH  19  20
ATOM     20  C   UNL     1      35.293 -21.412 -20.695  0.00  0.00    +0.264 C 
BRANCH  20  22
ATOM     21  N   UNL     1      34.841 -19.952 -22.573  0.00  0.00    -0.406 NA
ATOM     22  C   UNL     1      35.295 -20.048 -21.302  0.00  0.00    +0.152 C 
ATOM     23  C   UNL     1      35.272 -17.583 -22.476  0.00  0.00    +0.026 C 
ATOM     24  C   UNL     1      34.827 -18.737 -23.154  0.00  0.00    +0.113 C 
ATOM     25  C   UNL     1      35.749 -18.977 -20.560  0.00  0.00    +0.031 C 
ATOM     26  C   UNL     1      35.734 -17.727 -21.162  0.00  0.00    +0.005 C 
ATOM     27  C   UNL     1      35.245 -16.332 -23.115  0.00  0.00    +0.002 C 
ATOM     28  C   UNL     1      34.367 -18.595 -24.460  0.00  0.00    +0.085 C 
ATOM     29  C   UNL     1      34.780 -16.216 -24.422  0.00  0.00    -0.004 C 
ATOM     30  C   UNL     1      34.341 -17.349 -25.095  0.00  0.00    -0.019 C 
ENDBRANCH  20  22
ENDBRANCH  19  20
ENDBRANCH   4  19
TORSDOF 5
ENDMDL
MODEL 8
REMARK VINA RESULT:     -11.0      8.239     16.023
REMARK  Name = 11581936
REMARK  5 active torsions:
REMARK  status: ('A' for Active; 'I' for Inactive)
REMARK    1  A    between atoms: C_1  and  C_9
REMARK    2  A    between atoms: C_4  and  O_19
REMARK    3  A    between atoms: C_10  and  C_14
REMARK    4  A    between atoms: O_19  and  C_20
REMARK    5  A    between atoms: C_20  and  C_22
REMARK                            x       y       z     vdW  Elec       q    Type
REMARK                         _______ _______ _______ _____ _____    ______ ____
ROOT
ATOM      1  C   UNL     1      33.064  -6.623 -23.855  0.00  0.00    +0.019 C 
ATOM      2  C   UNL     1      33.814  -6.906 -22.713  0.00  0.00    +0.005 C 
ATOM      3  C   UNL     1      31.852  -7.278 -24.074  0.00  0.00    +0.005 C 
ATOM      4  C   UNL     1      32.143  -8.493 -22.016  0.00  0.00    +0.139 C 
ATOM      5  C   UNL     1      33.351  -7.845 -21.791  0.00  0.00    +0.037 C 
ATOM      6  C   UNL     1      31.389  -8.216 -23.151  0.00  0.00    +0.037 C 
ENDROOT
BRANCH   1   9
ATOM      7  N   UNL     1      34.745  -4.816 -26.310  0.00  0.00    -0.208 N 
ATOM      8  N   UNL     1      34.605  -5.928 -25.569  0.00  0.00    -0.178 NA
ATOM      9  C   UNL     1      33.539  -5.656 -24.805  0.00  0.00    +0.100 C 
ATOM     10  C   UNL     1      33.007  -4.375 -25.063  0.00  0.00    +0.036 C 
ATOM     11  C   UNL     1      33.813  -3.856 -26.046  0.00  0.00    +0.086 C 
ATOM     12  C   UNL     1      35.814  -4.730 -27.277  0.00  0.00    +0.140 C 
BRANCH  10  14
ATOM     13  N   UNL     1      29.721  -2.297 -23.395  0.00  0.00    -0.242 NA
ATOM     14  C   UNL     1      31.896  -3.671 -24.498  0.00  0.00    +0.006 C 
ATOM     15  C   UNL     1      31.064  -2.907 -25.311  0.00  0.00    +0.021 C 
ATOM     16  C   UNL     1      31.637  -3.747 -23.132  0.00  0.00    +0.021 C 
ATOM     17  C   UNL     1      30.001  -2.246 -24.716  0.00  0.00    +0.099 C 
ATOM     18  C   UNL     1      30.549  -3.049 -22.635  0.00  0.00    +0.099 C 
ENDBRANCH  10  14
ENDBRANCH   1   9
BRANCH   4  19
ATOM     19  O   UNL     1      31.688  -9.415 -21.109  0.00  0.00    -0.468 OA
BRANCH  19  20
ATOM     20  C   UNL     1      30.962 -10.521 -21.630  0.00  0.00    +0.264 C 
BRANCH  20  22
ATOM     21  N   UNL     1      32.455 -12.330 -22.230  0.00  0.00    -0.406 NA
ATOM     22  C   UNL     1      31.667 -11.787 -21.273  0.00  0.00    +0.152 C 
ATOM     23  C   UNL     1      32.986 -14.106 -20.689  0.00  0.00    +0.026 C 
ATOM     24  C   UNL     1      33.107 -13.474 -21.944  0.00  0.00    +0.113 C 
ATOM     25  C   UNL     1      31.486 -12.333 -20.018  0.00  0.00    +0.031 C 
ATOM     26  C   UNL     1      32.160 -13.511 -19.727  0.00  0.00    +0.005 C 
ATOM     27  C   UNL     1      33.680 -15.299 -20.426  0.00  0.00    +0.002 C 
ATOM     28  C   UNL     1      33.929 -14.065 -22.900  0.00  0.00    +0.085 C 
ATOM     29  C   UNL     1      34.495 -15.870 -21.400  0.00  0.00    -0.004 C 
ATOM     30  C   UNL     1      34.619 -15.252 -22.638  0.00  0.00    -0.019 C 
ENDBRANCH  20  22
ENDBRANCH  19  20
ENDBRANCH   4  19
TORSDOF 5
ENDMDL
MODEL 9
REMARK VINA RESULT:     -11.0      2.988      5.415
REMARK  Name = 11581936
REMARK  5 active torsions:
REMARK  status: ('A' for Active; 'I' for Inactive)
REMARK    1  A    between atoms: C_1  and  C_9
REMARK    2  A    between atoms: C_4  and  O_19
REMARK    3  A    between atoms: C_10  and  C_14
REMARK    4  A    between atoms: O_19  and  C_20
REMARK    5  A    between atoms: C_20  and  C_22
REMARK                            x       y       z     vdW  Elec       q    Type
REMARK                         _______ _______ _______ _____ _____    ______ ____
ROOT
ATOM      1  C   UNL     1      34.817 -24.207 -13.620  0.00  0.00    +0.019 C 
ATOM      2  C   UNL     1      33.447 -24.339 -13.840  0.00  0.00    +0.005 C 
ATOM      3  C   UNL     1      35.639 -23.692 -14.622  0.00  0.00    +0.005 C 
ATOM      4  C   UNL     1      33.722 -23.441 -16.057  0.00  0.00    +0.139 C 
ATOM      5  C   UNL     1      32.897 -23.954 -15.063  0.00  0.00    +0.037 C 
ATOM      6  C   UNL     1      35.090 -23.306 -15.845  0.00  0.00    +0.037 C 
ENDROOT
BRANCH   1   9
ATOM      7  N   UNL     1      35.571 -24.817 -10.276  0.00  0.00    -0.208 N 
ATOM      8  N   UNL     1      34.763 -24.295 -11.215  0.00  0.00    -0.178 NA
ATOM      9  C   UNL     1      35.383 -24.603 -12.361  0.00  0.00    +0.100 C 
ATOM     10  C   UNL     1      36.581 -25.318 -12.147  0.00  0.00    +0.036 C 
ATOM     11  C   UNL     1      36.673 -25.441 -10.782  0.00  0.00    +0.086 C 
ATOM     12  C   UNL     1      35.227 -24.683  -8.881  0.00  0.00    +0.140 C 
BRANCH  10  14
ATOM     13  N   UNL     1      39.457 -26.871 -14.834  0.00  0.00    -0.242 NA
ATOM     14  C   UNL     1      37.554 -25.844 -13.055  0.00  0.00    +0.006 C 
ATOM     15  C   UNL     1      37.253 -26.953 -13.842  0.00  0.00    +0.021 C 
ATOM     16  C   UNL     1      38.809 -25.250 -13.161  0.00  0.00    +0.021 C 
ATOM     17  C   UNL     1      38.229 -27.423 -14.706  0.00  0.00    +0.099 C 
ATOM     18  C   UNL     1      39.715 -25.796 -14.055  0.00  0.00    +0.099 C 
ENDBRANCH  10  14
ENDBRANCH   1   9
BRANCH   4  19
ATOM     19  O   UNL     1      33.182 -23.062 -17.259  0.00  0.00    -0.468 OA
BRANCH  19  20
ATOM     20  C   UNL     1      33.925 -23.390 -18.426  0.00  0.00    +0.264 C 
BRANCH  20  22
ATOM     21  N   UNL     1      35.425 -21.783 -19.439  0.00  0.00    -0.406 NA
ATOM     22  C   UNL     1      34.140 -22.156 -19.238  0.00  0.00    +0.152 C 
ATOM     23  C   UNL     1      34.609 -19.907 -20.713  0.00  0.00    +0.026 C 
ATOM     24  C   UNL     1      35.659 -20.674 -20.167  0.00  0.00    +0.113 C 
ATOM     25  C   UNL     1      33.049 -21.470 -19.731  0.00  0.00    +0.031 C 
ATOM     26  C   UNL     1      33.293 -20.328 -20.480  0.00  0.00    +0.005 C 
ATOM     27  C   UNL     1      34.890 -18.755 -21.466  0.00  0.00    +0.002 C 
ATOM     28  C   UNL     1      36.966 -20.255 -20.399  0.00  0.00    +0.085 C 
ATOM     29  C   UNL     1      36.207 -18.357 -21.683  0.00  0.00    -0.004 C 
ATOM     30  C   UNL     1      37.246 -19.109 -21.148  0.00  0.00    -0.019 C 
ENDBRANCH  20  22
ENDBRANCH  19  20
ENDBRANCH   4  19
TORSDOF 5
ENDMDL
