MODEL 1
REMARK VINA RESULT:     -11.3      0.000      0.000
REMARK  Name = 24878044
REMARK  6 active torsions:
REMARK  status: ('A' for Active; 'I' for Inactive)
REMARK    1  A    between atoms: N_2  and  C_6
REMARK    2  A    between atoms: C_3  and  C_18
REMARK    3  A    between atoms: C_7  and  S_12
REMARK    4  A    between atoms: S_12  and  N_15
REMARK    5  A    between atoms: C_18  and  S_19
REMARK    6  A    between atoms: S_19  and  C_31
REMARK                            x       y       z     vdW  Elec       q    Type
REMARK                         _______ _______ _______ _____ _____    ______ ____
ROOT
ATOM      1  O   UNL     1      34.245 -19.185 -24.148  0.00  0.00    -0.274 OA
ATOM      2  N   UNL     1      35.131 -18.408 -22.114  0.00  0.00    -0.283 N 
ATOM      3  C   UNL     1      34.819 -18.339 -23.468  0.00  0.00    +0.238 C 
ATOM      4  H   UNL     1      35.609 -17.634 -21.738  0.00  0.00    +0.155 HD
ENDROOT
BRANCH   2   6
ATOM      5 CL   UNL     1      37.515 -19.747 -20.770  0.00  0.00    -0.081 Cl
ATOM      6  C   UNL     1      34.838 -19.462 -21.216  0.00  0.00    +0.061 C 
ATOM      7  C   UNL     1      34.192 -21.529 -19.459  0.00  0.00    +0.123 C 
ATOM      8  C   UNL     1      35.850 -20.147 -20.544  0.00  0.00    +0.072 C 
ATOM      9  C   UNL     1      33.503 -19.811 -21.010  0.00  0.00    +0.017 C 
ATOM     10  C   UNL     1      35.527 -21.180 -19.665  0.00  0.00    +0.033 C 
ATOM     11  C   UNL     1      33.180 -20.845 -20.131  0.00  0.00    +0.021 C 
BRANCH   7  12
ATOM     12  S   UNL     1      33.787 -22.824 -18.359  0.00  0.00    +0.057 S 
ATOM     13  O   UNL     1      34.793 -22.865 -17.307  0.00  0.00    -0.153 OA
ATOM     14  O   UNL     1      32.378 -22.710 -18.009  0.00  0.00    -0.153 OA
BRANCH  12  15
ATOM     15  N   UNL     1      33.993 -24.186 -19.370  0.00  0.00    -0.203 NA
ATOM     16  H   UNL     1      33.094 -24.653 -19.497  0.00  0.00    +0.144 HD
ATOM     17  H   UNL     1      34.655 -24.832 -18.941  0.00  0.00    +0.144 HD
ENDBRANCH  12  15
ENDBRANCH   7  12
ENDBRANCH   2   6
BRANCH   3  18
ATOM     18  C   UNL     1      35.298 -17.046 -24.094  0.00  0.00    +0.152 C 
BRANCH  18  19
ATOM     19  S   UNL     1      33.873 -15.975 -24.383  0.00  0.00    -0.047 S 
BRANCH  19  31
ATOM     20  O   UNL     1      34.241 -15.517 -21.845  0.00  0.00    -0.262 OA
ATOM     21  N   UNL     1      33.435 -13.661 -23.042  0.00  0.00    -0.250 N 
ATOM     22  C   UNL     1      34.041 -11.463 -24.040  0.00  0.00    +0.027 C 
ATOM     23  C   UNL     1      32.959 -10.754 -23.253  0.00  0.00    +0.029 C 
ATOM     24  C   UNL     1      33.624 -12.901 -24.296  0.00  0.00    +0.099 C 
ATOM     25  C   UNL     1      32.544 -11.560 -22.051  0.00  0.00    -0.009 C 
ATOM     26  C   UNL     1      32.770 -12.953 -21.962  0.00  0.00    +0.051 C 
ATOM     27  C   UNL     1      31.875 -10.881 -21.016  0.00  0.00    -0.007 C 
ATOM     28  C   UNL     1      32.287 -13.619 -20.820  0.00  0.00    +0.014 C 
ATOM     29  C   UNL     1      31.431 -11.560 -19.888  0.00  0.00    -0.022 C 
ATOM     30  C   UNL     1      31.633 -12.930 -19.793  0.00  0.00    -0.003 C 
ATOM     31  C   UNL     1      33.878 -14.996 -22.896  0.00  0.00    +0.280 C 
ATOM     32  C   UNL     1      30.757 -10.821 -18.783  0.00  0.00    +0.031 C 
ENDBRANCH  19  31
ENDBRANCH  18  19
ENDBRANCH   3  18
TORSDOF 6
ENDMDL
MODEL 2
REMARK VINA RESULT:     -11.1      1.069      2.208
REMARK  Name = 24878044
REMARK  6 active torsions:
REMARK  status: ('A' for Active; 'I' for Inactive)
REMARK    1  A    between atoms: N_2  and  C_6
REMARK    2  A    between atoms: C_3  and  C_18
REMARK    3  A    between atoms: C_7  and  S_12
REMARK    4  A    between atoms: S_12  and  N_15
REMARK    5  A    between atoms: C_18  and  S_19
REMARK    6  A    between atoms: S_19  and  C_31
REMARK                            x       y       z     vdW  Elec       q    Type
REMARK                         _______ _______ _______ _____ _____    ______ ____
ROOT
ATOM      1  O   UNL     1      34.587 -19.906 -24.016  0.00  0.00    -0.274 OA
ATOM      2  N   UNL     1      34.698 -18.767 -21.963  0.00  0.00    -0.283 N 
ATOM      3  C   UNL     1      34.725 -18.885 -23.348  0.00  0.00    +0.238 C 
ATOM      4  H   UNL     1      34.842 -17.863 -21.600  0.00  0.00    +0.155 HD
ENDROOT
BRANCH   2   6
ATOM      5 CL   UNL     1      37.187 -19.939 -20.653  0.00  0.00    -0.081 Cl
ATOM      6  C   UNL     1      34.487 -19.797 -21.016  0.00  0.00    +0.061 C 
ATOM      7  C   UNL     1      34.000 -21.821 -19.159  0.00  0.00    +0.123 C 
ATOM      8  C   UNL     1      35.552 -20.406 -20.354  0.00  0.00    +0.072 C 
ATOM      9  C   UNL     1      33.177 -20.200 -20.750  0.00  0.00    +0.017 C 
ATOM     10  C   UNL     1      35.308 -21.418 -19.425  0.00  0.00    +0.033 C 
ATOM     11  C   UNL     1      32.934 -21.212 -19.821  0.00  0.00    +0.021 C 
BRANCH   7  12
ATOM     12  S   UNL     1      33.694 -23.087 -17.996  0.00  0.00    +0.057 S 
ATOM     13  O   UNL     1      34.781 -23.094 -17.027  0.00  0.00    -0.153 OA
ATOM     14  O   UNL     1      32.316 -22.973 -17.539  0.00  0.00    -0.153 OA
BRANCH  12  15
ATOM     15  N   UNL     1      33.830 -24.475 -18.985  0.00  0.00    -0.203 NA
ATOM     16  H   UNL     1      33.140 -25.168 -18.694  0.00  0.00    +0.144 HD
ATOM     17  H   UNL     1      34.766 -24.868 -18.894  0.00  0.00    +0.144 HD
ENDBRANCH  12  15
ENDBRANCH   7  12
ENDBRANCH   2   6
BRANCH   3  18
ATOM     18  C   UNL     1      34.979 -17.554 -24.025  0.00  0.00    +0.152 C 
BRANCH  18  19
ATOM     19  S   UNL     1      35.296 -16.306 -22.758  0.00  0.00    -0.047 S 
BRANCH  19  31
ATOM     20  O   UNL     1      33.868 -14.879 -24.404  0.00  0.00    -0.262 OA
ATOM     21  N   UNL     1      33.555 -14.324 -22.141  0.00  0.00    -0.250 N 
ATOM     22  C   UNL     1      32.022 -14.521 -20.190  0.00  0.00    +0.027 C 
ATOM     23  C   UNL     1      31.976 -13.018 -20.014  0.00  0.00    +0.029 C 
ATOM     24  C   UNL     1      33.353 -14.920 -20.804  0.00  0.00    +0.099 C 
ATOM     25  C   UNL     1      32.374 -12.310 -21.282  0.00  0.00    -0.009 C 
ATOM     26  C   UNL     1      33.137 -12.942 -22.291  0.00  0.00    +0.051 C 
ATOM     27  C   UNL     1      31.992 -10.962 -21.417  0.00  0.00    -0.007 C 
ATOM     28  C   UNL     1      33.505 -12.168 -23.408  0.00  0.00    +0.014 C 
ATOM     29  C   UNL     1      32.350 -10.230 -22.543  0.00  0.00    -0.022 C 
ATOM     30  C   UNL     1      33.110 -10.832 -23.535  0.00  0.00    -0.003 C 
ATOM     31  C   UNL     1      34.117 -15.053 -23.215  0.00  0.00    +0.280 C 
ATOM     32  C   UNL     1      31.907  -8.814 -22.690  0.00  0.00    +0.031 C 
ENDBRANCH  19  31
ENDBRANCH  18  19
ENDBRANCH   3  18
TORSDOF 6
ENDMDL
MODEL 3
REMARK VINA RESULT:     -10.9      3.326      4.487
REMARK  Name = 24878044
REMARK  6 active torsions:
REMARK  status: ('A' for Active; 'I' for Inactive)
REMARK    1  A    between atoms: N_2  and  C_6
REMARK    2  A    between atoms: C_3  and  C_18
REMARK    3  A    between atoms: C_7  and  S_12
REMARK    4  A    between atoms: S_12  and  N_15
REMARK    5  A    between atoms: C_18  and  S_19
REMARK    6  A    between atoms: S_19  and  C_31
REMARK                            x       y       z     vdW  Elec       q    Type
REMARK                         _______ _______ _______ _____ _____    ______ ____
ROOT
ATOM      1  O   UNL     1      36.634 -20.533 -19.939  0.00  0.00    -0.274 OA
ATOM      2  N   UNL     1      34.832 -21.661 -18.937  0.00  0.00    -0.283 N 
ATOM      3  C   UNL     1      35.453 -20.867 -19.894  0.00  0.00    +0.238 C 
ATOM      4  H   UNL     1      33.867 -21.813 -19.056  0.00  0.00    +0.155 HD
ENDROOT
BRANCH   2   6
ATOM      5 CL   UNL     1      33.010 -23.384 -17.206  0.00  0.00    -0.081 Cl
ATOM      6  C   UNL     1      35.429 -22.278 -17.811  0.00  0.00    +0.061 C 
ATOM      7  C   UNL     1      36.669 -23.465 -15.612  0.00  0.00    +0.123 C 
ATOM      8  C   UNL     1      34.692 -23.088 -16.949  0.00  0.00    +0.072 C 
ATOM      9  C   UNL     1      36.787 -22.061 -17.574  0.00  0.00    +0.017 C 
ATOM     10  C   UNL     1      35.312 -23.682 -15.850  0.00  0.00    +0.033 C 
ATOM     11  C   UNL     1      37.407 -22.654 -16.474  0.00  0.00    +0.021 C 
BRANCH   7  12
ATOM     12  S   UNL     1      37.445 -24.207 -14.235  0.00  0.00    +0.057 S 
ATOM     13  O   UNL     1      37.649 -23.187 -13.217  0.00  0.00    -0.153 OA
ATOM     14  O   UNL     1      36.726 -25.429 -13.902  0.00  0.00    -0.153 OA
BRANCH  12  15
ATOM     15  N   UNL     1      38.960 -24.628 -14.905  0.00  0.00    -0.203 NA
ATOM     16  H   UNL     1      38.965 -25.622 -15.137  0.00  0.00    +0.144 HD
ATOM     17  H   UNL     1      39.697 -24.434 -14.227  0.00  0.00    +0.144 HD
ENDBRANCH  12  15
ENDBRANCH   7  12
ENDBRANCH   2   6
BRANCH   3  18
ATOM     18  C   UNL     1      34.479 -20.388 -20.950  0.00  0.00    +0.152 C 
BRANCH  18  19
ATOM     19  S   UNL     1      35.387 -19.444 -22.195  0.00  0.00    -0.047 S 
BRANCH  19  31
ATOM     20  O   UNL     1      35.641 -17.566 -20.408  0.00  0.00    -0.262 OA
ATOM     21  N   UNL     1      34.629 -16.851 -22.405  0.00  0.00    -0.250 N 
ATOM     22  C   UNL     1      34.969 -15.580 -24.518  0.00  0.00    +0.027 C 
ATOM     23  C   UNL     1      33.789 -14.678 -24.221  0.00  0.00    +0.029 C 
ATOM     24  C   UNL     1      34.745 -16.938 -23.876  0.00  0.00    +0.099 C 
ATOM     25  C   UNL     1      33.457 -14.684 -22.753  0.00  0.00    -0.009 C 
ATOM     26  C   UNL     1      33.857 -15.733 -21.893  0.00  0.00    +0.051 C 
ATOM     27  C   UNL     1      32.685 -13.615 -22.260  0.00  0.00    -0.007 C 
ATOM     28  C   UNL     1      33.439 -15.667 -20.550  0.00  0.00    +0.014 C 
ATOM     29  C   UNL     1      32.308 -13.565 -20.923  0.00  0.00    -0.022 C 
ATOM     30  C   UNL     1      32.682 -14.594 -20.070  0.00  0.00    -0.003 C 
ATOM     31  C   UNL     1      35.237 -17.794 -21.543  0.00  0.00    +0.280 C 
ATOM     32  C   UNL     1      31.522 -12.408 -20.407  0.00  0.00    +0.031 C 
ENDBRANCH  19  31
ENDBRANCH  18  19
ENDBRANCH   3  18
TORSDOF 6
ENDMDL
MODEL 4
REMARK VINA RESULT:     -10.6      5.622     11.808
REMARK  Name = 24878044
REMARK  6 active torsions:
REMARK  status: ('A' for Active; 'I' for Inactive)
REMARK    1  A    between atoms: N_2  and  C_6
REMARK    2  A    between atoms: C_3  and  C_18
REMARK    3  A    between atoms: C_7  and  S_12
REMARK    4  A    between atoms: S_12  and  N_15
REMARK    5  A    between atoms: C_18  and  S_19
REMARK    6  A    between atoms: S_19  and  C_31
REMARK                            x       y       z     vdW  Elec       q    Type
REMARK                         _______ _______ _______ _____ _____    ______ ____
ROOT
ATOM      1  O   UNL     1      31.938 -22.400 -17.578  0.00  0.00    -0.274 OA
ATOM      2  N   UNL     1      34.184 -22.868 -18.088  0.00  0.00    -0.283 N 
ATOM      3  C   UNL     1      32.965 -23.060 -17.447  0.00  0.00    +0.238 C 
ATOM      4  H   UNL     1      34.906 -23.491 -17.847  0.00  0.00    +0.155 HD
ENDROOT
BRANCH   2   6
ATOM      5 CL   UNL     1      37.120 -22.080 -18.300  0.00  0.00    -0.081 Cl
ATOM      6  C   UNL     1      34.504 -21.879 -19.050  0.00  0.00    +0.061 C 
ATOM      7  C   UNL     1      35.066 -19.928 -20.962  0.00  0.00    +0.123 C 
ATOM      8  C   UNL     1      35.814 -21.441 -19.234  0.00  0.00    +0.072 C 
ATOM      9  C   UNL     1      33.473 -21.341 -19.821  0.00  0.00    +0.017 C 
ATOM     10  C   UNL     1      36.095 -20.466 -20.191  0.00  0.00    +0.033 C 
ATOM     11  C   UNL     1      33.754 -20.366 -20.778  0.00  0.00    +0.021 C 
BRANCH   7  12
ATOM     12  S   UNL     1      35.417 -18.707 -22.160  0.00  0.00    +0.057 S 
ATOM     13  O   UNL     1      34.875 -19.146 -23.438  0.00  0.00    -0.153 OA
ATOM     14  O   UNL     1      35.038 -17.408 -21.621  0.00  0.00    -0.153 OA
BRANCH  12  15
ATOM     15  N   UNL     1      37.123 -18.797 -22.225  0.00  0.00    -0.203 NA
ATOM     16  H   UNL     1      37.429 -18.728 -23.196  0.00  0.00    +0.144 HD
ATOM     17  H   UNL     1      37.432 -19.686 -21.833  0.00  0.00    +0.144 HD
ENDBRANCH  12  15
ENDBRANCH   7  12
ENDBRANCH   2   6
BRANCH   3  18
ATOM     18  C   UNL     1      33.011 -24.225 -16.481  0.00  0.00    +0.152 C 
BRANCH  18  19
ATOM     19  S   UNL     1      33.099 -23.583 -14.795  0.00  0.00    -0.047 S 
BRANCH  19  31
ATOM     20  O   UNL     1      35.495 -22.701 -15.313  0.00  0.00    -0.262 OA
ATOM     21  N   UNL     1      35.411 -24.253 -13.550  0.00  0.00    -0.250 N 
ATOM     22  C   UNL     1      35.505 -24.533 -11.079  0.00  0.00    +0.027 C 
ATOM     23  C   UNL     1      36.648 -25.520 -11.187  0.00  0.00    +0.029 C 
ATOM     24  C   UNL     1      34.651 -24.606 -12.332  0.00  0.00    +0.099 C 
ATOM     25  C   UNL     1      37.366 -25.378 -12.502  0.00  0.00    -0.009 C 
ATOM     26  C   UNL     1      36.763 -24.776 -13.631  0.00  0.00    +0.051 C 
ATOM     27  C   UNL     1      38.667 -25.910 -12.590  0.00  0.00    -0.007 C 
ATOM     28  C   UNL     1      37.503 -24.751 -14.827  0.00  0.00    +0.014 C 
ATOM     29  C   UNL     1      39.384 -25.848 -13.779  0.00  0.00    -0.022 C 
ATOM     30  C   UNL     1      38.799 -25.273 -14.898  0.00  0.00    -0.003 C 
ATOM     31  C   UNL     1      34.861 -23.449 -14.576  0.00  0.00    +0.280 C 
ATOM     32  C   UNL     1      40.774 -26.381 -13.846  0.00  0.00    +0.031 C 
ENDBRANCH  19  31
ENDBRANCH  18  19
ENDBRANCH   3  18
TORSDOF 6
ENDMDL
MODEL 5
REMARK VINA RESULT:     -10.5      3.467      5.384
REMARK  Name = 24878044
REMARK  6 active torsions:
REMARK  status: ('A' for Active; 'I' for Inactive)
REMARK    1  A    between atoms: N_2  and  C_6
REMARK    2  A    between atoms: C_3  and  C_18
REMARK    3  A    between atoms: C_7  and  S_12
REMARK    4  A    between atoms: S_12  and  N_15
REMARK    5  A    between atoms: C_18  and  S_19
REMARK    6  A    between atoms: S_19  and  C_31
REMARK                            x       y       z     vdW  Elec       q    Type
REMARK                         _______ _______ _______ _____ _____    ______ ____
ROOT
ATOM      1  O   UNL     1      37.190 -20.429 -19.236  0.00  0.00    -0.274 OA
ATOM      2  N   UNL     1      35.350 -21.832 -18.818  0.00  0.00    -0.283 N 
ATOM      3  C   UNL     1      36.103 -20.913 -19.542  0.00  0.00    +0.238 C 
ATOM      4  H   UNL     1      34.491 -22.099 -19.216  0.00  0.00    +0.155 HD
ENDROOT
BRANCH   2   6
ATOM      5 CL   UNL     1      33.085 -23.241 -17.346  0.00  0.00    -0.081 Cl
ATOM      6  C   UNL     1      35.679 -22.426 -17.576  0.00  0.00    +0.061 C 
ATOM      7  C   UNL     1      36.394 -23.576 -15.138  0.00  0.00    +0.123 C 
ATOM      8  C   UNL     1      34.723 -23.097 -16.816  0.00  0.00    +0.072 C 
ATOM      9  C   UNL     1      36.993 -22.329 -17.118  0.00  0.00    +0.017 C 
ATOM     10  C   UNL     1      35.081 -23.673 -15.596  0.00  0.00    +0.033 C 
ATOM     11  C   UNL     1      37.351 -22.904 -15.898  0.00  0.00    +0.021 C 
BRANCH   7  12
ATOM     12  S   UNL     1      36.842 -24.296 -13.611  0.00  0.00    +0.057 S 
ATOM     13  O   UNL     1      38.286 -24.484 -13.598  0.00  0.00    -0.153 OA
ATOM     14  O   UNL     1      36.200 -23.547 -12.540  0.00  0.00    -0.153 OA
BRANCH  12  15
ATOM     15  N   UNL     1      36.089 -25.824 -13.739  0.00  0.00    -0.203 NA
ATOM     16  H   UNL     1      36.684 -26.533 -13.309  0.00  0.00    +0.144 HD
ATOM     17  H   UNL     1      35.945 -26.052 -14.723  0.00  0.00    +0.144 HD
ENDBRANCH  12  15
ENDBRANCH   7  12
ENDBRANCH   2   6
BRANCH   3  18
ATOM     18  C   UNL     1      35.417 -20.508 -20.829  0.00  0.00    +0.152 C 
BRANCH  18  19
ATOM     19  S   UNL     1      36.339 -19.146 -21.577  0.00  0.00    -0.047 S 
BRANCH  19  31
ATOM     20  O   UNL     1      34.576 -19.100 -23.494  0.00  0.00    -0.262 OA
ATOM     21  N   UNL     1      34.781 -17.064 -22.338  0.00  0.00    -0.250 N 
ATOM     22  C   UNL     1      33.727 -15.565 -20.654  0.00  0.00    +0.027 C 
ATOM     23  C   UNL     1      33.721 -14.402 -21.623  0.00  0.00    +0.029 C 
ATOM     24  C   UNL     1      34.886 -16.491 -20.979  0.00  0.00    +0.099 C 
ATOM     25  C   UNL     1      33.823 -14.880 -23.047  0.00  0.00    -0.009 C 
ATOM     26  C   UNL     1      34.339 -16.154 -23.380  0.00  0.00    +0.051 C 
ATOM     27  C   UNL     1      33.420 -13.989 -24.060  0.00  0.00    -0.007 C 
ATOM     28  C   UNL     1      34.445 -16.476 -24.746  0.00  0.00    +0.014 C 
ATOM     29  C   UNL     1      33.514 -14.344 -25.400  0.00  0.00    -0.022 C 
ATOM     30  C   UNL     1      34.031 -15.585 -25.742  0.00  0.00    -0.003 C 
ATOM     31  C   UNL     1      35.087 -18.418 -22.612  0.00  0.00    +0.280 C 
ATOM     32  C   UNL     1      33.049 -13.405 -26.460  0.00  0.00    +0.031 C 
ENDBRANCH  19  31
ENDBRANCH  18  19
ENDBRANCH   3  18
TORSDOF 6
ENDMDL
MODEL 6
REMARK VINA RESULT:     -10.4      4.177     10.735
REMARK  Name = 24878044
REMARK  6 active torsions:
REMARK  status: ('A' for Active; 'I' for Inactive)
REMARK    1  A    between atoms: N_2  and  C_6
REMARK    2  A    between atoms: C_3  and  C_18
REMARK    3  A    between atoms: C_7  and  S_12
REMARK    4  A    between atoms: S_12  and  N_15
REMARK    5  A    between atoms: C_18  and  S_19
REMARK    6  A    between atoms: S_19  and  C_31
REMARK                            x       y       z     vdW  Elec       q    Type
REMARK                         _______ _______ _______ _____ _____    ______ ____
ROOT
ATOM      1  O   UNL     1      33.851 -20.406 -20.664  0.00  0.00    -0.274 OA
ATOM      2  N   UNL     1      35.724 -18.999 -20.845  0.00  0.00    -0.283 N 
ATOM      3  C   UNL     1      35.043 -20.161 -20.499  0.00  0.00    +0.238 C 
ATOM      4  H   UNL     1      36.683 -18.975 -20.623  0.00  0.00    +0.155 HD
ENDROOT
BRANCH   2   6
ATOM      5 CL   UNL     1      35.429 -19.139 -23.875  0.00  0.00    -0.081 Cl
ATOM      6  C   UNL     1      35.198 -17.849 -21.482  0.00  0.00    +0.061 C 
ATOM      7  C   UNL     1      34.156 -15.552 -22.672  0.00  0.00    +0.123 C 
ATOM      8  C   UNL     1      35.019 -17.800 -22.863  0.00  0.00    +0.072 C 
ATOM      9  C   UNL     1      34.857 -16.749 -20.694  0.00  0.00    +0.017 C 
ATOM     10  C   UNL     1      34.498 -16.652 -23.458  0.00  0.00    +0.033 C 
ATOM     11  C   UNL     1      34.335 -15.600 -21.289  0.00  0.00    +0.021 C 
BRANCH   7  12
ATOM     12  S   UNL     1      33.504 -14.114 -23.416  0.00  0.00    +0.057 S 
ATOM     13  O   UNL     1      34.464 -13.033 -23.248  0.00  0.00    -0.153 OA
ATOM     14  O   UNL     1      33.027 -14.458 -24.749  0.00  0.00    -0.153 OA
BRANCH  12  15
ATOM     15  N   UNL     1      32.154 -13.812 -22.412  0.00  0.00    -0.203 NA
ATOM     16  H   UNL     1      32.158 -12.834 -22.122  0.00  0.00    +0.144 HD
ATOM     17  H   UNL     1      32.201 -14.411 -21.589  0.00  0.00    +0.144 HD
ENDBRANCH  12  15
ENDBRANCH   7  12
ENDBRANCH   2   6
BRANCH   3  18
ATOM     18  C   UNL     1      35.950 -21.172 -19.831  0.00  0.00    +0.152 C 
BRANCH  18  19
ATOM     19  S   UNL     1      34.930 -22.403 -18.990  0.00  0.00    -0.047 S 
BRANCH  19  31
ATOM     20  O   UNL     1      36.656 -21.706 -17.168  0.00  0.00    -0.262 OA
ATOM     21  N   UNL     1      35.018 -23.208 -16.404  0.00  0.00    -0.250 N 
ATOM     22  C   UNL     1      32.936 -23.438 -15.058  0.00  0.00    +0.027 C 
ATOM     23  C   UNL     1      33.562 -24.506 -14.186  0.00  0.00    +0.029 C 
ATOM     24  C   UNL     1      33.565 -23.478 -16.440  0.00  0.00    +0.099 C 
ATOM     25  C   UNL     1      35.065 -24.445 -14.246  0.00  0.00    -0.009 C 
ATOM     26  C   UNL     1      35.753 -23.828 -15.316  0.00  0.00    +0.051 C 
ATOM     27  C   UNL     1      35.780 -25.070 -13.207  0.00  0.00    -0.007 C 
ATOM     28  C   UNL     1      37.160 -23.883 -15.302  0.00  0.00    +0.014 C 
ATOM     29  C   UNL     1      37.169 -25.087 -13.206  0.00  0.00    -0.022 C 
ATOM     30  C   UNL     1      37.858 -24.497 -14.257  0.00  0.00    -0.003 C 
ATOM     31  C   UNL     1      35.657 -22.391 -17.365  0.00  0.00    +0.280 C 
ATOM     32  C   UNL     1      37.913 -25.719 -12.080  0.00  0.00    +0.031 C 
ENDBRANCH  19  31
ENDBRANCH  18  19
ENDBRANCH   3  18
TORSDOF 6
ENDMDL
MODEL 7
REMARK VINA RESULT:     -10.2      2.622      3.954
REMARK  Name = 24878044
REMARK  6 active torsions:
REMARK  status: ('A' for Active; 'I' for Inactive)
REMARK    1  A    between atoms: N_2  and  C_6
REMARK    2  A    between atoms: C_3  and  C_18
REMARK    3  A    between atoms: C_7  and  S_12
REMARK    4  A    between atoms: S_12  and  N_15
REMARK    5  A    between atoms: C_18  and  S_19
REMARK    6  A    between atoms: S_19  and  C_31
REMARK                            x       y       z     vdW  Elec       q    Type
REMARK                         _______ _______ _______ _____ _____    ______ ____
ROOT
ATOM      1  O   UNL     1      32.415 -20.513 -19.597  0.00  0.00    -0.274 OA
ATOM      2  N   UNL     1      34.530 -21.525 -19.766  0.00  0.00    -0.283 N 
ATOM      3  C   UNL     1      33.463 -20.743 -20.195  0.00  0.00    +0.238 C 
ATOM      4  H   UNL     1      35.287 -21.607 -20.389  0.00  0.00    +0.155 HD
ENDROOT
BRANCH   2   6
ATOM      5 CL   UNL     1      37.168 -21.192 -18.278  0.00  0.00    -0.081 Cl
ATOM      6  C   UNL     1      34.651 -22.215 -18.536  0.00  0.00    +0.061 C 
ATOM      7  C   UNL     1      34.825 -23.599 -16.121  0.00  0.00    +0.123 C 
ATOM      8  C   UNL     1      35.813 -22.135 -17.769  0.00  0.00    +0.072 C 
ATOM      9  C   UNL     1      33.576 -22.987 -18.095  0.00  0.00    +0.017 C 
ATOM     10  C   UNL     1      35.900 -22.827 -16.561  0.00  0.00    +0.033 C 
ATOM     11  C   UNL     1      33.662 -23.679 -16.887  0.00  0.00    +0.021 C 
BRANCH   7  12
ATOM     12  S   UNL     1      34.933 -24.466 -14.609  0.00  0.00    +0.057 S 
ATOM     13  O   UNL     1      35.826 -23.734 -13.722  0.00  0.00    -0.153 OA
ATOM     14  O   UNL     1      33.585 -24.796 -14.167  0.00  0.00    -0.153 OA
BRANCH  12  15
ATOM     15  N   UNL     1      35.712 -25.901 -15.112  0.00  0.00    -0.203 NA
ATOM     16  H   UNL     1      35.870 -26.503 -14.303  0.00  0.00    +0.144 HD
ATOM     17  H   UNL     1      36.607 -25.670 -15.544  0.00  0.00    +0.144 HD
ENDBRANCH  12  15
ENDBRANCH   7  12
ENDBRANCH   2   6
BRANCH   3  18
ATOM     18  C   UNL     1      33.702 -20.167 -21.575  0.00  0.00    +0.152 C 
BRANCH  18  19
ATOM     19  S   UNL     1      35.445 -19.719 -21.726  0.00  0.00    -0.047 S 
BRANCH  19  31
ATOM     20  O   UNL     1      35.839 -17.573 -20.303  0.00  0.00    -0.262 OA
ATOM     21  N   UNL     1      34.768 -17.172 -22.357  0.00  0.00    -0.250 N 
ATOM     22  C   UNL     1      35.062 -16.299 -24.669  0.00  0.00    +0.027 C 
ATOM     23  C   UNL     1      33.927 -15.313 -24.492  0.00  0.00    +0.029 C 
ATOM     24  C   UNL     1      34.819 -17.516 -23.793  0.00  0.00    +0.099 C 
ATOM     25  C   UNL     1      33.657 -15.052 -23.034  0.00  0.00    -0.009 C 
ATOM     26  C   UNL     1      34.057 -15.952 -22.019  0.00  0.00    +0.051 C 
ATOM     27  C   UNL     1      32.943 -13.883 -22.707  0.00  0.00    -0.007 C 
ATOM     28  C   UNL     1      33.698 -15.639 -20.695  0.00  0.00    +0.014 C 
ATOM     29  C   UNL     1      32.625 -13.588 -21.387  0.00  0.00    -0.022 C 
ATOM     30  C   UNL     1      32.999 -14.469 -20.382  0.00  0.00    -0.003 C 
ATOM     31  C   UNL     1      35.379 -17.977 -21.366  0.00  0.00    +0.280 C 
ATOM     32  C   UNL     1      31.902 -12.328 -21.053  0.00  0.00    +0.031 C 
ENDBRANCH  19  31
ENDBRANCH  18  19
ENDBRANCH   3  18
TORSDOF 6
ENDMDL
MODEL 8
REMARK VINA RESULT:     -10.1      6.178     11.863
REMARK  Name = 24878044
REMARK  6 active torsions:
REMARK  status: ('A' for Active; 'I' for Inactive)
REMARK    1  A    between atoms: N_2  and  C_6
REMARK    2  A    between atoms: C_3  and  C_18
REMARK    3  A    between atoms: C_7  and  S_12
REMARK    4  A    between atoms: S_12  and  N_15
REMARK    5  A    between atoms: C_18  and  S_19
REMARK    6  A    between atoms: S_19  and  C_31
REMARK                            x       y       z     vdW  Elec       q    Type
REMARK                         _______ _______ _______ _____ _____    ______ ____
ROOT
ATOM      1  O   UNL     1      32.217  -8.717 -19.971  0.00  0.00    -0.274 OA
ATOM      2  N   UNL     1      31.670  -8.885 -22.251  0.00  0.00    -0.283 N 
ATOM      3  C   UNL     1      31.944  -9.369 -20.977  0.00  0.00    +0.238 C 
ATOM      4  H   UNL     1      31.484  -9.561 -22.942  0.00  0.00    +0.155 HD
ENDROOT
BRANCH   2   6
ATOM      5 CL   UNL     1      34.086  -7.860 -23.798  0.00  0.00    -0.081 Cl
ATOM      6  C   UNL     1      31.624  -7.533 -22.668  0.00  0.00    +0.061 C 
ATOM      7  C   UNL     1      31.470  -4.863 -23.460  0.00  0.00    +0.123 C 
ATOM      8  C   UNL     1      32.674  -6.957 -23.382  0.00  0.00    +0.072 C 
ATOM      9  C   UNL     1      30.497  -6.774 -22.348  0.00  0.00    +0.017 C 
ATOM     10  C   UNL     1      32.596  -5.622 -23.779  0.00  0.00    +0.033 C 
ATOM     11  C   UNL     1      30.420  -5.439 -22.745  0.00  0.00    +0.021 C 
BRANCH   7  12
ATOM     12  S   UNL     1      31.374  -3.192 -23.955  0.00  0.00    +0.057 S 
ATOM     13  O   UNL     1      32.425  -2.940 -24.931  0.00  0.00    -0.153 OA
ATOM     14  O   UNL     1      29.989  -2.887 -24.288  0.00  0.00    -0.153 OA
BRANCH  12  15
ATOM     15  N   UNL     1      31.774  -2.396 -22.496  0.00  0.00    -0.203 NA
ATOM     16  H   UNL     1      31.570  -3.011 -21.707  0.00  0.00    +0.144 HD
ATOM     17  H   UNL     1      31.226  -1.541 -22.413  0.00  0.00    +0.144 HD
ENDBRANCH  12  15
ENDBRANCH   7  12
ENDBRANCH   2   6
BRANCH   3  18
ATOM     18  C   UNL     1      31.900 -10.881 -20.922  0.00  0.00    +0.152 C 
BRANCH  18  19
ATOM     19  S   UNL     1      32.624 -11.541 -22.440  0.00  0.00    -0.047 S 
BRANCH  19  31
ATOM     20  O   UNL     1      32.060 -13.684 -21.072  0.00  0.00    -0.262 OA
ATOM     21  N   UNL     1      33.342 -14.093 -22.999  0.00  0.00    -0.250 N 
ATOM     22  C   UNL     1      33.290 -14.961 -25.332  0.00  0.00    +0.027 C 
ATOM     23  C   UNL     1      34.390 -15.958 -25.036  0.00  0.00    +0.029 C 
ATOM     24  C   UNL     1      33.449 -13.747 -24.433  0.00  0.00    +0.099 C 
ATOM     25  C   UNL     1      34.500 -16.223 -23.558  0.00  0.00    -0.009 C 
ATOM     26  C   UNL     1      34.001 -15.320 -22.590  0.00  0.00    +0.051 C 
ATOM     27  C   UNL     1      35.163 -17.399 -23.159  0.00  0.00    -0.007 C 
ATOM     28  C   UNL     1      34.212 -15.638 -21.235  0.00  0.00    +0.014 C 
ATOM     29  C   UNL     1      35.335 -17.698 -21.813  0.00  0.00    -0.022 C 
ATOM     30  C   UNL     1      34.863 -16.815 -20.852  0.00  0.00    -0.003 C 
ATOM     31  C   UNL     1      32.635 -13.284 -22.079  0.00  0.00    +0.280 C 
ATOM     32  C   UNL     1      36.006 -18.965 -21.405  0.00  0.00    +0.031 C 
ENDBRANCH  19  31
ENDBRANCH  18  19
ENDBRANCH   3  18
TORSDOF 6
ENDMDL
MODEL 9
REMARK VINA RESULT:     -10.0      5.805     10.553
REMARK  Name = 24878044
REMARK  6 active torsions:
REMARK  status: ('A' for Active; 'I' for Inactive)
REMARK    1  A    between atoms: N_2  and  C_6
REMARK    2  A    between atoms: C_3  and  C_18
REMARK    3  A    between atoms: C_7  and  S_12
REMARK    4  A    between atoms: S_12  and  N_15
REMARK    5  A    between atoms: C_18  and  S_19
REMARK    6  A    between atoms: S_19  and  C_31
REMARK                            x       y       z     vdW  Elec       q    Type
REMARK                         _______ _______ _______ _____ _____    ______ ____
ROOT
ATOM      1  O   UNL     1      37.218 -21.417 -16.167  0.00  0.00    -0.274 OA
ATOM      2  N   UNL     1      36.060 -22.671 -17.783  0.00  0.00    -0.283 N 
ATOM      3  C   UNL     1      36.692 -22.454 -16.564  0.00  0.00    +0.238 C 
ATOM      4  H   UNL     1      35.706 -23.577 -17.935  0.00  0.00    +0.155 HD
ENDROOT
BRANCH   2   6
ATOM      5 CL   UNL     1      33.203 -22.327 -18.784  0.00  0.00    -0.081 Cl
ATOM      6  C   UNL     1      35.867 -21.738 -18.830  0.00  0.00    +0.061 C 
ATOM      7  C   UNL     1      35.555 -19.886 -20.893  0.00  0.00    +0.123 C 
ATOM      8  C   UNL     1      34.602 -21.499 -19.367  0.00  0.00    +0.072 C 
ATOM      9  C   UNL     1      36.976 -21.052 -19.326  0.00  0.00    +0.017 C 
ATOM     10  C   UNL     1      34.446 -20.573 -20.398  0.00  0.00    +0.033 C 
ATOM     11  C   UNL     1      36.820 -20.125 -20.357  0.00  0.00    +0.021 C 
BRANCH   7  12
ATOM     12  S   UNL     1      35.360 -18.727 -22.184  0.00  0.00    +0.057 S 
ATOM     13  O   UNL     1      34.661 -19.377 -23.283  0.00  0.00    -0.153 OA
ATOM     14  O   UNL     1      34.833 -17.492 -21.621  0.00  0.00    -0.153 OA
BRANCH  12  15
ATOM     15  N   UNL     1      36.987 -18.472 -22.640  0.00  0.00    -0.203 NA
ATOM     16  H   UNL     1      37.298 -17.563 -22.295  0.00  0.00    +0.144 HD
ATOM     17  H   UNL     1      37.063 -18.495 -23.656  0.00  0.00    +0.144 HD
ENDBRANCH  12  15
ENDBRANCH   7  12
ENDBRANCH   2   6
BRANCH   3  18
ATOM     18  C   UNL     1      36.702 -23.698 -15.701  0.00  0.00    +0.152 C 
BRANCH  18  19
ATOM     19  S   UNL     1      35.465 -23.515 -14.398  0.00  0.00    -0.047 S 
BRANCH  19  31
ATOM     20  O   UNL     1      34.025 -24.072 -16.496  0.00  0.00    -0.262 OA
ATOM     21  N   UNL     1      32.832 -24.150 -14.472  0.00  0.00    -0.250 N 
ATOM     22  C   UNL     1      31.823 -25.649 -12.760  0.00  0.00    +0.027 C 
ATOM     23  C   UNL     1      30.467 -24.995 -12.918  0.00  0.00    +0.029 C 
ATOM     24  C   UNL     1      32.913 -24.641 -13.080  0.00  0.00    +0.099 C 
ATOM     25  C   UNL     1      30.359 -24.282 -14.240  0.00  0.00    -0.009 C 
ATOM     26  C   UNL     1      31.497 -23.874 -14.972  0.00  0.00    +0.051 C 
ATOM     27  C   UNL     1      29.066 -23.989 -14.713  0.00  0.00    -0.007 C 
ATOM     28  C   UNL     1      31.281 -23.159 -16.166  0.00  0.00    +0.014 C 
ATOM     29  C   UNL     1      28.882 -23.303 -15.908  0.00  0.00    -0.022 C 
ATOM     30  C   UNL     1      29.991 -22.885 -16.631  0.00  0.00    -0.003 C 
ATOM     31  C   UNL     1      33.982 -23.964 -15.274  0.00  0.00    +0.280 C 
ATOM     32  C   UNL     1      27.508 -23.033 -16.416  0.00  0.00    +0.031 C 
ENDBRANCH  19  31
ENDBRANCH  18  19
ENDBRANCH   3  18
TORSDOF 6
ENDMDL
