MODEL 1
REMARK VINA RESULT:     -12.1      0.000      0.000
REMARK  Name = 24941248
REMARK  7 active torsions:
REMARK  status: ('A' for Active; 'I' for Inactive)
REMARK    1  A    between atoms: N_2  and  C_24
REMARK    2  A    between atoms: C_6  and  C_14
REMARK    3  A    between atoms: C_13  and  C_19
REMARK    4  A    between atoms: C_19  and  C_20
REMARK    5  A    between atoms: C_20  and  C_21
REMARK    6  A    between atoms: C_21  and  O_22
REMARK    7  A    between atoms: C_24  and  C_26
REMARK                            x       y       z     vdW  Elec       q    Type
REMARK                         _______ _______ _______ _____ _____    ______ ____
ROOT
ATOM      1  O   UNL     1      33.600 -15.792 -26.032  0.00  0.00    -0.352 OA
ATOM      2  N   UNL     1      35.617 -17.933 -21.468  0.00  0.00    -0.316 N 
ATOM      3  N   UNL     1      33.212 -14.518 -25.636  0.00  0.00    -0.077 NA
ATOM      4  N   UNL     1      35.123 -18.217 -23.781  0.00  0.00    -0.226 NA
ATOM      5  C   UNL     1      34.106 -15.629 -23.855  0.00  0.00    +0.062 A 
ATOM      6  C   UNL     1      33.522 -14.442 -24.338  0.00  0.00    +0.123 A 
ATOM      7  C   UNL     1      35.100 -17.415 -22.685  0.00  0.00    +0.129 C 
ATOM      8  C   UNL     1      34.609 -16.114 -22.646  0.00  0.00    +0.039 C 
ATOM      9  C   UNL     1      34.131 -16.451 -24.968  0.00  0.00    +0.196 A 
ATOM     10  C   UNL     1      34.633 -17.739 -24.950  0.00  0.00    +0.140 C 
ATOM     11  H   UNL     1      35.607 -17.360 -20.667  0.00  0.00    +0.148 HD
ENDROOT
BRANCH   6  14
ATOM     12 CL   UNL     1      34.428  -9.414 -23.640  0.00  0.00    -0.082 Cl
ATOM     13  C   UNL     1      32.085 -12.095 -21.816  0.00  0.00    -0.021 C 
ATOM     14  C   UNL     1      33.252 -13.238 -23.596  0.00  0.00    +0.021 C 
ATOM     15  C   UNL     1      32.347 -13.261 -22.535  0.00  0.00    -0.003 C 
ATOM     16  C   UNL     1      32.729 -10.905 -22.158  0.00  0.00    +0.007 C 
ATOM     17  C   UNL     1      33.896 -12.048 -23.938  0.00  0.00    +0.013 C 
ATOM     18  C   UNL     1      33.634 -10.882 -23.219  0.00  0.00    +0.057 C 
BRANCH  13  19
ATOM     19  C   UNL     1      31.116 -12.119 -20.683  0.00  0.00    +0.029 C 
BRANCH  19  20
ATOM     20  C   UNL     1      31.800 -11.890 -19.329  0.00  0.00    +0.036 C 
BRANCH  20  21
ATOM     21  C   UNL     1      31.528 -10.498 -18.777  0.00  0.00    +0.138 C 
BRANCH  21  22
ATOM     22  O   UNL     1      32.760  -9.798 -18.667  0.00  0.00    -0.382 OA
ATOM     23  H   UNL     1      33.374 -10.310 -18.118  0.00  0.00    +0.210 HD
ENDBRANCH  21  22
ENDBRANCH  20  21
ENDBRANCH  19  20
ENDBRANCH  13  19
ENDBRANCH   6  14
BRANCH   2  24
ATOM     24  C   UNL     1      36.151 -19.250 -21.359  0.00  0.00    +0.093 C 
ATOM     25  C   UNL     1      37.532 -19.188 -20.710  0.00  0.00    +0.026 C 
BRANCH  24  26
ATOM     26  C   UNL     1      35.187 -20.145 -20.612  0.00  0.00    -0.005 C 
ATOM     27  C   UNL     1      33.812 -19.945 -20.733  0.00  0.00    -0.003 C 
ATOM     28  C   UNL     1      35.673 -21.172 -19.802  0.00  0.00    -0.003 C 
ATOM     29  C   UNL     1      32.923 -20.770 -20.043  0.00  0.00    -0.000 C 
ATOM     30  C   UNL     1      34.784 -21.996 -19.112  0.00  0.00    -0.000 C 
ATOM     31  C   UNL     1      33.409 -21.796 -19.234  0.00  0.00    -0.000 C 
ENDBRANCH  24  26
ENDBRANCH   2  24
TORSDOF 7
ENDMDL
MODEL 2
REMARK VINA RESULT:     -11.4      1.625      2.117
REMARK  Name = 24941248
REMARK  7 active torsions:
REMARK  status: ('A' for Active; 'I' for Inactive)
REMARK    1  A    between atoms: N_2  and  C_24
REMARK    2  A    between atoms: C_6  and  C_14
REMARK    3  A    between atoms: C_13  and  C_19
REMARK    4  A    between atoms: C_19  and  C_20
REMARK    5  A    between atoms: C_20  and  C_21
REMARK    6  A    between atoms: C_21  and  O_22
REMARK    7  A    between atoms: C_24  and  C_26
REMARK                            x       y       z     vdW  Elec       q    Type
REMARK                         _______ _______ _______ _____ _____    ______ ____
ROOT
ATOM      1  O   UNL     1      33.710 -15.074 -25.692  0.00  0.00    -0.352 OA
ATOM      2  N   UNL     1      35.408 -17.844 -21.342  0.00  0.00    -0.316 N 
ATOM      3  N   UNL     1      33.225 -13.894 -25.142  0.00  0.00    -0.077 NA
ATOM      4  N   UNL     1      35.141 -17.773 -23.707  0.00  0.00    -0.226 NA
ATOM      5  C   UNL     1      34.007 -15.244 -23.477  0.00  0.00    +0.062 A 
ATOM      6  C   UNL     1      33.410 -14.015 -23.824  0.00  0.00    +0.123 A 
ATOM      7  C   UNL     1      34.979 -17.158 -22.507  0.00  0.00    +0.129 C 
ATOM      8  C   UNL     1      34.421 -15.897 -22.315  0.00  0.00    +0.039 C 
ATOM      9  C   UNL     1      34.175 -15.876 -24.696  0.00  0.00    +0.196 A 
ATOM     10  C   UNL     1      34.737 -17.131 -24.830  0.00  0.00    +0.140 C 
ATOM     11  H   UNL     1      35.296 -17.407 -20.466  0.00  0.00    +0.148 HD
ENDROOT
BRANCH   6  14
ATOM     12 CL   UNL     1      31.439 -12.609 -19.273  0.00  0.00    -0.082 Cl
ATOM     13  C   UNL     1      32.781 -10.599 -22.460  0.00  0.00    -0.021 C 
ATOM     14  C   UNL     1      33.014 -12.956 -22.933  0.00  0.00    +0.021 C 
ATOM     15  C   UNL     1      33.164 -11.625 -23.323  0.00  0.00    -0.003 C 
ATOM     16  C   UNL     1      32.248 -10.903 -21.207  0.00  0.00    +0.007 C 
ATOM     17  C   UNL     1      32.480 -13.260 -21.681  0.00  0.00    +0.013 C 
ATOM     18  C   UNL     1      32.098 -12.234 -20.818  0.00  0.00    +0.057 C 
BRANCH  13  19
ATOM     19  C   UNL     1      32.943  -9.175 -22.875  0.00  0.00    +0.029 C 
BRANCH  19  20
ATOM     20  C   UNL     1      32.241  -8.206 -21.915  0.00  0.00    +0.036 C 
BRANCH  20  21
ATOM     21  C   UNL     1      33.232  -7.368 -21.121  0.00  0.00    +0.138 C 
BRANCH  21  22
ATOM     22  O   UNL     1      33.281  -7.856 -19.787  0.00  0.00    -0.382 OA
ATOM     23  H   UNL     1      32.559  -7.462 -19.272  0.00  0.00    +0.210 HD
ENDBRANCH  21  22
ENDBRANCH  20  21
ENDBRANCH  19  20
ENDBRANCH  13  19
ENDBRANCH   6  14
BRANCH   2  24
ATOM     24  C   UNL     1      35.995 -19.143 -21.387  0.00  0.00    +0.093 C 
ATOM     25  C   UNL     1      37.434 -19.069 -20.882  0.00  0.00    +0.026 C 
BRANCH  24  26
ATOM     26  C   UNL     1      35.147 -20.128 -20.612  0.00  0.00    -0.005 C 
ATOM     27  C   UNL     1      33.756 -20.048 -20.670  0.00  0.00    -0.003 C 
ATOM     28  C   UNL     1      35.756 -21.117 -19.840  0.00  0.00    -0.003 C 
ATOM     29  C   UNL     1      32.974 -20.955 -19.955  0.00  0.00    -0.000 C 
ATOM     30  C   UNL     1      34.975 -22.024 -19.125  0.00  0.00    -0.000 C 
ATOM     31  C   UNL     1      33.584 -21.944 -19.183  0.00  0.00    -0.000 C 
ENDBRANCH  24  26
ENDBRANCH   2  24
TORSDOF 7
ENDMDL
MODEL 3
REMARK VINA RESULT:     -11.0      1.084      1.518
REMARK  Name = 24941248
REMARK  7 active torsions:
REMARK  status: ('A' for Active; 'I' for Inactive)
REMARK    1  A    between atoms: N_2  and  C_24
REMARK    2  A    between atoms: C_6  and  C_14
REMARK    3  A    between atoms: C_13  and  C_19
REMARK    4  A    between atoms: C_19  and  C_20
REMARK    5  A    between atoms: C_20  and  C_21
REMARK    6  A    between atoms: C_21  and  O_22
REMARK    7  A    between atoms: C_24  and  C_26
REMARK                            x       y       z     vdW  Elec       q    Type
REMARK                         _______ _______ _______ _____ _____    ______ ____
ROOT
ATOM      1  O   UNL     1      33.598 -16.037 -26.134  0.00  0.00    -0.352 OA
ATOM      2  N   UNL     1      35.694 -18.001 -21.526  0.00  0.00    -0.316 N 
ATOM      3  N   UNL     1      33.258 -14.734 -25.793  0.00  0.00    -0.077 NA
ATOM      4  N   UNL     1      35.123 -18.387 -23.805  0.00  0.00    -0.226 NA
ATOM      5  C   UNL     1      34.174 -15.779 -23.983  0.00  0.00    +0.062 A 
ATOM      6  C   UNL     1      33.608 -14.601 -24.510  0.00  0.00    +0.123 A 
ATOM      7  C   UNL     1      35.155 -17.531 -22.752  0.00  0.00    +0.129 C 
ATOM      8  C   UNL     1      34.700 -16.215 -22.766  0.00  0.00    +0.039 C 
ATOM      9  C   UNL     1      34.144 -16.656 -25.053  0.00  0.00    +0.196 A 
ATOM     10  C   UNL     1      34.611 -17.955 -24.983  0.00  0.00    +0.140 C 
ATOM     11  H   UNL     1      35.724 -17.388 -20.755  0.00  0.00    +0.148 HD
ENDROOT
BRANCH   6  14
ATOM     12 CL   UNL     1      34.677  -9.575 -24.092  0.00  0.00    -0.082 Cl
ATOM     13  C   UNL     1      32.308 -12.089 -22.075  0.00  0.00    -0.021 C 
ATOM     14  C   UNL     1      33.393 -13.354 -23.823  0.00  0.00    +0.021 C 
ATOM     15  C   UNL     1      32.517 -13.297 -22.740  0.00  0.00    -0.003 C 
ATOM     16  C   UNL     1      32.976 -10.938 -22.493  0.00  0.00    +0.007 C 
ATOM     17  C   UNL     1      34.061 -12.203 -24.241  0.00  0.00    +0.013 C 
ATOM     18  C   UNL     1      33.852 -10.995 -23.577  0.00  0.00    +0.057 C 
BRANCH  13  19
ATOM     19  C   UNL     1      31.370 -12.027 -20.917  0.00  0.00    +0.029 C 
BRANCH  19  20
ATOM     20  C   UNL     1      31.933 -12.730 -19.675  0.00  0.00    +0.036 C 
BRANCH  20  21
ATOM     21  C   UNL     1      31.962 -14.243 -19.836  0.00  0.00    +0.138 C 
BRANCH  21  22
ATOM     22  O   UNL     1      33.315 -14.669 -19.922  0.00  0.00    -0.382 OA
ATOM     23  H   UNL     1      33.386 -15.584 -19.606  0.00  0.00    +0.210 HD
ENDBRANCH  21  22
ENDBRANCH  20  21
ENDBRANCH  19  20
ENDBRANCH  13  19
ENDBRANCH   6  14
BRANCH   2  24
ATOM     24  C   UNL     1      36.196 -19.325 -21.364  0.00  0.00    +0.093 C 
ATOM     25  C   UNL     1      37.558 -19.273 -20.678  0.00  0.00    +0.026 C 
BRANCH  24  26
ATOM     26  C   UNL     1      35.191 -20.178 -20.620  0.00  0.00    -0.005 C 
ATOM     27  C   UNL     1      35.629 -21.215 -19.799  0.00  0.00    -0.003 C 
ATOM     28  C   UNL     1      33.826 -19.925 -20.755  0.00  0.00    -0.003 C 
ATOM     29  C   UNL     1      34.703 -22.002 -19.113  0.00  0.00    -0.000 C 
ATOM     30  C   UNL     1      32.900 -20.711 -20.071  0.00  0.00    -0.000 C 
ATOM     31  C   UNL     1      33.338 -21.749 -19.248  0.00  0.00    -0.000 C 
ENDBRANCH  24  26
ENDBRANCH   2  24
TORSDOF 7
ENDMDL
MODEL 4
REMARK VINA RESULT:     -10.3      7.683     12.797
REMARK  Name = 24941248
REMARK  7 active torsions:
REMARK  status: ('A' for Active; 'I' for Inactive)
REMARK    1  A    between atoms: N_2  and  C_24
REMARK    2  A    between atoms: C_6  and  C_14
REMARK    3  A    between atoms: C_13  and  C_19
REMARK    4  A    between atoms: C_19  and  C_20
REMARK    5  A    between atoms: C_20  and  C_21
REMARK    6  A    between atoms: C_21  and  O_22
REMARK    7  A    between atoms: C_24  and  C_26
REMARK                            x       y       z     vdW  Elec       q    Type
REMARK                         _______ _______ _______ _____ _____    ______ ____
ROOT
ATOM      1  O   UNL     1      31.418 -24.318 -14.674  0.00  0.00    -0.352 OA
ATOM      2  N   UNL     1      34.522 -22.220 -18.604  0.00  0.00    -0.316 N 
ATOM      3  N   UNL     1      32.348 -24.752 -13.737  0.00  0.00    -0.077 NA
ATOM      4  N   UNL     1      32.330 -22.705 -17.810  0.00  0.00    -0.226 NA
ATOM      5  C   UNL     1      33.435 -23.817 -15.513  0.00  0.00    +0.062 A 
ATOM      6  C   UNL     1      33.541 -24.445 -14.256  0.00  0.00    +0.123 A 
ATOM      7  C   UNL     1      33.671 -22.757 -17.602  0.00  0.00    +0.129 C 
ATOM      8  C   UNL     1      34.295 -23.296 -16.481  0.00  0.00    +0.039 C 
ATOM      9  C   UNL     1      32.069 -23.762 -15.730  0.00  0.00    +0.196 A 
ATOM     10  C   UNL     1      31.503 -23.213 -16.864  0.00  0.00    +0.140 C 
ATOM     11  H   UNL     1      35.497 -22.252 -18.463  0.00  0.00    +0.148 HD
ENDROOT
BRANCH   6  14
ATOM     12 CL   UNL     1      36.136 -24.416  -9.801  0.00  0.00    -0.082 Cl
ATOM     13  C   UNL     1      36.991 -25.658 -13.506  0.00  0.00    -0.021 C 
ATOM     14  C   UNL     1      34.749 -24.759 -13.537  0.00  0.00    +0.021 C 
ATOM     15  C   UNL     1      35.821 -25.353 -14.202  0.00  0.00    -0.003 C 
ATOM     16  C   UNL     1      37.088 -25.368 -12.145  0.00  0.00    +0.007 C 
ATOM     17  C   UNL     1      34.846 -24.469 -12.176  0.00  0.00    +0.013 C 
ATOM     18  C   UNL     1      36.016 -24.774 -11.480  0.00  0.00    +0.057 C 
BRANCH  13  19
ATOM     19  C   UNL     1      38.137 -26.295 -14.216  0.00  0.00    +0.029 C 
BRANCH  19  20
ATOM     20  C   UNL     1      39.470 -26.063 -13.493  0.00  0.00    +0.036 C 
BRANCH  20  21
ATOM     21  C   UNL     1      40.603 -25.759 -14.463  0.00  0.00    +0.138 C 
BRANCH  21  22
ATOM     22  O   UNL     1      40.266 -26.280 -15.741  0.00  0.00    -0.382 OA
ATOM     23  H   UNL     1      40.720 -25.768 -16.428  0.00  0.00    +0.210 HD
ENDBRANCH  21  22
ENDBRANCH  20  21
ENDBRANCH  19  20
ENDBRANCH  13  19
ENDBRANCH   6  14
BRANCH   2  24
ATOM     24  C   UNL     1      34.023 -21.638 -19.805  0.00  0.00    +0.093 C 
ATOM     25  C   UNL     1      32.681 -20.966 -19.526  0.00  0.00    +0.026 C 
BRANCH  24  26
ATOM     26  C   UNL     1      35.048 -20.692 -20.393  0.00  0.00    -0.005 C 
ATOM     27  C   UNL     1      34.686 -19.823 -21.421  0.00  0.00    -0.003 C 
ATOM     28  C   UNL     1      36.355 -20.689 -19.905  0.00  0.00    -0.003 C 
ATOM     29  C   UNL     1      35.631 -18.951 -21.963  0.00  0.00    -0.000 C 
ATOM     30  C   UNL     1      37.299 -19.818 -20.447  0.00  0.00    -0.000 C 
ATOM     31  C   UNL     1      36.937 -18.948 -21.475  0.00  0.00    -0.000 C 
ENDBRANCH  24  26
ENDBRANCH   2  24
TORSDOF 7
ENDMDL
MODEL 5
REMARK VINA RESULT:      -9.8      3.843      9.882
REMARK  Name = 24941248
REMARK  7 active torsions:
REMARK  status: ('A' for Active; 'I' for Inactive)
REMARK    1  A    between atoms: N_2  and  C_24
REMARK    2  A    between atoms: C_6  and  C_14
REMARK    3  A    between atoms: C_13  and  C_19
REMARK    4  A    between atoms: C_19  and  C_20
REMARK    5  A    between atoms: C_20  and  C_21
REMARK    6  A    between atoms: C_21  and  O_22
REMARK    7  A    between atoms: C_24  and  C_26
REMARK                            x       y       z     vdW  Elec       q    Type
REMARK                         _______ _______ _______ _____ _____    ______ ____
ROOT
ATOM      1  O   UNL     1      31.662 -13.488 -19.542  0.00  0.00    -0.352 OA
ATOM      2  N   UNL     1      32.490  -8.980 -22.452  0.00  0.00    -0.316 N 
ATOM      3  N   UNL     1      32.210 -14.483 -20.342  0.00  0.00    -0.077 NA
ATOM      4  N   UNL     1      31.623  -9.964 -20.464  0.00  0.00    -0.226 NA
ATOM      5  C   UNL     1      32.444 -12.461 -21.375  0.00  0.00    +0.062 A 
ATOM      6  C   UNL     1      32.669 -13.851 -21.427  0.00  0.00    +0.123 A 
ATOM      7  C   UNL     1      32.252 -10.131 -21.657  0.00  0.00    +0.129 C 
ATOM      8  C   UNL     1      32.690 -11.346 -22.176  0.00  0.00    +0.039 C 
ATOM      9  C   UNL     1      31.802 -12.286 -20.161  0.00  0.00    +0.196 A 
ATOM     10  C   UNL     1      31.389 -11.053 -19.693  0.00  0.00    +0.140 C 
ATOM     11  H   UNL     1      32.946  -9.088 -23.318  0.00  0.00    +0.148 HD
ENDROOT
BRANCH   6  14
ATOM     12 CL   UNL     1      33.399 -14.558 -26.482  0.00  0.00    -0.082 Cl
ATOM     13  C   UNL     1      34.794 -16.359 -23.194  0.00  0.00    -0.021 C 
ATOM     14  C   UNL     1      33.311 -14.591 -22.482  0.00  0.00    +0.021 C 
ATOM     15  C   UNL     1      34.172 -15.643 -22.172  0.00  0.00    -0.003 C 
ATOM     16  C   UNL     1      34.555 -16.024 -24.527  0.00  0.00    +0.007 C 
ATOM     17  C   UNL     1      33.072 -14.255 -23.815  0.00  0.00    +0.013 C 
ATOM     18  C   UNL     1      33.694 -14.971 -24.837  0.00  0.00    +0.057 C 
BRANCH  13  19
ATOM     19  C   UNL     1      35.716 -17.484 -22.863  0.00  0.00    +0.029 C 
BRANCH  19  20
ATOM     20  C   UNL     1      35.006 -18.843 -22.882  0.00  0.00    +0.036 C 
BRANCH  20  21
ATOM     21  C   UNL     1      34.990 -19.501 -21.510  0.00  0.00    +0.138 C 
BRANCH  21  22
ATOM     22  O   UNL     1      35.792 -18.733 -20.623  0.00  0.00    -0.382 OA
ATOM     23  H   UNL     1      35.253 -18.031 -20.226  0.00  0.00    +0.210 HD
ENDBRANCH  21  22
ENDBRANCH  20  21
ENDBRANCH  19  20
ENDBRANCH  13  19
ENDBRANCH   6  14
BRANCH   2  24
ATOM     24  C   UNL     1      32.095  -7.671 -22.048  0.00  0.00    +0.093 C 
ATOM     25  C   UNL     1      32.701  -7.355 -20.683  0.00  0.00    +0.026 C 
BRANCH  24  26
ATOM     26  C   UNL     1      32.470  -6.660 -23.109  0.00  0.00    -0.005 C 
ATOM     27  C   UNL     1      33.578  -6.883 -23.924  0.00  0.00    -0.003 C 
ATOM     28  C   UNL     1      31.705  -5.504 -23.273  0.00  0.00    -0.003 C 
ATOM     29  C   UNL     1      33.925  -5.950 -24.903  0.00  0.00    -0.000 C 
ATOM     30  C   UNL     1      32.051  -4.572 -24.251  0.00  0.00    -0.000 C 
ATOM     31  C   UNL     1      33.160  -4.795 -25.066  0.00  0.00    -0.000 C 
ENDBRANCH  24  26
ENDBRANCH   2  24
TORSDOF 7
ENDMDL
MODEL 6
REMARK VINA RESULT:      -9.8      2.039      3.078
REMARK  Name = 24941248
REMARK  7 active torsions:
REMARK  status: ('A' for Active; 'I' for Inactive)
REMARK    1  A    between atoms: N_2  and  C_24
REMARK    2  A    between atoms: C_6  and  C_14
REMARK    3  A    between atoms: C_13  and  C_19
REMARK    4  A    between atoms: C_19  and  C_20
REMARK    5  A    between atoms: C_20  and  C_21
REMARK    6  A    between atoms: C_21  and  O_22
REMARK    7  A    between atoms: C_24  and  C_26
REMARK                            x       y       z     vdW  Elec       q    Type
REMARK                         _______ _______ _______ _____ _____    ______ ____
ROOT
ATOM      1  O   UNL     1      33.576 -15.729 -25.930  0.00  0.00    -0.352 OA
ATOM      2  N   UNL     1      35.614 -17.959 -21.419  0.00  0.00    -0.316 N 
ATOM      3  N   UNL     1      33.169 -14.472 -25.502  0.00  0.00    -0.077 NA
ATOM      4  N   UNL     1      35.131 -18.190 -23.739  0.00  0.00    -0.226 NA
ATOM      5  C   UNL     1      34.074 -15.616 -23.748  0.00  0.00    +0.062 A 
ATOM      6  C   UNL     1      33.473 -14.425 -24.201  0.00  0.00    +0.123 A 
ATOM      7  C   UNL     1      35.093 -17.418 -22.622  0.00  0.00    +0.129 C 
ATOM      8  C   UNL     1      34.581 -16.125 -22.551  0.00  0.00    +0.039 C 
ATOM      9  C   UNL     1      34.115 -16.408 -24.882  0.00  0.00    +0.196 A 
ATOM     10  C   UNL     1      34.637 -17.688 -24.897  0.00  0.00    +0.140 C 
ATOM     11  H   UNL     1      35.593 -17.408 -20.603  0.00  0.00    +0.148 HD
ENDROOT
BRANCH   6  14
ATOM     12 CL   UNL     1      30.884 -12.251 -20.309  0.00  0.00    -0.082 Cl
ATOM     13  C   UNL     1      33.525 -10.896 -22.990  0.00  0.00    -0.021 C 
ATOM     14  C   UNL     1      33.183 -13.246 -23.428  0.00  0.00    +0.021 C 
ATOM     15  C   UNL     1      33.805 -12.038 -23.740  0.00  0.00    -0.003 C 
ATOM     16  C   UNL     1      32.622 -10.962 -21.929  0.00  0.00    +0.007 C 
ATOM     17  C   UNL     1      32.280 -13.312 -22.367  0.00  0.00    +0.013 C 
ATOM     18  C   UNL     1      31.999 -12.170 -21.617  0.00  0.00    +0.057 C 
BRANCH  13  19
ATOM     19  C   UNL     1      34.192  -9.603 -23.322  0.00  0.00    +0.029 C 
BRANCH  19  20
ATOM     20  C   UNL     1      34.579  -9.513 -24.804  0.00  0.00    +0.036 C 
BRANCH  20  21
ATOM     21  C   UNL     1      35.983 -10.042 -25.063  0.00  0.00    +0.138 C 
BRANCH  21  22
ATOM     22  O   UNL     1      36.015 -10.651 -26.346  0.00  0.00    -0.382 OA
ATOM     23  H   UNL     1      35.476 -11.457 -26.335  0.00  0.00    +0.210 HD
ENDBRANCH  21  22
ENDBRANCH  20  21
ENDBRANCH  19  20
ENDBRANCH  13  19
ENDBRANCH   6  14
BRANCH   2  24
ATOM     24  C   UNL     1      36.168 -19.271 -21.342  0.00  0.00    +0.093 C 
ATOM     25  C   UNL     1      37.559 -19.200 -20.717  0.00  0.00    +0.026 C 
BRANCH  24  26
ATOM     26  C   UNL     1      35.229 -20.192 -20.595  0.00  0.00    -0.005 C 
ATOM     27  C   UNL     1      35.743 -21.210 -19.793  0.00  0.00    -0.003 C 
ATOM     28  C   UNL     1      33.849 -20.023 -20.707  0.00  0.00    -0.003 C 
ATOM     29  C   UNL     1      34.877 -22.061 -19.104  0.00  0.00    -0.000 C 
ATOM     30  C   UNL     1      32.984 -20.873 -20.019  0.00  0.00    -0.000 C 
ATOM     31  C   UNL     1      33.498 -21.891 -19.216  0.00  0.00    -0.000 C 
ENDBRANCH  24  26
ENDBRANCH   2  24
TORSDOF 7
ENDMDL
MODEL 7
REMARK VINA RESULT:      -9.3      7.653     12.399
REMARK  Name = 24941248
REMARK  7 active torsions:
REMARK  status: ('A' for Active; 'I' for Inactive)
REMARK    1  A    between atoms: N_2  and  C_24
REMARK    2  A    between atoms: C_6  and  C_14
REMARK    3  A    between atoms: C_13  and  C_19
REMARK    4  A    between atoms: C_19  and  C_20
REMARK    5  A    between atoms: C_20  and  C_21
REMARK    6  A    between atoms: C_21  and  O_22
REMARK    7  A    between atoms: C_24  and  C_26
REMARK                            x       y       z     vdW  Elec       q    Type
REMARK                         _______ _______ _______ _____ _____    ______ ____
ROOT
ATOM      1  O   UNL     1      31.869 -24.154 -15.037  0.00  0.00    -0.352 OA
ATOM      2  N   UNL     1      34.661 -21.925 -19.125  0.00  0.00    -0.316 N 
ATOM      3  N   UNL     1      32.868 -24.628 -14.196  0.00  0.00    -0.077 NA
ATOM      4  N   UNL     1      32.536 -22.428 -18.175  0.00  0.00    -0.226 NA
ATOM      5  C   UNL     1      33.815 -23.632 -16.018  0.00  0.00    +0.062 A 
ATOM      6  C   UNL     1      34.018 -24.308 -14.798  0.00  0.00    +0.123 A 
ATOM      7  C   UNL     1      33.890 -22.495 -18.079  0.00  0.00    +0.129 C 
ATOM      8  C   UNL     1      34.598 -23.079 -17.033  0.00  0.00    +0.039 C 
ATOM      9  C   UNL     1      32.437 -23.562 -16.121  0.00  0.00    +0.196 A 
ATOM     10  C   UNL     1      31.785 -22.967 -17.184  0.00  0.00    +0.140 C 
ATOM     11  H   UNL     1      35.644 -21.966 -19.066  0.00  0.00    +0.148 HD
ENDROOT
BRANCH   6  14
ATOM     12 CL   UNL     1      38.053 -27.509 -14.578  0.00  0.00    -0.082 Cl
ATOM     13  C   UNL     1      37.021 -24.199 -12.584  0.00  0.00    -0.021 C 
ATOM     14  C   UNL     1      35.277 -24.655 -14.192  0.00  0.00    +0.021 C 
ATOM     15  C   UNL     1      35.800 -23.863 -13.170  0.00  0.00    -0.003 C 
ATOM     16  C   UNL     1      37.717 -25.326 -13.019  0.00  0.00    +0.007 C 
ATOM     17  C   UNL     1      35.973 -25.782 -14.628  0.00  0.00    +0.013 C 
ATOM     18  C   UNL     1      37.194 -26.118 -14.041  0.00  0.00    +0.057 C 
BRANCH  13  19
ATOM     19  C   UNL     1      37.581 -23.352 -11.492  0.00  0.00    +0.029 C 
BRANCH  19  20
ATOM     20  C   UNL     1      36.857 -23.569 -10.157  0.00  0.00    +0.036 C 
BRANCH  20  21
ATOM     21  C   UNL     1      35.745 -24.602 -10.270  0.00  0.00    +0.138 C 
BRANCH  21  22
ATOM     22  O   UNL     1      35.334 -24.980  -8.963  0.00  0.00    -0.382 OA
ATOM     23  H   UNL     1      35.798 -25.790  -8.700  0.00  0.00    +0.210 HD
ENDBRANCH  21  22
ENDBRANCH  20  21
ENDBRANCH  19  20
ENDBRANCH  13  19
ENDBRANCH   6  14
BRANCH   2  24
ATOM     24  C   UNL     1      34.071 -21.295 -20.260  0.00  0.00    +0.093 C 
ATOM     25  C   UNL     1      32.787 -20.586 -19.838  0.00  0.00    +0.026 C 
BRANCH  24  26
ATOM     26  C   UNL     1      35.068 -20.368 -20.921  0.00  0.00    -0.005 C 
ATOM     27  C   UNL     1      36.296 -20.116 -20.311  0.00  0.00    -0.003 C 
ATOM     28  C   UNL     1      34.759 -19.766 -22.141  0.00  0.00    -0.003 C 
ATOM     29  C   UNL     1      37.216 -19.260 -20.920  0.00  0.00    -0.000 C 
ATOM     30  C   UNL     1      35.677 -18.912 -22.750  0.00  0.00    -0.000 C 
ATOM     31  C   UNL     1      36.906 -18.659 -22.140  0.00  0.00    -0.000 C 
ENDBRANCH  24  26
ENDBRANCH   2  24
TORSDOF 7
ENDMDL
