MODEL 1
REMARK VINA RESULT:     -11.0      0.000      0.000
REMARK  Name = 11524144
REMARK  6 active torsions:
REMARK  status: ('A' for Active; 'I' for Inactive)
REMARK    1  A    between atoms: C_1  and  O_22
REMARK    2  A    between atoms: C_2  and  C_10
REMARK    3  A    between atoms: C_12  and  C_17
REMARK    4  A    between atoms: O_22  and  C_23
REMARK    5  A    between atoms: C_23  and  C_24
REMARK    6  A    between atoms: C_24  and  N_25
REMARK                            x       y       z     vdW  Elec       q    Type
REMARK                         _______ _______ _______ _____ _____    ______ ____
ROOT
ATOM      1  C   UNL     1      35.831 -19.186 -22.186  0.00  0.00    +0.138 C 
ATOM      2  C   UNL     1      35.856 -20.748 -19.887  0.00  0.00    -0.001 C 
ATOM      3  C   UNL     1      37.000 -19.298 -21.443  0.00  0.00    +0.037 C 
ATOM      4  C   UNL     1      34.674 -19.848 -21.791  0.00  0.00    +0.037 C 
ATOM      5  C   UNL     1      37.013 -20.082 -20.289  0.00  0.00    +0.003 C 
ATOM      6  C   UNL     1      34.687 -20.631 -20.637  0.00  0.00    +0.003 C 
ENDROOT
BRANCH   2  10
ATOM      7  N   UNL     1      34.900 -23.058 -17.082  0.00  0.00    -0.193 N 
ATOM      8  N   UNL     1      37.153 -22.338 -16.657  0.00  0.00    -0.231 NA
ATOM      9  N   UNL     1      33.934 -23.845 -16.539  0.00  0.00    -0.179 NA
ATOM     10  C   UNL     1      35.869 -21.573 -18.670  0.00  0.00    +0.019 C 
ATOM     11  C   UNL     1      36.055 -23.060 -16.302  0.00  0.00    +0.137 C 
ATOM     12  C   UNL     1      35.799 -23.884 -15.230  0.00  0.00    +0.121 C 
ATOM     13  C   UNL     1      34.826 -22.311 -18.255  0.00  0.00    +0.145 C 
ATOM     14  C   UNL     1      37.053 -21.652 -17.757  0.00  0.00    +0.097 C 
ATOM     15  C   UNL     1      34.487 -24.334 -15.429  0.00  0.00    +0.103 C 
BRANCH  12  17
ATOM     16  N   UNL     1      38.557 -24.710 -12.129  0.00  0.00    -0.242 NA
ATOM     17  C   UNL     1      36.732 -24.162 -14.181  0.00  0.00    -0.007 C 
ATOM     18  C   UNL     1      37.701 -25.149 -14.347  0.00  0.00    +0.017 C 
ATOM     19  C   UNL     1      36.679 -23.451 -12.986  0.00  0.00    +0.017 C 
ATOM     20  C   UNL     1      38.581 -25.381 -13.302  0.00  0.00    +0.099 C 
ATOM     21  C   UNL     1      37.605 -23.760 -12.001  0.00  0.00    +0.099 C 
ENDBRANCH  12  17
ENDBRANCH   2  10
BRANCH   1  22
ATOM     22  O   UNL     1      35.819 -18.416 -23.320  0.00  0.00    -0.478 OA
BRANCH  22  23
ATOM     23  C   UNL     1      34.738 -17.506 -23.466  0.00  0.00    +0.183 C 
BRANCH  23  24
ATOM     24  C   UNL     1      35.295 -16.093 -23.541  0.00  0.00    -0.029 C 
BRANCH  24  25
ATOM     25  N   UNL     1      34.645 -15.229 -22.557  0.00  0.00    +0.389 N 
ATOM     26  C   UNL     1      33.386 -14.694 -23.094  0.00  0.00    -0.077 C 
ATOM     27  C   UNL     1      34.420 -15.959 -21.302  0.00  0.00    -0.077 C 
ATOM     28  C   UNL     1      32.717 -13.749 -22.095  0.00  0.00    -0.023 C 
ATOM     29  C   UNL     1      33.785 -15.055 -20.244  0.00  0.00    -0.023 C 
ATOM     30  C   UNL     1      32.489 -14.433 -20.751  0.00  0.00    -0.004 C 
ATOM     31  H   UNL     1      35.261 -14.441 -22.356  0.00  0.00    -0.080 HD
ENDBRANCH  24  25
ENDBRANCH  23  24
ENDBRANCH  22  23
ENDBRANCH   1  22
TORSDOF 6
ENDMDL
MODEL 2
REMARK VINA RESULT:     -11.0      1.279      1.819
REMARK  Name = 11524144
REMARK  6 active torsions:
REMARK  status: ('A' for Active; 'I' for Inactive)
REMARK    1  A    between atoms: C_1  and  O_22
REMARK    2  A    between atoms: C_2  and  C_10
REMARK    3  A    between atoms: C_12  and  C_17
REMARK    4  A    between atoms: O_22  and  C_23
REMARK    5  A    between atoms: C_23  and  C_24
REMARK    6  A    between atoms: C_24  and  N_25
REMARK                            x       y       z     vdW  Elec       q    Type
REMARK                         _______ _______ _______ _____ _____    ______ ____
ROOT
ATOM      1  C   UNL     1      34.851 -20.263 -21.301  0.00  0.00    +0.138 C 
ATOM      2  C   UNL     1      34.823 -21.706 -18.925  0.00  0.00    -0.001 C 
ATOM      3  C   UNL     1      36.051 -20.639 -20.710  0.00  0.00    +0.037 C 
ATOM      4  C   UNL     1      33.636 -20.601 -20.715  0.00  0.00    +0.037 C 
ATOM      5  C   UNL     1      36.038 -21.363 -19.518  0.00  0.00    +0.003 C 
ATOM      6  C   UNL     1      33.623 -21.325 -19.523  0.00  0.00    +0.003 C 
ENDROOT
BRANCH   2  10
ATOM      7  N   UNL     1      33.758 -23.718 -15.936  0.00  0.00    -0.193 N 
ATOM      8  N   UNL     1      36.117 -23.323 -15.707  0.00  0.00    -0.231 NA
ATOM      9  N   UNL     1      32.732 -24.328 -15.285  0.00  0.00    -0.179 NA
ATOM     10  C   UNL     1      34.809 -22.468 -17.667  0.00  0.00    +0.019 C 
ATOM     11  C   UNL     1      34.956 -23.857 -15.238  0.00  0.00    +0.137 C 
ATOM     12  C   UNL     1      34.666 -24.585 -14.107  0.00  0.00    +0.121 C 
ATOM     13  C   UNL     1      33.704 -23.023 -17.142  0.00  0.00    +0.145 C 
ATOM     14  C   UNL     1      36.035 -22.681 -16.834  0.00  0.00    +0.097 C 
ATOM     15  C   UNL     1      33.291 -24.843 -14.190  0.00  0.00    +0.103 C 
BRANCH  12  17
ATOM     16  N   UNL     1      37.504 -25.665 -11.161  0.00  0.00    -0.242 NA
ATOM     17  C   UNL     1      35.625 -24.951 -13.110  0.00  0.00    -0.007 C 
ATOM     18  C   UNL     1      35.637 -24.306 -11.876  0.00  0.00    +0.017 C 
ATOM     19  C   UNL     1      36.556 -25.954 -13.366  0.00  0.00    +0.017 C 
ATOM     20  C   UNL     1      36.586 -24.696 -10.945  0.00  0.00    +0.099 C 
ATOM     21  C   UNL     1      37.465 -26.271 -12.368  0.00  0.00    +0.099 C 
ENDBRANCH  12  17
ENDBRANCH   2  10
BRANCH   1  22
ATOM     22  O   UNL     1      34.865 -19.552 -22.472  0.00  0.00    -0.478 OA
BRANCH  22  23
ATOM     23  C   UNL     1      35.720 -18.419 -22.525  0.00  0.00    +0.183 C 
BRANCH  23  24
ATOM     24  C   UNL     1      35.101 -17.381 -23.449  0.00  0.00    -0.029 C 
BRANCH  24  25
ATOM     25  N   UNL     1      34.982 -16.091 -22.770  0.00  0.00    +0.389 N 
ATOM     26  C   UNL     1      34.128 -15.180 -23.544  0.00  0.00    -0.077 C 
ATOM     27  C   UNL     1      34.466 -16.275 -21.407  0.00  0.00    -0.077 C 
ATOM     28  C   UNL     1      34.032 -13.809 -22.873  0.00  0.00    -0.023 C 
ATOM     29  C   UNL     1      34.381 -14.940 -20.666  0.00  0.00    -0.023 C 
ATOM     30  C   UNL     1      33.538 -13.929 -21.435  0.00  0.00    -0.004 C 
ATOM     31  H   UNL     1      35.909 -15.671 -22.702  0.00  0.00    -0.080 HD
ENDBRANCH  24  25
ENDBRANCH  23  24
ENDBRANCH  22  23
ENDBRANCH   1  22
TORSDOF 6
ENDMDL
MODEL 3
REMARK VINA RESULT:     -11.0      1.946      3.155
REMARK  Name = 11524144
REMARK  6 active torsions:
REMARK  status: ('A' for Active; 'I' for Inactive)
REMARK    1  A    between atoms: C_1  and  O_22
REMARK    2  A    between atoms: C_2  and  C_10
REMARK    3  A    between atoms: C_12  and  C_17
REMARK    4  A    between atoms: O_22  and  C_23
REMARK    5  A    between atoms: C_23  and  C_24
REMARK    6  A    between atoms: C_24  and  N_25
REMARK                            x       y       z     vdW  Elec       q    Type
REMARK                         _______ _______ _______ _____ _____    ______ ____
ROOT
ATOM      1  C   UNL     1      34.716 -17.444 -24.411  0.00  0.00    +0.138 C 
ATOM      2  C   UNL     1      34.816 -19.141 -22.211  0.00  0.00    -0.001 C 
ATOM      3  C   UNL     1      35.129 -16.950 -23.179  0.00  0.00    +0.037 C 
ATOM      4  C   UNL     1      34.354 -18.779 -24.554  0.00  0.00    +0.037 C 
ATOM      5  C   UNL     1      35.179 -17.801 -22.075  0.00  0.00    +0.003 C 
ATOM      6  C   UNL     1      34.404 -19.630 -23.450  0.00  0.00    +0.003 C 
ENDROOT
BRANCH   2  10
ATOM      7  N   UNL     1      33.930 -21.558 -19.474  0.00  0.00    -0.193 N 
ATOM      8  N   UNL     1      36.248 -20.996 -19.187  0.00  0.00    -0.231 NA
ATOM      9  N   UNL     1      32.959 -22.319 -18.903  0.00  0.00    -0.179 NA
ATOM     10  C   UNL     1      34.868 -20.038 -21.047  0.00  0.00    +0.019 C 
ATOM     11  C   UNL     1      35.137 -21.674 -18.788  0.00  0.00    +0.137 C 
ATOM     12  C   UNL     1      34.910 -22.546 -17.747  0.00  0.00    +0.121 C 
ATOM     13  C   UNL     1      33.815 -20.738 -20.595  0.00  0.00    +0.145 C 
ATOM     14  C   UNL     1      36.110 -20.241 -20.235  0.00  0.00    +0.097 C 
ATOM     15  C   UNL     1      33.562 -22.906 -17.869  0.00  0.00    +0.103 C 
BRANCH  12  17
ATOM     16  N   UNL     1      37.833 -23.713 -14.920  0.00  0.00    -0.242 NA
ATOM     17  C   UNL     1      35.900 -22.941 -16.792  0.00  0.00    -0.007 C 
ATOM     18  C   UNL     1      35.568 -23.813 -15.757  0.00  0.00    +0.017 C 
ATOM     19  C   UNL     1      37.201 -22.456 -16.886  0.00  0.00    +0.017 C 
ATOM     20  C   UNL     1      36.561 -24.165 -14.858  0.00  0.00    +0.099 C 
ATOM     21  C   UNL     1      38.121 -22.869 -15.935  0.00  0.00    +0.099 C 
ENDBRANCH  12  17
ENDBRANCH   2  10
BRANCH   1  22
ATOM     22  O   UNL     1      34.667 -16.608 -25.496  0.00  0.00    -0.478 OA
BRANCH  22  23
ATOM     23  C   UNL     1      33.408 -16.024 -25.799  0.00  0.00    +0.183 C 
BRANCH  23  24
ATOM     24  C   UNL     1      33.616 -14.549 -26.110  0.00  0.00    -0.029 C 
BRANCH  24  25
ATOM     25  N   UNL     1      33.813 -13.786 -24.878  0.00  0.00    +0.389 N 
ATOM     26  C   UNL     1      33.776 -12.343 -25.156  0.00  0.00    -0.077 C 
ATOM     27  C   UNL     1      32.807 -14.160 -23.875  0.00  0.00    -0.077 C 
ATOM     28  C   UNL     1      34.029 -11.529 -23.886  0.00  0.00    -0.023 C 
ATOM     29  C   UNL     1      33.029 -13.406 -22.563  0.00  0.00    -0.023 C 
ATOM     30  C   UNL     1      33.041 -11.898 -22.784  0.00  0.00    -0.004 C 
ATOM     31  H   UNL     1      34.733 -14.008 -24.499  0.00  0.00    -0.080 HD
ENDBRANCH  24  25
ENDBRANCH  23  24
ENDBRANCH  22  23
ENDBRANCH   1  22
TORSDOF 6
ENDMDL
MODEL 4
REMARK VINA RESULT:     -10.8      5.086      9.717
REMARK  Name = 11524144
REMARK  6 active torsions:
REMARK  status: ('A' for Active; 'I' for Inactive)
REMARK    1  A    between atoms: C_1  and  O_22
REMARK    2  A    between atoms: C_2  and  C_10
REMARK    3  A    between atoms: C_12  and  C_17
REMARK    4  A    between atoms: O_22  and  C_23
REMARK    5  A    between atoms: C_23  and  C_24
REMARK    6  A    between atoms: C_24  and  N_25
REMARK                            x       y       z     vdW  Elec       q    Type
REMARK                         _______ _______ _______ _____ _____    ______ ____
ROOT
ATOM      1  C   UNL     1      32.010  -9.905 -22.371  0.00  0.00    +0.138 C 
ATOM      2  C   UNL     1      33.039 -12.486 -22.474  0.00  0.00    -0.001 C 
ATOM      3  C   UNL     1      33.055 -10.196 -23.241  0.00  0.00    +0.037 C 
ATOM      4  C   UNL     1      31.474 -10.893 -21.553  0.00  0.00    +0.037 C 
ATOM      5  C   UNL     1      33.571 -11.490 -23.292  0.00  0.00    +0.003 C 
ATOM      6  C   UNL     1      31.991 -12.188 -21.604  0.00  0.00    +0.003 C 
ENDROOT
BRANCH   2  10
ATOM      7  N   UNL     1      34.262 -15.841 -23.642  0.00  0.00    -0.193 N 
ATOM      8  N   UNL     1      34.457 -15.822 -21.247  0.00  0.00    -0.231 NA
ATOM      9  N   UNL     1      34.487 -16.660 -24.703  0.00  0.00    -0.179 NA
ATOM     10  C   UNL     1      33.584 -13.851 -22.527  0.00  0.00    +0.019 C 
ATOM     11  C   UNL     1      34.602 -16.460 -22.441  0.00  0.00    +0.137 C 
ATOM     12  C   UNL     1      35.061 -17.716 -22.767  0.00  0.00    +0.121 C 
ATOM     13  C   UNL     1      33.755 -14.544 -23.665  0.00  0.00    +0.145 C 
ATOM     14  C   UNL     1      33.983 -14.612 -21.301  0.00  0.00    +0.097 C 
ATOM     15  C   UNL     1      34.967 -17.780 -24.163  0.00  0.00    +0.103 C 
BRANCH  12  17
ATOM     16  N   UNL     1      36.407 -20.579 -19.957  0.00  0.00    -0.242 NA
ATOM     17  C   UNL     1      35.515 -18.684 -21.816  0.00  0.00    -0.007 C 
ATOM     18  C   UNL     1      36.844 -18.686 -21.396  0.00  0.00    +0.017 C 
ATOM     19  C   UNL     1      34.635 -19.633 -21.304  0.00  0.00    +0.017 C 
ATOM     20  C   UNL     1      37.234 -19.644 -20.474  0.00  0.00    +0.099 C 
ATOM     21  C   UNL     1      35.125 -20.549 -20.386  0.00  0.00    +0.099 C 
ENDBRANCH  12  17
ENDBRANCH   2  10
BRANCH   1  22
ATOM     22  O   UNL     1      31.503  -8.633 -22.321  0.00  0.00    -0.478 OA
BRANCH  22  23
ATOM     23  C   UNL     1      31.766  -7.883 -21.143  0.00  0.00    +0.183 C 
BRANCH  23  24
ATOM     24  C   UNL     1      32.712  -6.744 -21.490  0.00  0.00    -0.029 C 
BRANCH  24  25
ATOM     25  N   UNL     1      32.411  -6.210 -22.818  0.00  0.00    +0.389 N 
ATOM     26  C   UNL     1      31.908  -4.833 -22.716  0.00  0.00    -0.077 C 
ATOM     27  C   UNL     1      33.598  -6.280 -23.680  0.00  0.00    -0.077 C 
ATOM     28  C   UNL     1      31.542  -4.275 -24.092  0.00  0.00    -0.023 C 
ATOM     29  C   UNL     1      33.287  -5.770 -25.088  0.00  0.00    -0.023 C 
ATOM     30  C   UNL     1      32.723  -4.355 -25.054  0.00  0.00    -0.004 C 
ATOM     31  H   UNL     1      31.680  -6.780 -23.241  0.00  0.00    -0.080 HD
ENDBRANCH  24  25
ENDBRANCH  23  24
ENDBRANCH  22  23
ENDBRANCH   1  22
TORSDOF 6
ENDMDL
MODEL 5
REMARK VINA RESULT:     -10.8      3.933     12.445
REMARK  Name = 11524144
REMARK  6 active torsions:
REMARK  status: ('A' for Active; 'I' for Inactive)
REMARK    1  A    between atoms: C_1  and  O_22
REMARK    2  A    between atoms: C_2  and  C_10
REMARK    3  A    between atoms: C_12  and  C_17
REMARK    4  A    between atoms: O_22  and  C_23
REMARK    5  A    between atoms: C_23  and  C_24
REMARK    6  A    between atoms: C_24  and  N_25
REMARK                            x       y       z     vdW  Elec       q    Type
REMARK                         _______ _______ _______ _____ _____    ______ ____
ROOT
ATOM      1  C   UNL     1      35.041 -17.430 -23.295  0.00  0.00    +0.138 C 
ATOM      2  C   UNL     1      34.084 -14.842 -22.956  0.00  0.00    -0.001 C 
ATOM      3  C   UNL     1      34.608 -16.706 -24.400  0.00  0.00    +0.037 C 
ATOM      4  C   UNL     1      35.000 -16.873 -22.022  0.00  0.00    +0.037 C 
ATOM      5  C   UNL     1      34.128 -15.407 -24.230  0.00  0.00    +0.003 C 
ATOM      6  C   UNL     1      34.520 -15.574 -21.852  0.00  0.00    +0.003 C 
ENDROOT
BRANCH   2  10
ATOM      7  N   UNL     1      32.183 -11.822 -21.778  0.00  0.00    -0.193 N 
ATOM      8  N   UNL     1      33.662 -11.081 -23.521  0.00  0.00    -0.231 NA
ATOM      9  N   UNL     1      31.239 -11.336 -20.931  0.00  0.00    -0.179 NA
ATOM     10  C   UNL     1      33.577 -13.473 -22.776  0.00  0.00    +0.019 C 
ATOM     11  C   UNL     1      32.701 -10.818 -22.594  0.00  0.00    +0.137 C 
ATOM     12  C   UNL     1      32.053  -9.657 -22.239  0.00  0.00    +0.121 C 
ATOM     13  C   UNL     1      32.631 -13.137 -21.884  0.00  0.00    +0.145 C 
ATOM     14  C   UNL     1      34.059 -12.316 -23.596  0.00  0.00    +0.097 C 
ATOM     15  C   UNL     1      31.171 -10.036 -21.218  0.00  0.00    +0.103 C 
BRANCH  12  17
ATOM     16  N   UNL     1      32.759  -5.881 -24.014  0.00  0.00    -0.242 NA
ATOM     17  C   UNL     1      32.291  -8.380 -22.840  0.00  0.00    -0.007 C 
ATOM     18  C   UNL     1      33.527  -7.755 -22.693  0.00  0.00    +0.017 C 
ATOM     19  C   UNL     1      31.290  -7.752 -23.576  0.00  0.00    +0.017 C 
ATOM     20  C   UNL     1      33.708  -6.519 -23.294  0.00  0.00    +0.099 C 
ATOM     21  C   UNL     1      31.572  -6.516 -24.138  0.00  0.00    +0.099 C 
ENDBRANCH  12  17
ENDBRANCH   2  10
BRANCH   1  22
ATOM     22  O   UNL     1      35.513 -18.706 -23.463  0.00  0.00    -0.478 OA
BRANCH  22  23
ATOM     23  C   UNL     1      35.024 -19.693 -22.566  0.00  0.00    +0.183 C 
BRANCH  23  24
ATOM     24  C   UNL     1      35.864 -19.662 -21.298  0.00  0.00    -0.029 C 
BRANCH  24  25
ATOM     25  N   UNL     1      35.157 -20.311 -20.195  0.00  0.00    +0.389 N 
ATOM     26  C   UNL     1      33.755 -20.559 -20.557  0.00  0.00    -0.077 C 
ATOM     27  C   UNL     1      35.836 -21.557 -19.813  0.00  0.00    -0.077 C 
ATOM     28  C   UNL     1      32.988 -21.193 -19.396  0.00  0.00    -0.023 C 
ATOM     29  C   UNL     1      35.137 -22.224 -18.627  0.00  0.00    -0.023 C 
ATOM     30  C   UNL     1      33.663 -22.476 -18.921  0.00  0.00    -0.004 C 
ATOM     31  H   UNL     1      35.168 -19.687 -19.388  0.00  0.00    -0.080 HD
ENDBRANCH  24  25
ENDBRANCH  23  24
ENDBRANCH  22  23
ENDBRANCH   1  22
TORSDOF 6
ENDMDL
MODEL 6
REMARK VINA RESULT:     -10.7      3.657      9.910
REMARK  Name = 11524144
REMARK  6 active torsions:
REMARK  status: ('A' for Active; 'I' for Inactive)
REMARK    1  A    between atoms: C_1  and  O_22
REMARK    2  A    between atoms: C_2  and  C_10
REMARK    3  A    between atoms: C_12  and  C_17
REMARK    4  A    between atoms: O_22  and  C_23
REMARK    5  A    between atoms: C_23  and  C_24
REMARK    6  A    between atoms: C_24  and  N_25
REMARK                            x       y       z     vdW  Elec       q    Type
REMARK                         _______ _______ _______ _____ _____    ______ ____
ROOT
ATOM      1  C   UNL     1      33.988 -24.169 -15.702  0.00  0.00    +0.138 C 
ATOM      2  C   UNL     1      34.631 -22.476 -17.811  0.00  0.00    -0.001 C 
ATOM      3  C   UNL     1      35.258 -23.608 -15.771  0.00  0.00    +0.037 C 
ATOM      4  C   UNL     1      33.036 -23.892 -16.677  0.00  0.00    +0.037 C 
ATOM      5  C   UNL     1      35.581 -22.759 -16.829  0.00  0.00    +0.003 C 
ATOM      6  C   UNL     1      33.360 -23.043 -17.735  0.00  0.00    +0.003 C 
ENDROOT
BRANCH   2  10
ATOM      7  N   UNL     1      36.462 -20.263 -20.234  0.00  0.00    -0.193 N 
ATOM      8  N   UNL     1      34.155 -20.274 -20.904  0.00  0.00    -0.231 NA
ATOM      9  N   UNL     1      37.654 -19.721 -20.597  0.00  0.00    -0.179 NA
ATOM     10  C   UNL     1      34.972 -21.582 -18.928  0.00  0.00    +0.019 C 
ATOM     11  C   UNL     1      35.437 -19.852 -21.082  0.00  0.00    +0.137 C 
ATOM     12  C   UNL     1      36.013 -19.019 -22.014  0.00  0.00    +0.121 C 
ATOM     13  C   UNL     1      36.212 -21.123 -19.167  0.00  0.00    +0.145 C 
ATOM     14  C   UNL     1      33.953 -21.076 -19.901  0.00  0.00    +0.097 C 
ATOM     15  C   UNL     1      37.370 -18.977 -21.666  0.00  0.00    +0.103 C 
BRANCH  12  17
ATOM     16  N   UNL     1      33.910 -17.118 -25.155  0.00  0.00    -0.242 NA
ATOM     17  C   UNL     1      35.302 -18.376 -23.076  0.00  0.00    -0.007 C 
ATOM     18  C   UNL     1      34.592 -19.133 -24.005  0.00  0.00    +0.017 C 
ATOM     19  C   UNL     1      35.313 -16.988 -23.190  0.00  0.00    +0.017 C 
ATOM     20  C   UNL     1      33.920 -18.463 -25.015  0.00  0.00    +0.099 C 
ATOM     21  C   UNL     1      34.609 -16.414 -24.237  0.00  0.00    +0.099 C 
ENDBRANCH  12  17
ENDBRANCH   2  10
BRANCH   1  22
ATOM     22  O   UNL     1      33.670 -25.003 -14.662  0.00  0.00    -0.478 OA
BRANCH  22  23
ATOM     23  C   UNL     1      32.832 -24.470 -13.645  0.00  0.00    +0.183 C 
BRANCH  23  24
ATOM     24  C   UNL     1      31.641 -25.396 -13.459  0.00  0.00    -0.029 C 
BRANCH  24  25
ATOM     25  N   UNL     1      30.428 -24.794 -14.012  0.00  0.00    +0.389 N 
ATOM     26  C   UNL     1      30.609 -23.347 -14.194  0.00  0.00    -0.077 C 
ATOM     27  C   UNL     1      30.063 -25.447 -15.277  0.00  0.00    -0.077 C 
ATOM     28  C   UNL     1      29.333 -22.694 -14.727  0.00  0.00    -0.023 C 
ATOM     29  C   UNL     1      28.769 -24.862 -15.846  0.00  0.00    -0.023 C 
ATOM     30  C   UNL     1      28.873 -23.352 -16.024  0.00  0.00    -0.004 C 
ATOM     31  H   UNL     1      29.663 -24.935 -13.354  0.00  0.00    -0.080 HD
ENDBRANCH  24  25
ENDBRANCH  23  24
ENDBRANCH  22  23
ENDBRANCH   1  22
TORSDOF 6
ENDMDL
MODEL 7
REMARK VINA RESULT:     -10.5      2.129     11.285
REMARK  Name = 11524144
REMARK  6 active torsions:
REMARK  status: ('A' for Active; 'I' for Inactive)
REMARK    1  A    between atoms: C_1  and  O_22
REMARK    2  A    between atoms: C_2  and  C_10
REMARK    3  A    between atoms: C_12  and  C_17
REMARK    4  A    between atoms: O_22  and  C_23
REMARK    5  A    between atoms: C_23  and  C_24
REMARK    6  A    between atoms: C_24  and  N_25
REMARK                            x       y       z     vdW  Elec       q    Type
REMARK                         _______ _______ _______ _____ _____    ______ ____
ROOT
ATOM      1  C   UNL     1      36.110 -20.897 -19.982  0.00  0.00    +0.138 C 
ATOM      2  C   UNL     1      35.326 -18.547 -21.243  0.00  0.00    -0.001 C 
ATOM      3  C   UNL     1      34.767 -20.685 -20.267  0.00  0.00    +0.037 C 
ATOM      4  C   UNL     1      37.066 -19.946 -20.322  0.00  0.00    +0.037 C 
ATOM      5  C   UNL     1      34.373 -19.505 -20.900  0.00  0.00    +0.003 C 
ATOM      6  C   UNL     1      36.672 -18.767 -20.954  0.00  0.00    +0.003 C 
ENDROOT
BRANCH   2  10
ATOM      7  N   UNL     1      34.338 -15.979 -23.802  0.00  0.00    -0.193 N 
ATOM      8  N   UNL     1      34.334 -14.876 -21.667  0.00  0.00    -0.231 NA
ATOM      9  N   UNL     1      34.107 -15.716 -25.115  0.00  0.00    -0.179 NA
ATOM     10  C   UNL     1      34.911 -17.303 -21.909  0.00  0.00    +0.019 C 
ATOM     11  C   UNL     1      34.155 -14.843 -23.016  0.00  0.00    +0.137 C 
ATOM     12  C   UNL     1      33.793 -13.830 -23.875  0.00  0.00    +0.121 C 
ATOM     13  C   UNL     1      34.715 -17.193 -23.233  0.00  0.00    +0.145 C 
ATOM     14  C   UNL     1      34.684 -16.023 -21.167  0.00  0.00    +0.097 C 
ATOM     15  C   UNL     1      33.781 -14.424 -25.144  0.00  0.00    +0.103 C 
BRANCH  12  17
ATOM     16  N   UNL     1      32.953  -9.859 -22.679  0.00  0.00    -0.242 NA
ATOM     17  C   UNL     1      33.510 -12.487 -23.471  0.00  0.00    -0.007 C 
ATOM     18  C   UNL     1      32.533 -12.234 -22.510  0.00  0.00    +0.017 C 
ATOM     19  C   UNL     1      34.207 -11.422 -24.034  0.00  0.00    +0.017 C 
ATOM     20  C   UNL     1      32.296 -10.917 -22.153  0.00  0.00    +0.099 C 
ATOM     21  C   UNL     1      33.894 -10.140 -23.608  0.00  0.00    +0.099 C 
ENDBRANCH  12  17
ENDBRANCH   2  10
BRANCH   1  22
ATOM     22  O   UNL     1      36.498 -22.056 -19.361  0.00  0.00    -0.478 OA
BRANCH  22  23
ATOM     23  C   UNL     1      35.853 -22.372 -18.134  0.00  0.00    +0.183 C 
BRANCH  23  24
ATOM     24  C   UNL     1      36.891 -22.372 -17.023  0.00  0.00    -0.029 C 
BRANCH  24  25
ATOM     25  N   UNL     1      36.713 -23.532 -16.150  0.00  0.00    +0.389 N 
ATOM     26  C   UNL     1      37.705 -23.517 -15.066  0.00  0.00    -0.077 C 
ATOM     27  C   UNL     1      35.344 -23.567 -15.617  0.00  0.00    -0.077 C 
ATOM     28  C   UNL     1      37.564 -24.750 -14.172  0.00  0.00    -0.023 C 
ATOM     29  C   UNL     1      35.126 -24.802 -14.741  0.00  0.00    -0.023 C 
ATOM     30  C   UNL     1      36.150 -24.871 -13.614  0.00  0.00    -0.004 C 
ATOM     31  H   UNL     1      36.859 -24.379 -16.698  0.00  0.00    -0.080 HD
ENDBRANCH  24  25
ENDBRANCH  23  24
ENDBRANCH  22  23
ENDBRANCH   1  22
TORSDOF 6
ENDMDL
MODEL 8
REMARK VINA RESULT:     -10.4      4.531      8.372
REMARK  Name = 11524144
REMARK  6 active torsions:
REMARK  status: ('A' for Active; 'I' for Inactive)
REMARK    1  A    between atoms: C_1  and  O_22
REMARK    2  A    between atoms: C_2  and  C_10
REMARK    3  A    between atoms: C_12  and  C_17
REMARK    4  A    between atoms: O_22  and  C_23
REMARK    5  A    between atoms: C_23  and  C_24
REMARK    6  A    between atoms: C_24  and  N_25
REMARK                            x       y       z     vdW  Elec       q    Type
REMARK                         _______ _______ _______ _____ _____    ______ ____
ROOT
ATOM      1  C   UNL     1      32.913 -11.214 -22.759  0.00  0.00    +0.138 C 
ATOM      2  C   UNL     1      33.686 -13.866 -22.441  0.00  0.00    -0.001 C 
ATOM      3  C   UNL     1      33.832 -11.773 -23.639  0.00  0.00    +0.037 C 
ATOM      4  C   UNL     1      32.377 -11.968 -21.721  0.00  0.00    +0.037 C 
ATOM      5  C   UNL     1      34.220 -13.103 -23.480  0.00  0.00    +0.003 C 
ATOM      6  C   UNL     1      32.765 -13.298 -21.562  0.00  0.00    +0.003 C 
ENDROOT
BRANCH   2  10
ATOM      7  N   UNL     1      34.765 -17.411 -23.063  0.00  0.00    -0.193 N 
ATOM      8  N   UNL     1      34.531 -17.158 -20.685  0.00  0.00    -0.231 NA
ATOM      9  N   UNL     1      35.095 -18.350 -23.988  0.00  0.00    -0.179 NA
ATOM     10  C   UNL     1      34.096 -15.268 -22.273  0.00  0.00    +0.019 C 
ATOM     11  C   UNL     1      34.824 -17.926 -21.770  0.00  0.00    +0.137 C 
ATOM     12  C   UNL     1      35.209 -19.242 -21.893  0.00  0.00    +0.121 C 
ATOM     13  C   UNL     1      34.400 -16.086 -23.293  0.00  0.00    +0.145 C 
ATOM     14  C   UNL     1      34.195 -15.927 -20.932  0.00  0.00    +0.097 C 
ATOM     15  C   UNL     1      35.359 -19.444 -23.272  0.00  0.00    +0.103 C 
BRANCH  12  17
ATOM     16  N   UNL     1      35.747 -21.897 -18.643  0.00  0.00    -0.242 NA
ATOM     17  C   UNL     1      35.390 -20.140 -20.794  0.00  0.00    -0.007 C 
ATOM     18  C   UNL     1      36.654 -20.320 -20.235  0.00  0.00    +0.017 C 
ATOM     19  C   UNL     1      34.306 -20.841 -20.273  0.00  0.00    +0.017 C 
ATOM     20  C   UNL     1      36.777 -21.201 -19.173  0.00  0.00    +0.099 C 
ATOM     21  C   UNL     1      34.535 -21.698 -19.208  0.00  0.00    +0.099 C 
ENDBRANCH  12  17
ENDBRANCH   2  10
BRANCH   1  22
ATOM     22  O   UNL     1      32.531  -9.907 -22.916  0.00  0.00    -0.478 OA
BRANCH  22  23
ATOM     23  C   UNL     1      32.076  -9.228 -21.753  0.00  0.00    +0.183 C 
BRANCH  23  24
ATOM     24  C   UNL     1      33.076  -8.139 -21.400  0.00  0.00    -0.029 C 
BRANCH  24  25
ATOM     25  N   UNL     1      32.528  -6.817 -21.702  0.00  0.00    +0.389 N 
ATOM     26  C   UNL     1      32.787  -6.461 -23.104  0.00  0.00    -0.077 C 
ATOM     27  C   UNL     1      31.090  -6.777 -21.400  0.00  0.00    -0.077 C 
ATOM     28  C   UNL     1      32.262  -5.061 -23.424  0.00  0.00    -0.023 C 
ATOM     29  C   UNL     1      30.510  -5.387 -21.665  0.00  0.00    -0.023 C 
ATOM     30  C   UNL     1      30.778  -4.936 -23.096  0.00  0.00    -0.004 C 
ATOM     31  H   UNL     1      32.992  -6.128 -21.112  0.00  0.00    -0.080 HD
ENDBRANCH  24  25
ENDBRANCH  23  24
ENDBRANCH  22  23
ENDBRANCH   1  22
TORSDOF 6
ENDMDL
MODEL 9
REMARK VINA RESULT:     -10.0      2.509     10.780
REMARK  Name = 11524144
REMARK  6 active torsions:
REMARK  status: ('A' for Active; 'I' for Inactive)
REMARK    1  A    between atoms: C_1  and  O_22
REMARK    2  A    between atoms: C_2  and  C_10
REMARK    3  A    between atoms: C_12  and  C_17
REMARK    4  A    between atoms: O_22  and  C_23
REMARK    5  A    between atoms: C_23  and  C_24
REMARK    6  A    between atoms: C_24  and  N_25
REMARK                            x       y       z     vdW  Elec       q    Type
REMARK                         _______ _______ _______ _____ _____    ______ ____
ROOT
ATOM      1  C   UNL     1      35.885 -21.421 -19.434  0.00  0.00    +0.138 C 
ATOM      2  C   UNL     1      35.280 -19.189 -20.978  0.00  0.00    -0.001 C 
ATOM      3  C   UNL     1      34.567 -21.172 -19.797  0.00  0.00    +0.037 C 
ATOM      4  C   UNL     1      36.905 -20.565 -19.836  0.00  0.00    +0.037 C 
ATOM      5  C   UNL     1      34.263 -20.053 -20.571  0.00  0.00    +0.003 C 
ATOM      6  C   UNL     1      36.600 -19.445 -20.610  0.00  0.00    +0.003 C 
ENDROOT
BRANCH   2  10
ATOM      7  N   UNL     1      34.592 -16.862 -23.846  0.00  0.00    -0.193 N 
ATOM      8  N   UNL     1      34.429 -15.559 -21.835  0.00  0.00    -0.231 NA
ATOM      9  N   UNL     1      34.486 -16.723 -25.194  0.00  0.00    -0.179 NA
ATOM     10  C   UNL     1      34.959 -18.008 -21.793  0.00  0.00    +0.019 C 
ATOM     11  C   UNL     1      34.371 -15.653 -23.191  0.00  0.00    +0.137 C 
ATOM     12  C   UNL     1      34.114 -14.721 -24.172  0.00  0.00    +0.121 C 
ATOM     13  C   UNL     1      34.885 -18.023 -23.134  0.00  0.00    +0.145 C 
ATOM     14  C   UNL     1      34.703 -16.658 -21.198  0.00  0.00    +0.097 C 
ATOM     15  C   UNL     1      34.199 -15.434 -25.375  0.00  0.00    +0.103 C 
BRANCH  12  17
ATOM     16  N   UNL     1      33.280 -10.638 -23.436  0.00  0.00    -0.242 NA
ATOM     17  C   UNL     1      33.833 -13.340 -23.923  0.00  0.00    -0.007 C 
ATOM     18  C   UNL     1      33.060 -12.968 -22.825  0.00  0.00    +0.017 C 
ATOM     19  C   UNL     1      34.328 -12.357 -24.775  0.00  0.00    +0.017 C 
ATOM     20  C   UNL     1      32.815 -11.618 -22.629  0.00  0.00    +0.099 C 
ATOM     21  C   UNL     1      34.027 -11.034 -24.490  0.00  0.00    +0.099 C 
ENDBRANCH  12  17
ENDBRANCH   2  10
BRANCH   1  22
ATOM     22  O   UNL     1      36.184 -22.521 -18.674  0.00  0.00    -0.478 OA
BRANCH  22  23
ATOM     23  C   UNL     1      36.346 -22.311 -17.277  0.00  0.00    +0.183 C 
BRANCH  23  24
ATOM     24  C   UNL     1      35.695 -23.466 -16.532  0.00  0.00    -0.029 C 
BRANCH  24  25
ATOM     25  N   UNL     1      34.334 -23.116 -16.126  0.00  0.00    +0.389 N 
ATOM     26  C   UNL     1      33.365 -23.567 -17.135  0.00  0.00    -0.077 C 
ATOM     27  C   UNL     1      34.030 -23.684 -14.806  0.00  0.00    -0.077 C 
ATOM     28  C   UNL     1      31.940 -23.166 -16.750  0.00  0.00    -0.023 C 
ATOM     29  C   UNL     1      32.627 -23.287 -14.344  0.00  0.00    -0.023 C 
ATOM     30  C   UNL     1      31.571 -23.692 -15.366  0.00  0.00    -0.004 C 
ATOM     31  H   UNL     1      34.264 -22.101 -16.055  0.00  0.00    -0.080 HD
ENDBRANCH  24  25
ENDBRANCH  23  24
ENDBRANCH  22  23
ENDBRANCH   1  22
TORSDOF 6
ENDMDL
