MODEL 1
REMARK VINA RESULT:     -11.5      0.000      0.000
REMARK  Name = 54576693
REMARK  3 active torsions:
REMARK  status: ('A' for Active; 'I' for Inactive)
REMARK    1  A    between atoms: N_2  and  C_19
REMARK    2  A    between atoms: N_4  and  C_14
REMARK    3  A    between atoms: C_19  and  C_24
REMARK                            x       y       z     vdW  Elec       q    Type
REMARK                         _______ _______ _______ _____ _____    ______ ____
ROOT
ATOM      1  O   UNL     1      32.241 -22.665 -17.663  0.00  0.00    -0.252 OA
ATOM      2  N   UNL     1      35.306 -20.359 -20.850  0.00  0.00    +0.392 N 
ATOM      3  N   UNL     1      34.071 -22.168 -18.988  0.00  0.00    -0.268 N 
ATOM      4  N   UNL     1      34.297 -23.592 -17.118  0.00  0.00    -0.266 N 
ATOM      5  C   UNL     1      33.990 -20.050 -20.276  0.00  0.00    -0.055 C 
ATOM      6  C   UNL     1      36.126 -21.080 -19.869  0.00  0.00    -0.055 C 
ATOM      7  C   UNL     1      35.456 -22.385 -19.429  0.00  0.00    +0.072 C 
ATOM      8  C   UNL     1      33.266 -21.336 -19.883  0.00  0.00    +0.072 C 
ATOM      9  C   UNL     1      33.446 -22.798 -17.889  0.00  0.00    +0.308 C 
ATOM     10  H   UNL     1      35.175 -20.955 -21.668  0.00  0.00    -0.079 HD
ATOM     11  H   UNL     1      35.051 -24.011 -17.593  0.00  0.00    +0.156 HD
ENDROOT
BRANCH   4  14
ATOM     12 CL   UNL     1      36.885 -23.473 -15.476  0.00  0.00    -0.081 Cl
ATOM     13  N   UNL     1      32.771 -24.433 -13.866  0.00  0.00    -0.241 NA
ATOM     14  C   UNL     1      34.199 -23.860 -15.731  0.00  0.00    +0.082 C 
ATOM     15  C   UNL     1      35.304 -23.836 -14.886  0.00  0.00    +0.074 C 
ATOM     16  C   UNL     1      32.966 -24.161 -15.175  0.00  0.00    +0.114 C 
ATOM     17  C   UNL     1      35.144 -24.111 -13.532  0.00  0.00    +0.033 C 
ATOM     18  C   UNL     1      33.868 -24.400 -13.076  0.00  0.00    +0.100 C 
ENDBRANCH   4  14
BRANCH   2  19
ATOM     19  C   UNL     1      35.978 -19.134 -21.280  0.00  0.00    -0.050 C 
BRANCH  19  24
ATOM     20  F   UNL     1      32.556 -14.879 -25.278  0.00  0.00    -0.125 F 
ATOM     21  F   UNL     1      34.513 -14.782 -26.254  0.00  0.00    -0.125 F 
ATOM     22  O   UNL     1      34.411 -15.351 -24.062  0.00  0.00    -0.395 OA
ATOM     23  O   UNL     1      33.612 -16.814 -25.809  0.00  0.00    -0.395 OA
ATOM     24  C   UNL     1      35.337 -18.545 -22.509  0.00  0.00    -0.040 C 
ATOM     25  C   UNL     1      35.212 -17.159 -22.628  0.00  0.00    +0.034 C 
ATOM     26  C   UNL     1      34.872 -19.397 -23.526  0.00  0.00    -0.003 C 
ATOM     27  C   UNL     1      34.618 -16.666 -23.772  0.00  0.00    +0.181 C 
ATOM     28  C   UNL     1      34.162 -17.501 -24.770  0.00  0.00    +0.182 C 
ATOM     29  C   UNL     1      34.275 -18.873 -24.675  0.00  0.00    +0.040 C 
ATOM     30  C   UNL     1      33.777 -15.467 -25.344  0.00  0.00    +0.589 C 
ENDBRANCH  19  24
ENDBRANCH   2  19
TORSDOF 3
ENDMDL
MODEL 2
REMARK VINA RESULT:     -11.2      4.982      9.428
REMARK  Name = 54576693
REMARK  3 active torsions:
REMARK  status: ('A' for Active; 'I' for Inactive)
REMARK    1  A    between atoms: N_2  and  C_19
REMARK    2  A    between atoms: N_4  and  C_14
REMARK    3  A    between atoms: C_19  and  C_24
REMARK                            x       y       z     vdW  Elec       q    Type
REMARK                         _______ _______ _______ _____ _____    ______ ____
ROOT
ATOM      1  O   UNL     1      37.198 -21.584 -17.686  0.00  0.00    -0.252 OA
ATOM      2  N   UNL     1      33.722 -23.954 -15.008  0.00  0.00    +0.392 N 
ATOM      3  N   UNL     1      35.363 -22.867 -17.104  0.00  0.00    -0.268 N 
ATOM      4  N   UNL     1      35.495 -21.866 -19.238  0.00  0.00    -0.266 N 
ATOM      5  C   UNL     1      34.857 -23.080 -14.685  0.00  0.00    -0.055 C 
ATOM      6  C   UNL     1      33.116 -23.542 -16.281  0.00  0.00    -0.055 C 
ATOM      7  C   UNL     1      34.129 -23.596 -17.428  0.00  0.00    +0.072 C 
ATOM      8  C   UNL     1      35.918 -23.158 -15.781  0.00  0.00    +0.072 C 
ATOM      9  C   UNL     1      36.100 -22.055 -17.994  0.00  0.00    +0.308 C 
ATOM     10  H   UNL     1      34.062 -24.911 -15.104  0.00  0.00    -0.079 HD
ATOM     11  H   UNL     1      34.925 -22.600 -19.562  0.00  0.00    +0.156 HD
ENDROOT
BRANCH   4  14
ATOM     12 CL   UNL     1      32.900 -20.702 -20.387  0.00  0.00    -0.081 Cl
ATOM     13  N   UNL     1      37.071 -19.136 -21.156  0.00  0.00    -0.241 NA
ATOM     14  C   UNL     1      35.610 -20.736 -20.085  0.00  0.00    +0.082 C 
ATOM     15  C   UNL     1      34.503 -20.124 -20.664  0.00  0.00    +0.074 C 
ATOM     16  C   UNL     1      36.860 -20.208 -20.361  0.00  0.00    +0.114 C 
ATOM     17  C   UNL     1      34.680 -19.018 -21.489  0.00  0.00    +0.033 C 
ATOM     18  C   UNL     1      35.972 -18.567 -21.701  0.00  0.00    +0.100 C 
ENDBRANCH   4  14
BRANCH   2  19
ATOM     19  C   UNL     1      32.731 -23.927 -13.934  0.00  0.00    -0.050 C 
BRANCH  19  24
ATOM     20  F   UNL     1      26.406 -22.368 -15.767  0.00  0.00    -0.125 F 
ATOM     21  F   UNL     1      27.201 -22.963 -17.717  0.00  0.00    -0.125 F 
ATOM     22  O   UNL     1      28.639 -22.216 -16.131  0.00  0.00    -0.395 OA
ATOM     23  O   UNL     1      27.508 -24.341 -15.944  0.00  0.00    -0.395 OA
ATOM     24  C   UNL     1      31.328 -24.073 -14.462  0.00  0.00    -0.040 C 
ATOM     25  C   UNL     1      30.694 -22.979 -15.057  0.00  0.00    +0.034 C 
ATOM     26  C   UNL     1      30.670 -25.311 -14.353  0.00  0.00    -0.003 C 
ATOM     27  C   UNL     1      29.410 -23.162 -15.527  0.00  0.00    +0.181 C 
ATOM     28  C   UNL     1      28.765 -24.375 -15.420  0.00  0.00    +0.182 C 
ATOM     29  C   UNL     1      29.370 -25.470 -14.838  0.00  0.00    +0.040 C 
ATOM     30  C   UNL     1      27.449 -22.978 -16.384  0.00  0.00    +0.589 C 
ENDBRANCH  19  24
ENDBRANCH   2  19
TORSDOF 3
ENDMDL
MODEL 3
REMARK VINA RESULT:     -11.1      0.987      1.086
REMARK  Name = 54576693
REMARK  3 active torsions:
REMARK  status: ('A' for Active; 'I' for Inactive)
REMARK    1  A    between atoms: N_2  and  C_19
REMARK    2  A    between atoms: N_4  and  C_14
REMARK    3  A    between atoms: C_19  and  C_24
REMARK                            x       y       z     vdW  Elec       q    Type
REMARK                         _______ _______ _______ _____ _____    ______ ____
ROOT
ATOM      1  O   UNL     1      32.268 -22.345 -18.133  0.00  0.00    -0.252 OA
ATOM      2  N   UNL     1      35.679 -20.060 -20.964  0.00  0.00    +0.392 N 
ATOM      3  N   UNL     1      34.220 -21.883 -19.286  0.00  0.00    -0.268 N 
ATOM      4  N   UNL     1      34.232 -23.389 -17.468  0.00  0.00    -0.266 N 
ATOM      5  C   UNL     1      34.336 -19.713 -20.483  0.00  0.00    -0.055 C 
ATOM      6  C   UNL     1      36.385 -20.858 -19.954  0.00  0.00    -0.055 C 
ATOM      7  C   UNL     1      35.625 -22.147 -19.626  0.00  0.00    +0.072 C 
ATOM      8  C   UNL     1      33.527 -20.978 -20.205  0.00  0.00    +0.072 C 
ATOM      9  C   UNL     1      33.481 -22.526 -18.268  0.00  0.00    +0.308 C 
ATOM     10  H   UNL     1      35.589 -20.617 -21.815  0.00  0.00    -0.079 HD
ATOM     11  H   UNL     1      35.002 -23.824 -17.900  0.00  0.00    +0.156 HD
ENDROOT
BRANCH   4  14
ATOM     12 CL   UNL     1      36.690 -23.528 -15.638  0.00  0.00    -0.081 Cl
ATOM     13  N   UNL     1      32.408 -24.252 -14.379  0.00  0.00    -0.241 NA
ATOM     14  C   UNL     1      34.010 -23.707 -16.106  0.00  0.00    +0.082 C 
ATOM     15  C   UNL     1      35.047 -23.800 -15.183  0.00  0.00    +0.074 C 
ATOM     16  C   UNL     1      32.720 -23.941 -15.656  0.00  0.00    +0.114 C 
ATOM     17  C   UNL     1      34.765 -24.118 -13.859  0.00  0.00    +0.033 C 
ATOM     18  C   UNL     1      33.441 -24.332 -13.511  0.00  0.00    +0.100 C 
ENDBRANCH   4  14
BRANCH   2  19
ATOM     19  C   UNL     1      36.437 -18.852 -21.287  0.00  0.00    -0.050 C 
BRANCH  19  24
ATOM     20  F   UNL     1      32.308 -13.969 -23.499  0.00  0.00    -0.125 F 
ATOM     21  F   UNL     1      34.199 -13.227 -24.314  0.00  0.00    -0.125 F 
ATOM     22  O   UNL     1      34.248 -14.582 -22.496  0.00  0.00    -0.395 OA
ATOM     23  O   UNL     1      33.620 -15.388 -24.684  0.00  0.00    -0.395 OA
ATOM     24  C   UNL     1      35.680 -17.949 -22.224  0.00  0.00    -0.040 C 
ATOM     25  C   UNL     1      35.349 -16.654 -21.820  0.00  0.00    +0.034 C 
ATOM     26  C   UNL     1      35.315 -18.419 -23.498  0.00  0.00    -0.003 C 
ATOM     27  C   UNL     1      34.655 -15.863 -22.713  0.00  0.00    +0.181 C 
ATOM     28  C   UNL     1      34.297 -16.323 -23.962  0.00  0.00    +0.182 C 
ATOM     29  C   UNL     1      34.613 -17.598 -24.384  0.00  0.00    +0.040 C 
ATOM     30  C   UNL     1      33.599 -14.303 -23.747  0.00  0.00    +0.589 C 
ENDBRANCH  19  24
ENDBRANCH   2  19
TORSDOF 3
ENDMDL
MODEL 4
REMARK VINA RESULT:     -11.0      5.924     10.978
REMARK  Name = 54576693
REMARK  3 active torsions:
REMARK  status: ('A' for Active; 'I' for Inactive)
REMARK    1  A    between atoms: N_2  and  C_19
REMARK    2  A    between atoms: N_4  and  C_14
REMARK    3  A    between atoms: C_19  and  C_24
REMARK                            x       y       z     vdW  Elec       q    Type
REMARK                         _______ _______ _______ _____ _____    ______ ____
ROOT
ATOM      1  O   UNL     1      37.221 -19.938 -19.536  0.00  0.00    -0.252 OA
ATOM      2  N   UNL     1      34.638 -23.531 -17.237  0.00  0.00    +0.392 N 
ATOM      3  N   UNL     1      35.794 -21.717 -19.144  0.00  0.00    -0.268 N 
ATOM      4  N   UNL     1      35.508 -20.350 -21.047  0.00  0.00    -0.266 N 
ATOM      5  C   UNL     1      35.559 -22.476 -16.794  0.00  0.00    -0.055 C 
ATOM      6  C   UNL     1      33.847 -23.061 -18.381  0.00  0.00    -0.055 C 
ATOM      7  C   UNL     1      34.744 -22.659 -19.555  0.00  0.00    +0.072 C 
ATOM      8  C   UNL     1      36.512 -22.093 -17.924  0.00  0.00    +0.072 C 
ATOM      9  C   UNL     1      36.243 -20.603 -19.888  0.00  0.00    +0.308 C 
ATOM     10  H   UNL     1      35.184 -24.342 -17.529  0.00  0.00    -0.079 HD
ATOM     11  H   UNL     1      35.101 -21.132 -21.485  0.00  0.00    +0.156 HD
ENDROOT
BRANCH   4  14
ATOM     12 CL   UNL     1      35.093 -20.331 -24.086  0.00  0.00    -0.081 Cl
ATOM     13  N   UNL     1      35.050 -16.704 -21.386  0.00  0.00    -0.241 NA
ATOM     14  C   UNL     1      35.281 -19.095 -21.664  0.00  0.00    +0.082 C 
ATOM     15  C   UNL     1      35.081 -18.963 -23.034  0.00  0.00    +0.074 C 
ATOM     16  C   UNL     1      35.257 -17.945 -20.892  0.00  0.00    +0.114 C 
ATOM     17  C   UNL     1      34.865 -17.702 -23.581  0.00  0.00    +0.033 C 
ATOM     18  C   UNL     1      34.859 -16.615 -22.722  0.00  0.00    +0.100 C 
ENDBRANCH   4  14
BRANCH   2  19
ATOM     19  C   UNL     1      33.762 -23.941 -16.140  0.00  0.00    -0.050 C 
BRANCH  19  24
ATOM     20  F   UNL     1      36.604 -23.888  -9.999  0.00  0.00    -0.125 F 
ATOM     21  F   UNL     1      35.249 -25.588  -9.745  0.00  0.00    -0.125 F 
ATOM     22  O   UNL     1      34.742 -24.007 -11.290  0.00  0.00    -0.395 OA
ATOM     23  O   UNL     1      36.598 -25.527 -11.566  0.00  0.00    -0.395 OA
ATOM     24  C   UNL     1      34.545 -24.387 -14.934  0.00  0.00    -0.040 C 
ATOM     25  C   UNL     1      34.191 -23.919 -13.667  0.00  0.00    +0.034 C 
ATOM     26  C   UNL     1      35.626 -25.272 -15.096  0.00  0.00    -0.003 C 
ATOM     27  C   UNL     1      34.938 -24.355 -12.592  0.00  0.00    +0.181 C 
ATOM     28  C   UNL     1      35.997 -25.223 -12.749  0.00  0.00    +0.182 C 
ATOM     29  C   UNL     1      36.366 -25.699 -13.990  0.00  0.00    +0.040 C 
ATOM     30  C   UNL     1      35.797 -24.753 -10.663  0.00  0.00    +0.589 C 
ENDBRANCH  19  24
ENDBRANCH   2  19
TORSDOF 3
ENDMDL
MODEL 5
REMARK VINA RESULT:     -10.8      4.625      7.010
REMARK  Name = 54576693
REMARK  3 active torsions:
REMARK  status: ('A' for Active; 'I' for Inactive)
REMARK    1  A    between atoms: N_2  and  C_19
REMARK    2  A    between atoms: N_4  and  C_14
REMARK    3  A    between atoms: C_19  and  C_24
REMARK                            x       y       z     vdW  Elec       q    Type
REMARK                         _______ _______ _______ _____ _____    ______ ____
ROOT
ATOM      1  O   UNL     1      35.776 -19.167 -22.943  0.00  0.00    -0.252 OA
ATOM      2  N   UNL     1      33.940 -14.548 -23.341  0.00  0.00    +0.392 N 
ATOM      3  N   UNL     1      35.018 -17.046 -22.413  0.00  0.00    -0.268 N 
ATOM      4  N   UNL     1      35.005 -18.762 -20.792  0.00  0.00    -0.266 N 
ATOM      5  C   UNL     1      34.204 -15.639 -24.287  0.00  0.00    -0.055 C 
ATOM      6  C   UNL     1      33.522 -15.094 -22.044  0.00  0.00    -0.055 C 
ATOM      7  C   UNL     1      34.592 -16.018 -21.454  0.00  0.00    +0.072 C 
ATOM      8  C   UNL     1      35.312 -16.546 -23.758  0.00  0.00    +0.072 C 
ATOM      9  C   UNL     1      35.295 -18.398 -22.108  0.00  0.00    +0.308 C 
ATOM     10  H   UNL     1      34.800 -14.014 -23.208  0.00  0.00    -0.079 HD
ATOM     11  H   UNL     1      35.088 -18.052 -20.115  0.00  0.00    +0.156 HD
ENDROOT
BRANCH   4  14
ATOM     12 CL   UNL     1      37.213 -20.663 -19.834  0.00  0.00    -0.081 Cl
ATOM     13  N   UNL     1      32.783 -21.565 -19.886  0.00  0.00    -0.241 NA
ATOM     14  C   UNL     1      34.605 -20.037 -20.322  0.00  0.00    +0.082 C 
ATOM     15  C   UNL     1      35.517 -20.982 -19.864  0.00  0.00    +0.074 C 
ATOM     16  C   UNL     1      33.262 -20.375 -20.313  0.00  0.00    +0.114 C 
ATOM     17  C   UNL     1      35.063 -22.219 -19.417  0.00  0.00    +0.033 C 
ATOM     18  C   UNL     1      33.698 -22.458 -19.448  0.00  0.00    +0.100 C 
ENDBRANCH   4  14
BRANCH   2  19
ATOM     19  C   UNL     1      32.920 -13.644 -23.871  0.00  0.00    -0.050 C 
BRANCH  19  24
ATOM     20  F   UNL     1      32.169  -7.142 -22.154  0.00  0.00    -0.125 F 
ATOM     21  F   UNL     1      33.560  -7.762 -20.582  0.00  0.00    -0.125 F 
ATOM     22  O   UNL     1      32.234  -9.326 -21.550  0.00  0.00    -0.395 OA
ATOM     23  O   UNL     1      34.050  -8.266 -22.738  0.00  0.00    -0.395 OA
ATOM     24  C   UNL     1      33.250 -12.202 -23.592  0.00  0.00    -0.040 C 
ATOM     25  C   UNL     1      32.505 -11.490 -22.648  0.00  0.00    +0.034 C 
ATOM     26  C   UNL     1      34.307 -11.584 -24.283  0.00  0.00    -0.003 C 
ATOM     27  C   UNL     1      32.844 -10.172 -22.426  0.00  0.00    +0.181 C 
ATOM     28  C   UNL     1      33.881  -9.566 -23.104  0.00  0.00    +0.182 C 
ATOM     29  C   UNL     1      34.632 -10.247 -24.040  0.00  0.00    +0.040 C 
ATOM     30  C   UNL     1      33.006  -8.135 -21.763  0.00  0.00    +0.589 C 
ENDBRANCH  19  24
ENDBRANCH   2  19
TORSDOF 3
ENDMDL
MODEL 6
REMARK VINA RESULT:     -10.7      5.674     10.553
REMARK  Name = 54576693
REMARK  3 active torsions:
REMARK  status: ('A' for Active; 'I' for Inactive)
REMARK    1  A    between atoms: N_2  and  C_19
REMARK    2  A    between atoms: N_4  and  C_14
REMARK    3  A    between atoms: C_19  and  C_24
REMARK                            x       y       z     vdW  Elec       q    Type
REMARK                         _______ _______ _______ _____ _____    ______ ____
ROOT
ATOM      1  O   UNL     1      33.275 -13.456 -25.085  0.00  0.00    -0.252 OA
ATOM      2  N   UNL     1      35.161 -17.407 -22.698  0.00  0.00    +0.392 N 
ATOM      3  N   UNL     1      33.759 -15.010 -23.440  0.00  0.00    -0.268 N 
ATOM      4  N   UNL     1      33.054 -12.833 -22.860  0.00  0.00    -0.266 N 
ATOM      5  C   UNL     1      35.315 -16.844 -24.045  0.00  0.00    -0.055 C 
ATOM      6  C   UNL     1      34.976 -16.329 -21.719  0.00  0.00    -0.055 C 
ATOM      7  C   UNL     1      33.745 -15.479 -22.048  0.00  0.00    +0.072 C 
ATOM      8  C   UNL     1      34.076 -16.040 -24.431  0.00  0.00    +0.072 C 
ATOM      9  C   UNL     1      33.362 -13.729 -23.885  0.00  0.00    +0.308 C 
ATOM     10  H   UNL     1      34.333 -18.005 -22.685  0.00  0.00    -0.079 HD
ATOM     11  H   UNL     1      32.697 -13.224 -22.030  0.00  0.00    +0.156 HD
ENDROOT
BRANCH   4  14
ATOM     12 CL   UNL     1      30.998 -11.186 -21.288  0.00  0.00    -0.081 Cl
ATOM     13  N   UNL     1      34.459  -9.519 -23.673  0.00  0.00    -0.241 NA
ATOM     14  C   UNL     1      33.199 -11.423 -22.880  0.00  0.00    +0.082 C 
ATOM     15  C   UNL     1      32.327 -10.575 -22.205  0.00  0.00    +0.074 C 
ATOM     16  C   UNL     1      34.239 -10.849 -23.593  0.00  0.00    +0.114 C 
ATOM     17  C   UNL     1      32.520  -9.199 -22.264  0.00  0.00    +0.033 C 
ATOM     18  C   UNL     1      33.591  -8.726 -23.004  0.00  0.00    +0.100 C 
ENDBRANCH   4  14
BRANCH   2  19
ATOM     19  C   UNL     1      36.320 -18.226 -22.348  0.00  0.00    -0.050 C 
BRANCH  19  24
ATOM     20  F   UNL     1      32.744 -21.950 -17.973  0.00  0.00    -0.125 F 
ATOM     21  F   UNL     1      33.148 -23.477 -19.488  0.00  0.00    -0.125 F 
ATOM     22  O   UNL     1      33.150 -21.296 -20.106  0.00  0.00    -0.395 OA
ATOM     23  O   UNL     1      34.873 -22.236 -18.699  0.00  0.00    -0.395 OA
ATOM     24  C   UNL     1      35.967 -19.303 -21.357  0.00  0.00    -0.040 C 
ATOM     25  C   UNL     1      34.647 -19.750 -21.261  0.00  0.00    +0.034 C 
ATOM     26  C   UNL     1      36.970 -19.851 -20.538  0.00  0.00    -0.003 C 
ATOM     27  C   UNL     1      34.371 -20.740 -20.340  0.00  0.00    +0.181 C 
ATOM     28  C   UNL     1      35.354 -21.276 -19.536  0.00  0.00    +0.182 C 
ATOM     29  C   UNL     1      36.665 -20.852 -19.612  0.00  0.00    +0.040 C 
ATOM     30  C   UNL     1      33.488 -22.232 -19.072  0.00  0.00    +0.589 C 
ENDBRANCH  19  24
ENDBRANCH   2  19
TORSDOF 3
ENDMDL
MODEL 7
REMARK VINA RESULT:     -10.5      9.430     14.147
REMARK  Name = 54576693
REMARK  3 active torsions:
REMARK  status: ('A' for Active; 'I' for Inactive)
REMARK    1  A    between atoms: N_2  and  C_19
REMARK    2  A    between atoms: N_4  and  C_14
REMARK    3  A    between atoms: C_19  and  C_24
REMARK                            x       y       z     vdW  Elec       q    Type
REMARK                         _______ _______ _______ _____ _____    ______ ____
ROOT
ATOM      1  O   UNL     1      32.252  -5.900 -20.698  0.00  0.00    -0.252 OA
ATOM      2  N   UNL     1      32.185 -10.867 -21.133  0.00  0.00    +0.392 N 
ATOM      3  N   UNL     1      32.586  -8.044 -21.501  0.00  0.00    -0.268 N 
ATOM      4  N   UNL     1      32.636  -6.195 -22.968  0.00  0.00    -0.266 N 
ATOM      5  C   UNL     1      31.629  -9.907 -20.171  0.00  0.00    -0.055 C 
ATOM      6  C   UNL     1      32.175 -10.291 -22.484  0.00  0.00    -0.055 C 
ATOM      7  C   UNL     1      32.989  -8.995 -22.546  0.00  0.00    +0.072 C 
ATOM      8  C   UNL     1      32.455  -8.623 -20.162  0.00  0.00    +0.072 C 
ATOM      9  C   UNL     1      32.465  -6.645 -21.657  0.00  0.00    +0.308 C 
ATOM     10  H   UNL     1      33.150 -11.070 -20.872  0.00  0.00    -0.079 HD
ATOM     11  H   UNL     1      33.237  -6.729 -23.537  0.00  0.00    +0.156 HD
ENDROOT
BRANCH   4  14
ATOM     12 CL   UNL     1      33.986  -5.069 -25.481  0.00  0.00    -0.081 Cl
ATOM     13  N   UNL     1      30.261  -3.425 -23.515  0.00  0.00    -0.241 NA
ATOM     14  C   UNL     1      32.042  -5.059 -23.570  0.00  0.00    +0.082 C 
ATOM     15  C   UNL     1      32.566  -4.461 -24.712  0.00  0.00    +0.074 C 
ATOM     16  C   UNL     1      30.899  -4.507 -23.016  0.00  0.00    +0.114 C 
ATOM     17  C   UNL     1      31.938  -3.345 -25.255  0.00  0.00    +0.033 C 
ATOM     18  C   UNL     1      30.798  -2.871 -24.625  0.00  0.00    +0.100 C 
ENDBRANCH   4  14
BRANCH   2  19
ATOM     19  C   UNL     1      31.431 -12.119 -21.103  0.00  0.00    -0.050 C 
BRANCH  19  24
ATOM     20  F   UNL     1      34.210 -17.491 -24.137  0.00  0.00    -0.125 F 
ATOM     21  F   UNL     1      35.979 -16.208 -24.005  0.00  0.00    -0.125 F 
ATOM     22  O   UNL     1      33.926 -15.244 -24.020  0.00  0.00    -0.395 OA
ATOM     23  O   UNL     1      34.726 -16.540 -22.145  0.00  0.00    -0.395 OA
ATOM     24  C   UNL     1      32.316 -13.312 -21.347  0.00  0.00    -0.040 C 
ATOM     25  C   UNL     1      32.668 -13.658 -22.653  0.00  0.00    +0.034 C 
ATOM     26  C   UNL     1      32.782 -14.066 -20.255  0.00  0.00    -0.003 C 
ATOM     27  C   UNL     1      33.482 -14.759 -22.827  0.00  0.00    +0.181 C 
ATOM     28  C   UNL     1      33.939 -15.499 -21.757  0.00  0.00    +0.182 C 
ATOM     29  C   UNL     1      33.605 -15.177 -20.457  0.00  0.00    +0.040 C 
ATOM     30  C   UNL     1      34.704 -16.363 -23.568  0.00  0.00    +0.589 C 
ENDBRANCH  19  24
ENDBRANCH   2  19
TORSDOF 3
ENDMDL
MODEL 8
REMARK VINA RESULT:     -10.5      8.350     11.421
REMARK  Name = 54576693
REMARK  3 active torsions:
REMARK  status: ('A' for Active; 'I' for Inactive)
REMARK    1  A    between atoms: N_2  and  C_19
REMARK    2  A    between atoms: N_4  and  C_14
REMARK    3  A    between atoms: C_19  and  C_24
REMARK                            x       y       z     vdW  Elec       q    Type
REMARK                         _______ _______ _______ _____ _____    ______ ____
ROOT
ATOM      1  O   UNL     1      32.206 -14.112 -19.634  0.00  0.00    -0.252 OA
ATOM      2  N   UNL     1      31.743  -9.183 -20.225  0.00  0.00    +0.392 N 
ATOM      3  N   UNL     1      31.878 -12.031 -20.590  0.00  0.00    -0.268 N 
ATOM      4  N   UNL     1      32.582 -13.857 -21.910  0.00  0.00    -0.266 N 
ATOM      5  C   UNL     1      32.063 -10.062 -19.093  0.00  0.00    -0.055 C 
ATOM      6  C   UNL     1      32.290  -9.741 -21.467  0.00  0.00    -0.055 C 
ATOM      7  C   UNL     1      31.730 -11.139 -21.748  0.00  0.00    +0.072 C 
ATOM      8  C   UNL     1      31.465 -11.449 -19.311  0.00  0.00    +0.072 C 
ATOM      9  C   UNL     1      32.234 -13.397 -20.639  0.00  0.00    +0.308 C 
ATOM     10  H   UNL     1      30.728  -9.120 -20.314  0.00  0.00    -0.079 HD
ATOM     11  H   UNL     1      32.145 -13.410 -22.670  0.00  0.00    +0.156 HD
ENDROOT
BRANCH   4  14
ATOM     12 CL   UNL     1      33.163 -14.355 -24.880  0.00  0.00    -0.081 Cl
ATOM     13  N   UNL     1      34.958 -16.636 -21.413  0.00  0.00    -0.241 NA
ATOM     14  C   UNL     1      33.494 -14.893 -22.228  0.00  0.00    +0.082 C 
ATOM     15  C   UNL     1      33.834 -15.210 -23.539  0.00  0.00    +0.074 C 
ATOM     16  C   UNL     1      34.079 -15.630 -21.211  0.00  0.00    +0.114 C 
ATOM     17  C   UNL     1      34.735 -16.241 -23.788  0.00  0.00    +0.033 C 
ATOM     18  C   UNL     1      35.264 -16.916 -22.700  0.00  0.00    +0.100 C 
ENDBRANCH   4  14
BRANCH   2  19
ATOM     19  C   UNL     1      32.264  -7.836 -19.993  0.00  0.00    -0.050 C 
BRANCH  19  24
ATOM     20  F   UNL     1      34.088  -4.104 -25.335  0.00  0.00    -0.125 F 
ATOM     21  F   UNL     1      33.034  -5.716 -26.375  0.00  0.00    -0.125 F 
ATOM     22  O   UNL     1      33.926  -6.132 -24.332  0.00  0.00    -0.395 OA
ATOM     23  O   UNL     1      32.013  -4.688 -24.631  0.00  0.00    -0.395 OA
ATOM     24  C   UNL     1      32.165  -6.977 -21.226  0.00  0.00    -0.040 C 
ATOM     25  C   UNL     1      33.179  -7.024 -22.186  0.00  0.00    +0.034 C 
ATOM     26  C   UNL     1      31.051  -6.137 -21.400  0.00  0.00    -0.003 C 
ATOM     27  C   UNL     1      33.044  -6.220 -23.299  0.00  0.00    +0.181 C 
ATOM     28  C   UNL     1      31.952  -5.396 -23.469  0.00  0.00    +0.182 C 
ATOM     29  C   UNL     1      30.938  -5.333 -22.536  0.00  0.00    +0.040 C 
ATOM     30  C   UNL     1      33.260  -5.164 -25.157  0.00  0.00    +0.589 C 
ENDBRANCH  19  24
ENDBRANCH   2  19
TORSDOF 3
ENDMDL
MODEL 9
REMARK VINA RESULT:     -10.4      8.823     13.589
REMARK  Name = 54576693
REMARK  3 active torsions:
REMARK  status: ('A' for Active; 'I' for Inactive)
REMARK    1  A    between atoms: N_2  and  C_19
REMARK    2  A    between atoms: N_4  and  C_14
REMARK    3  A    between atoms: C_19  and  C_24
REMARK                            x       y       z     vdW  Elec       q    Type
REMARK                         _______ _______ _______ _____ _____    ______ ____
ROOT
ATOM      1  O   UNL     1      31.196  -7.586 -21.223  0.00  0.00    -0.252 OA
ATOM      2  N   UNL     1      33.202 -11.894 -22.732  0.00  0.00    +0.392 N 
ATOM      3  N   UNL     1      32.659  -9.139 -22.115  0.00  0.00    -0.268 N 
ATOM      4  N   UNL     1      32.774  -6.873 -22.768  0.00  0.00    -0.266 N 
ATOM      5  C   UNL     1      31.921 -11.507 -22.128  0.00  0.00    -0.055 C 
ATOM      6  C   UNL     1      33.679 -10.831 -23.626  0.00  0.00    -0.055 C 
ATOM      7  C   UNL     1      33.862  -9.508 -22.875  0.00  0.00    +0.072 C 
ATOM      8  C   UNL     1      32.081 -10.222 -21.318  0.00  0.00    +0.072 C 
ATOM      9  C   UNL     1      32.131  -7.835 -21.987  0.00  0.00    +0.308 C 
ATOM     10  H   UNL     1      33.888 -12.028 -21.989  0.00  0.00    -0.079 HD
ATOM     11  H   UNL     1      33.729  -7.027 -22.950  0.00  0.00    +0.156 HD
ENDROOT
BRANCH   4  14
ATOM     12 CL   UNL     1      34.193  -5.643 -25.193  0.00  0.00    -0.081 Cl
ATOM     13  N   UNL     1      30.444  -4.050 -23.231  0.00  0.00    -0.241 NA
ATOM     14  C   UNL     1      32.207  -5.701 -23.326  0.00  0.00    +0.082 C 
ATOM     15  C   UNL     1      32.763  -5.055 -24.426  0.00  0.00    +0.074 C 
ATOM     16  C   UNL     1      31.058  -5.162 -22.771  0.00  0.00    +0.114 C 
ATOM     17  C   UNL     1      32.160  -3.907 -24.928  0.00  0.00    +0.033 C 
ATOM     18  C   UNL     1      31.012  -3.449 -24.301  0.00  0.00    +0.100 C 
ENDBRANCH   4  14
BRANCH   2  19
ATOM     19  C   UNL     1      33.066 -13.155 -23.461  0.00  0.00    -0.050 C 
BRANCH  19  24
ATOM     20  F   UNL     1      35.054 -19.436 -21.916  0.00  0.00    -0.125 F 
ATOM     21  F   UNL     1      37.003 -18.441 -21.918  0.00  0.00    -0.125 F 
ATOM     22  O   UNL     1      35.319 -17.551 -23.148  0.00  0.00    -0.395 OA
ATOM     23  O   UNL     1      35.305 -17.518 -20.734  0.00  0.00    -0.395 OA
ATOM     24  C   UNL     1      33.658 -14.309 -22.697  0.00  0.00    -0.040 C 
ATOM     25  C   UNL     1      34.211 -15.388 -23.391  0.00  0.00    +0.034 C 
ATOM     26  C   UNL     1      33.650 -14.290 -21.291  0.00  0.00    -0.003 C 
ATOM     27  C   UNL     1      34.742 -16.423 -22.648  0.00  0.00    +0.181 C 
ATOM     28  C   UNL     1      34.734 -16.404 -21.270  0.00  0.00    +0.182 C 
ATOM     29  C   UNL     1      34.194 -15.350 -20.562  0.00  0.00    +0.040 C 
ATOM     30  C   UNL     1      35.664 -18.225 -21.928  0.00  0.00    +0.589 C 
ENDBRANCH  19  24
ENDBRANCH   2  19
TORSDOF 3
ENDMDL
