MODEL 1
REMARK VINA RESULT:     -11.9      0.000      0.000
REMARK  Name = 448841
REMARK  3 active torsions:
REMARK  status: ('A' for Active; 'I' for Inactive)
REMARK    1  A    between atoms: C_1  and  C_17
REMARK    2  A    between atoms: C_9  and  C_13
REMARK    3  A    between atoms: C_18  and  C_20
REMARK                            x       y       z     vdW  Elec       q    Type
REMARK                         _______ _______ _______ _____ _____    ______ ____
ROOT
ATOM      1  C   UNL     1      34.830 -16.993 -21.623  0.00  0.00    -0.022 C 
ATOM      2  C   UNL     1      33.994 -16.328 -20.728  0.00  0.00    -0.004 C 
ATOM      3  C   UNL     1      35.166 -16.398 -22.837  0.00  0.00    -0.004 C 
ATOM      4  C   UNL     1      33.480 -15.057 -21.034  0.00  0.00    -0.000 C 
ATOM      5  C   UNL     1      34.664 -15.136 -23.158  0.00  0.00    -0.000 C 
ATOM      6  C   UNL     1      33.821 -14.452 -22.268  0.00  0.00    +0.000 C 
ATOM      7  C   UNL     1      32.636 -14.373 -20.145  0.00  0.00    +0.000 C 
ATOM      8  C   UNL     1      33.308 -13.182 -22.575  0.00  0.00    +0.003 C 
ATOM      9  C   UNL     1      32.470 -12.516 -21.678  0.00  0.00    +0.031 C 
ATOM     10  C   UNL     1      32.136 -13.111 -20.466  0.00  0.00    +0.003 C 
ENDROOT
BRANCH   9  13
ATOM     11  N   UNL     1      32.687 -10.298 -22.773  0.00  0.00    -0.343 N 
ATOM     12  N   UNL     1      30.750 -10.841 -21.584  0.00  0.00    -0.285 NA
ATOM     13  C   UNL     1      31.948 -11.201 -22.011  0.00  0.00    +0.117 C 
ATOM     14  H   UNL     1      32.314  -9.412 -22.986  0.00  0.00    +0.144 HD
ATOM     15  H   UNL     1      33.583 -10.546 -23.097  0.00  0.00    +0.144 HD
ATOM     16  H   UNL     1      30.394  -9.951 -21.809  0.00  0.00    +0.188 HD
ENDBRANCH   9  13
BRANCH   1  17
ATOM     17  C   UNL     1      35.366 -18.340 -21.282  0.00  0.00    +0.027 C 
ATOM     18  C   UNL     1      34.457 -19.528 -21.351  0.00  0.00    +0.027 C 
ATOM     19  C   UNL     1      35.544 -19.353 -22.371  0.00  0.00    +0.009 C 
BRANCH  18  20
ATOM     20  C   UNL     1      34.583 -20.599 -20.331  0.00  0.00    -0.022 C 
ATOM     21  C   UNL     1      33.439 -21.194 -19.791  0.00  0.00    -0.004 C 
ATOM     22  C   UNL     1      35.846 -21.018 -19.902  0.00  0.00    -0.004 C 
ATOM     23  C   UNL     1      33.556 -22.199 -18.831  0.00  0.00    -0.000 C 
ATOM     24  C   UNL     1      35.964 -22.022 -18.941  0.00  0.00    -0.000 C 
ATOM     25  C   UNL     1      34.819 -22.612 -18.406  0.00  0.00    -0.000 C 
ENDBRANCH  18  20
ENDBRANCH   1  17
TORSDOF 3
ENDMDL
MODEL 2
REMARK VINA RESULT:     -11.6      5.660      9.479
REMARK  Name = 448841
REMARK  3 active torsions:
REMARK  status: ('A' for Active; 'I' for Inactive)
REMARK    1  A    between atoms: C_1  and  C_17
REMARK    2  A    between atoms: C_9  and  C_13
REMARK    3  A    between atoms: C_18  and  C_20
REMARK                            x       y       z     vdW  Elec       q    Type
REMARK                         _______ _______ _______ _____ _____    ______ ____
ROOT
ATOM      1  C   UNL     1      35.518 -21.295 -19.681  0.00  0.00    -0.022 C 
ATOM      2  C   UNL     1      36.441 -21.584 -18.677  0.00  0.00    -0.004 C 
ATOM      3  C   UNL     1      34.203 -21.738 -19.568  0.00  0.00    -0.004 C 
ATOM      4  C   UNL     1      36.061 -22.322 -17.543  0.00  0.00    -0.000 C 
ATOM      5  C   UNL     1      33.808 -22.473 -18.449  0.00  0.00    -0.000 C 
ATOM      6  C   UNL     1      34.723 -22.773 -17.428  0.00  0.00    +0.000 C 
ATOM      7  C   UNL     1      36.977 -22.622 -16.523  0.00  0.00    +0.000 C 
ATOM      8  C   UNL     1      34.343 -23.510 -16.296  0.00  0.00    +0.003 C 
ATOM      9  C   UNL     1      35.266 -23.799 -15.290  0.00  0.00    +0.031 C 
ATOM     10  C   UNL     1      36.581 -23.356 -15.404  0.00  0.00    +0.003 C 
ENDROOT
BRANCH   9  13
ATOM     11  N   UNL     1      33.871 -24.092 -13.257  0.00  0.00    -0.343 N 
ATOM     12  N   UNL     1      35.424 -25.729 -13.866  0.00  0.00    -0.285 NA
ATOM     13  C   UNL     1      34.856 -24.563 -14.124  0.00  0.00    +0.117 C 
ATOM     14  H   UNL     1      33.609 -24.626 -12.473  0.00  0.00    +0.144 HD
ATOM     15  H   UNL     1      33.438 -23.225 -13.430  0.00  0.00    +0.144 HD
ATOM     16  H   UNL     1      35.147 -26.247 -13.077  0.00  0.00    +0.188 HD
ENDBRANCH   9  13
BRANCH   1  17
ATOM     17  C   UNL     1      35.939 -20.512 -20.876  0.00  0.00    +0.027 C 
ATOM     18  C   UNL     1      35.593 -19.058 -20.958  0.00  0.00    +0.027 C 
ATOM     19  C   UNL     1      37.015 -19.481 -20.732  0.00  0.00    +0.009 C 
BRANCH  18  20
ATOM     20  C   UNL     1      35.206 -18.475 -22.267  0.00  0.00    -0.022 C 
ATOM     21  C   UNL     1      34.725 -19.299 -23.289  0.00  0.00    -0.004 C 
ATOM     22  C   UNL     1      35.321 -17.100 -22.488  0.00  0.00    -0.004 C 
ATOM     23  C   UNL     1      34.363 -18.753 -24.521  0.00  0.00    -0.000 C 
ATOM     24  C   UNL     1      34.960 -16.553 -23.719  0.00  0.00    -0.000 C 
ATOM     25  C   UNL     1      34.481 -17.380 -24.735  0.00  0.00    -0.000 C 
ENDBRANCH  18  20
ENDBRANCH   1  17
TORSDOF 3
ENDMDL
MODEL 3
REMARK VINA RESULT:     -11.5      4.932      8.899
REMARK  Name = 448841
REMARK  3 active torsions:
REMARK  status: ('A' for Active; 'I' for Inactive)
REMARK    1  A    between atoms: C_1  and  C_17
REMARK    2  A    between atoms: C_9  and  C_13
REMARK    3  A    between atoms: C_18  and  C_20
REMARK                            x       y       z     vdW  Elec       q    Type
REMARK                         _______ _______ _______ _____ _____    ______ ____
ROOT
ATOM      1  C   UNL     1      34.740 -20.193 -21.004  0.00  0.00    -0.022 C 
ATOM      2  C   UNL     1      35.746 -20.671 -20.165  0.00  0.00    -0.004 C 
ATOM      3  C   UNL     1      33.412 -20.543 -20.771  0.00  0.00    -0.004 C 
ATOM      4  C   UNL     1      35.437 -21.506 -19.078  0.00  0.00    -0.000 C 
ATOM      5  C   UNL     1      33.088 -21.372 -19.696  0.00  0.00    -0.000 C 
ATOM      6  C   UNL     1      34.087 -21.862 -18.840  0.00  0.00    +0.000 C 
ATOM      7  C   UNL     1      36.437 -21.996 -18.223  0.00  0.00    +0.000 C 
ATOM      8  C   UNL     1      33.778 -22.696 -17.755  0.00  0.00    +0.003 C 
ATOM      9  C   UNL     1      34.784 -23.174 -16.914  0.00  0.00    +0.031 C 
ATOM     10  C   UNL     1      36.111 -22.824 -17.148  0.00  0.00    +0.003 C 
ENDROOT
BRANCH   9  13
ATOM     11  N   UNL     1      35.330 -25.017 -15.342  0.00  0.00    -0.343 N 
ATOM     12  N   UNL     1      33.283 -23.901 -15.185  0.00  0.00    -0.285 NA
ATOM     13  C   UNL     1      34.448 -24.037 -15.794  0.00  0.00    +0.117 C 
ATOM     14  H   UNL     1      35.081 -25.591 -14.582  0.00  0.00    +0.144 HD
ATOM     15  H   UNL     1      36.201 -25.136 -15.785  0.00  0.00    +0.144 HD
ATOM     16  H   UNL     1      33.053 -24.485 -14.426  0.00  0.00    +0.188 HD
ENDBRANCH   9  13
BRANCH   1  17
ATOM     17  C   UNL     1      35.085 -19.309 -22.152  0.00  0.00    +0.027 C 
ATOM     18  C   UNL     1      35.352 -17.857 -21.904  0.00  0.00    +0.027 C 
ATOM     19  C   UNL     1      36.480 -18.777 -22.271  0.00  0.00    +0.009 C 
BRANCH  18  20
ATOM     20  C   UNL     1      34.882 -16.853 -22.890  0.00  0.00    -0.022 C 
ATOM     21  C   UNL     1      34.627 -15.539 -22.489  0.00  0.00    -0.004 C 
ATOM     22  C   UNL     1      34.690 -17.216 -24.227  0.00  0.00    -0.004 C 
ATOM     23  C   UNL     1      34.183 -14.595 -23.416  0.00  0.00    -0.000 C 
ATOM     24  C   UNL     1      34.245 -16.273 -25.153  0.00  0.00    -0.000 C 
ATOM     25  C   UNL     1      33.992 -14.963 -24.747  0.00  0.00    -0.000 C 
ENDBRANCH  18  20
ENDBRANCH   1  17
TORSDOF 3
ENDMDL
MODEL 4
REMARK VINA RESULT:     -11.4      5.103      9.016
REMARK  Name = 448841
REMARK  3 active torsions:
REMARK  status: ('A' for Active; 'I' for Inactive)
REMARK    1  A    between atoms: C_1  and  C_17
REMARK    2  A    between atoms: C_9  and  C_13
REMARK    3  A    between atoms: C_18  and  C_20
REMARK                            x       y       z     vdW  Elec       q    Type
REMARK                         _______ _______ _______ _____ _____    ______ ____
ROOT
ATOM      1  C   UNL     1      34.824 -20.524 -20.633  0.00  0.00    -0.022 C 
ATOM      2  C   UNL     1      33.812 -21.179 -19.933  0.00  0.00    -0.004 C 
ATOM      3  C   UNL     1      36.143 -20.610 -20.195  0.00  0.00    -0.004 C 
ATOM      4  C   UNL     1      34.105 -21.931 -18.783  0.00  0.00    -0.000 C 
ATOM      5  C   UNL     1      36.453 -21.352 -19.054  0.00  0.00    -0.000 C 
ATOM      6  C   UNL     1      35.446 -22.019 -18.337  0.00  0.00    +0.000 C 
ATOM      7  C   UNL     1      33.099 -22.596 -18.065  0.00  0.00    +0.000 C 
ATOM      8  C   UNL     1      35.740 -22.769 -17.188  0.00  0.00    +0.003 C 
ATOM      9  C   UNL     1      34.727 -23.426 -16.487  0.00  0.00    +0.031 C 
ATOM     10  C   UNL     1      33.409 -23.339 -16.926  0.00  0.00    +0.003 C 
ENDROOT
BRANCH   9  13
ATOM     11  N   UNL     1      35.586 -25.482 -15.393  0.00  0.00    -0.343 N 
ATOM     12  N   UNL     1      34.825 -23.690 -14.101  0.00  0.00    -0.285 NA
ATOM     13  C   UNL     1      35.048 -24.200 -15.300  0.00  0.00    +0.117 C 
ATOM     14  H   UNL     1      35.796 -25.989 -14.576  0.00  0.00    +0.144 HD
ATOM     15  H   UNL     1      35.757 -25.881 -16.277  0.00  0.00    +0.144 HD
ATOM     16  H   UNL     1      35.043 -24.213 -13.295  0.00  0.00    +0.188 HD
ENDBRANCH   9  13
BRANCH   1  17
ATOM     17  C   UNL     1      34.495 -19.730 -21.850  0.00  0.00    +0.027 C 
ATOM     18  C   UNL     1      35.503 -18.764 -22.389  0.00  0.00    +0.027 C 
ATOM     19  C   UNL     1      35.205 -20.033 -23.133  0.00  0.00    +0.009 C 
BRANCH  18  20
ATOM     20  C   UNL     1      35.042 -17.468 -22.946  0.00  0.00    -0.022 C 
ATOM     21  C   UNL     1      34.861 -16.366 -22.105  0.00  0.00    -0.004 C 
ATOM     22  C   UNL     1      34.784 -17.342 -24.314  0.00  0.00    -0.004 C 
ATOM     23  C   UNL     1      34.424 -15.148 -22.628  0.00  0.00    -0.000 C 
ATOM     24  C   UNL     1      34.347 -16.125 -24.837  0.00  0.00    -0.000 C 
ATOM     25  C   UNL     1      34.168 -15.028 -23.994  0.00  0.00    -0.000 C 
ENDBRANCH  18  20
ENDBRANCH   1  17
TORSDOF 3
ENDMDL
MODEL 5
REMARK VINA RESULT:     -11.1      5.714      9.294
REMARK  Name = 448841
REMARK  3 active torsions:
REMARK  status: ('A' for Active; 'I' for Inactive)
REMARK    1  A    between atoms: C_1  and  C_17
REMARK    2  A    between atoms: C_9  and  C_13
REMARK    3  A    between atoms: C_18  and  C_20
REMARK                            x       y       z     vdW  Elec       q    Type
REMARK                         _______ _______ _______ _____ _____    ______ ____
ROOT
ATOM      1  C   UNL     1      35.884 -21.379 -19.426  0.00  0.00    -0.022 C 
ATOM      2  C   UNL     1      34.590 -21.839 -19.183  0.00  0.00    -0.004 C 
ATOM      3  C   UNL     1      36.884 -21.578 -18.478  0.00  0.00    -0.004 C 
ATOM      4  C   UNL     1      34.278 -22.505 -17.986  0.00  0.00    -0.000 C 
ATOM      5  C   UNL     1      36.592 -22.238 -17.283  0.00  0.00    -0.000 C 
ATOM      6  C   UNL     1      35.295 -22.708 -17.021  0.00  0.00    +0.000 C 
ATOM      7  C   UNL     1      32.981 -22.974 -17.724  0.00  0.00    +0.000 C 
ATOM      8  C   UNL     1      34.984 -23.373 -15.825  0.00  0.00    +0.003 C 
ATOM      9  C   UNL     1      33.689 -23.834 -15.582  0.00  0.00    +0.031 C 
ATOM     10  C   UNL     1      32.690 -23.634 -16.530  0.00  0.00    +0.003 C 
ENDROOT
BRANCH   9  13
ATOM     11  N   UNL     1      32.178 -24.311 -13.670  0.00  0.00    -0.343 N 
ATOM     12  N   UNL     1      34.260 -25.363 -13.818  0.00  0.00    -0.285 NA
ATOM     13  C   UNL     1      33.384 -24.522 -14.338  0.00  0.00    +0.117 C 
ATOM     14  H   UNL     1      31.992 -24.788 -12.829  0.00  0.00    +0.144 HD
ATOM     15  H   UNL     1      31.514 -23.686 -14.039  0.00  0.00    +0.144 HD
ATOM     16  H   UNL     1      34.054 -25.830 -12.976  0.00  0.00    +0.188 HD
ENDBRANCH   9  13
BRANCH   1  17
ATOM     17  C   UNL     1      36.196 -20.674 -20.700  0.00  0.00    +0.027 C 
ATOM     18  C   UNL     1      35.787 -19.244 -20.865  0.00  0.00    +0.027 C 
ATOM     19  C   UNL     1      37.237 -19.597 -20.703  0.00  0.00    +0.009 C 
BRANCH  18  20
ATOM     20  C   UNL     1      35.295 -18.777 -22.185  0.00  0.00    -0.022 C 
ATOM     21  C   UNL     1      35.338 -17.418 -22.511  0.00  0.00    -0.004 C 
ATOM     22  C   UNL     1      34.785 -19.692 -23.111  0.00  0.00    -0.004 C 
ATOM     23  C   UNL     1      34.874 -16.978 -23.751  0.00  0.00    -0.000 C 
ATOM     24  C   UNL     1      34.321 -19.253 -24.350  0.00  0.00    -0.000 C 
ATOM     25  C   UNL     1      34.365 -17.896 -24.670  0.00  0.00    -0.000 C 
ENDBRANCH  18  20
ENDBRANCH   1  17
TORSDOF 3
ENDMDL
MODEL 6
REMARK VINA RESULT:     -11.0      2.944      5.486
REMARK  Name = 448841
REMARK  3 active torsions:
REMARK  status: ('A' for Active; 'I' for Inactive)
REMARK    1  A    between atoms: C_1  and  C_17
REMARK    2  A    between atoms: C_9  and  C_13
REMARK    3  A    between atoms: C_18  and  C_20
REMARK                            x       y       z     vdW  Elec       q    Type
REMARK                         _______ _______ _______ _____ _____    ______ ____
ROOT
ATOM      1  C   UNL     1      32.178 -12.763 -20.854  0.00  0.00    -0.022 C 
ATOM      2  C   UNL     1      32.259 -11.884 -21.933  0.00  0.00    -0.004 C 
ATOM      3  C   UNL     1      31.890 -12.280 -19.581  0.00  0.00    -0.004 C 
ATOM      4  C   UNL     1      32.052 -10.506 -21.753  0.00  0.00    -0.000 C 
ATOM      5  C   UNL     1      31.682 -10.913 -19.383  0.00  0.00    -0.000 C 
ATOM      6  C   UNL     1      31.759 -10.013 -20.458  0.00  0.00    +0.000 C 
ATOM      7  C   UNL     1      32.131  -9.606 -22.828  0.00  0.00    +0.000 C 
ATOM      8  C   UNL     1      31.553  -8.637 -20.277  0.00  0.00    +0.003 C 
ATOM      9  C   UNL     1      31.634  -7.756 -21.357  0.00  0.00    +0.031 C 
ATOM     10  C   UNL     1      31.922  -8.241 -22.630  0.00  0.00    +0.003 C 
ENDROOT
BRANCH   9  13
ATOM     11  N   UNL     1      30.199  -5.733 -21.468  0.00  0.00    -0.343 N 
ATOM     12  N   UNL     1      32.388  -5.583 -20.664  0.00  0.00    -0.285 NA
ATOM     13  C   UNL     1      31.417  -6.334 -21.153  0.00  0.00    +0.117 C 
ATOM     14  H   UNL     1      30.074  -4.768 -21.322  0.00  0.00    +0.144 HD
ATOM     15  H   UNL     1      29.464  -6.275 -21.837  0.00  0.00    +0.144 HD
ATOM     16  H   UNL     1      32.242  -4.619 -20.525  0.00  0.00    +0.188 HD
ENDBRANCH   9  13
BRANCH   1  17
ATOM     17  C   UNL     1      32.400 -14.221 -21.063  0.00  0.00    +0.027 C 
ATOM     18  C   UNL     1      33.697 -14.833 -20.633  0.00  0.00    +0.027 C 
ATOM     19  C   UNL     1      32.436 -15.132 -19.876  0.00  0.00    +0.009 C 
BRANCH  18  20
ATOM     20  C   UNL     1      34.312 -15.894 -21.469  0.00  0.00    -0.022 C 
ATOM     21  C   UNL     1      34.410 -15.729 -22.854  0.00  0.00    -0.004 C 
ATOM     22  C   UNL     1      34.796 -17.064 -20.878  0.00  0.00    -0.004 C 
ATOM     23  C   UNL     1      34.986 -16.727 -23.641  0.00  0.00    -0.000 C 
ATOM     24  C   UNL     1      35.372 -18.062 -21.664  0.00  0.00    -0.000 C 
ATOM     25  C   UNL     1      35.467 -17.893 -23.046  0.00  0.00    -0.000 C 
ENDBRANCH  18  20
ENDBRANCH   1  17
TORSDOF 3
ENDMDL
MODEL 7
REMARK VINA RESULT:     -10.8      4.661      7.797
REMARK  Name = 448841
REMARK  3 active torsions:
REMARK  status: ('A' for Active; 'I' for Inactive)
REMARK    1  A    between atoms: C_1  and  C_17
REMARK    2  A    between atoms: C_9  and  C_13
REMARK    3  A    between atoms: C_18  and  C_20
REMARK                            x       y       z     vdW  Elec       q    Type
REMARK                         _______ _______ _______ _____ _____    ______ ____
ROOT
ATOM      1  C   UNL     1      34.416 -22.987 -17.409  0.00  0.00    -0.022 C 
ATOM      2  C   UNL     1      35.581 -22.419 -17.925  0.00  0.00    -0.004 C 
ATOM      3  C   UNL     1      33.186 -22.716 -18.002  0.00  0.00    -0.004 C 
ATOM      4  C   UNL     1      35.531 -21.571 -19.043  0.00  0.00    -0.000 C 
ATOM      5  C   UNL     1      33.118 -21.875 -19.114  0.00  0.00    -0.000 C 
ATOM      6  C   UNL     1      34.280 -21.295 -19.647  0.00  0.00    +0.000 C 
ATOM      7  C   UNL     1      36.692 -20.989 -19.575  0.00  0.00    +0.000 C 
ATOM      8  C   UNL     1      34.229 -20.447 -20.764  0.00  0.00    +0.003 C 
ATOM      9  C   UNL     1      35.394 -19.878 -21.281  0.00  0.00    +0.031 C 
ATOM     10  C   UNL     1      36.623 -20.149 -20.687  0.00  0.00    +0.003 C 
ENDROOT
BRANCH   9  13
ATOM     11  N   UNL     1      36.007 -17.787 -22.472  0.00  0.00    -0.343 N 
ATOM     12  N   UNL     1      34.599 -19.352 -23.487  0.00  0.00    -0.285 NA
ATOM     13  C   UNL     1      35.325 -19.002 -22.439  0.00  0.00    +0.117 C 
ATOM     14  H   UNL     1      35.946 -17.209 -23.266  0.00  0.00    +0.144 HD
ATOM     15  H   UNL     1      36.551 -17.507 -21.700  0.00  0.00    +0.144 HD
ATOM     16  H   UNL     1      34.552 -18.760 -24.272  0.00  0.00    +0.188 HD
ENDBRANCH   9  13
BRANCH   1  17
ATOM     17  C   UNL     1      34.488 -23.884 -16.222  0.00  0.00    +0.027 C 
ATOM     18  C   UNL     1      35.281 -23.456 -15.027  0.00  0.00    +0.027 C 
ATOM     19  C   UNL     1      33.782 -23.488 -14.962  0.00  0.00    +0.009 C 
BRANCH  18  20
ATOM     20  C   UNL     1      36.063 -24.467 -14.273  0.00  0.00    -0.022 C 
ATOM     21  C   UNL     1      36.659 -24.131 -13.054  0.00  0.00    -0.004 C 
ATOM     22  C   UNL     1      36.211 -25.763 -14.778  0.00  0.00    -0.004 C 
ATOM     23  C   UNL     1      37.396 -25.081 -12.346  0.00  0.00    -0.000 C 
ATOM     24  C   UNL     1      36.948 -26.713 -14.071  0.00  0.00    -0.000 C 
ATOM     25  C   UNL     1      37.541 -26.371 -12.856  0.00  0.00    -0.000 C 
ENDBRANCH  18  20
ENDBRANCH   1  17
TORSDOF 3
ENDMDL
MODEL 8
REMARK VINA RESULT:     -10.8      3.873      6.552
REMARK  Name = 448841
REMARK  3 active torsions:
REMARK  status: ('A' for Active; 'I' for Inactive)
REMARK    1  A    between atoms: C_1  and  C_17
REMARK    2  A    between atoms: C_9  and  C_13
REMARK    3  A    between atoms: C_18  and  C_20
REMARK                            x       y       z     vdW  Elec       q    Type
REMARK                         _______ _______ _______ _____ _____    ______ ____
ROOT
ATOM      1  C   UNL     1      34.566 -22.260 -18.689  0.00  0.00    -0.022 C 
ATOM      2  C   UNL     1      35.705 -21.646 -19.209  0.00  0.00    -0.004 C 
ATOM      3  C   UNL     1      33.304 -21.885 -19.141  0.00  0.00    -0.004 C 
ATOM      4  C   UNL     1      35.597 -20.646 -20.189  0.00  0.00    -0.000 C 
ATOM      5  C   UNL     1      33.178 -20.893 -20.115  0.00  0.00    -0.000 C 
ATOM      6  C   UNL     1      34.314 -20.264 -20.649  0.00  0.00    +0.000 C 
ATOM      7  C   UNL     1      36.733 -20.016 -20.722  0.00  0.00    +0.000 C 
ATOM      8  C   UNL     1      34.205 -19.264 -21.629  0.00  0.00    +0.003 C 
ATOM      9  C   UNL     1      35.345 -18.649 -22.149  0.00  0.00    +0.031 C 
ATOM     10  C   UNL     1      36.606 -19.025 -21.696  0.00  0.00    +0.003 C 
ENDROOT
BRANCH   9  13
ATOM     11  N   UNL     1      34.587 -17.871 -24.382  0.00  0.00    -0.343 N 
ATOM     12  N   UNL     1      35.704 -16.409 -22.940  0.00  0.00    -0.285 NA
ATOM     13  C   UNL     1      35.216 -17.616 -23.163  0.00  0.00    +0.117 C 
ATOM     14  H   UNL     1      34.511 -17.156 -25.055  0.00  0.00    +0.144 HD
ATOM     15  H   UNL     1      34.220 -18.765 -24.568  0.00  0.00    +0.144 HD
ATOM     16  H   UNL     1      35.616 -15.708 -23.626  0.00  0.00    +0.188 HD
ENDBRANCH   9  13
BRANCH   1  17
ATOM     17  C   UNL     1      34.699 -23.319 -17.650  0.00  0.00    +0.027 C 
ATOM     18  C   UNL     1      34.929 -22.921 -16.225  0.00  0.00    +0.027 C 
ATOM     19  C   UNL     1      33.606 -23.494 -16.641  0.00  0.00    +0.009 C 
BRANCH  18  20
ATOM     20  C   UNL     1      35.841 -23.734 -15.382  0.00  0.00    -0.022 C 
ATOM     21  C   UNL     1      35.324 -24.704 -14.519  0.00  0.00    -0.004 C 
ATOM     22  C   UNL     1      37.223 -23.534 -15.445  0.00  0.00    -0.004 C 
ATOM     23  C   UNL     1      36.180 -25.467 -13.725  0.00  0.00    -0.000 C 
ATOM     24  C   UNL     1      38.080 -24.296 -14.651  0.00  0.00    -0.000 C 
ATOM     25  C   UNL     1      37.558 -25.262 -13.791  0.00  0.00    -0.000 C 
ENDBRANCH  18  20
ENDBRANCH   1  17
TORSDOF 3
ENDMDL
MODEL 9
REMARK VINA RESULT:     -10.8      3.909      9.131
REMARK  Name = 448841
REMARK  3 active torsions:
REMARK  status: ('A' for Active; 'I' for Inactive)
REMARK    1  A    between atoms: C_1  and  C_17
REMARK    2  A    between atoms: C_9  and  C_13
REMARK    3  A    between atoms: C_18  and  C_20
REMARK                            x       y       z     vdW  Elec       q    Type
REMARK                         _______ _______ _______ _____ _____    ______ ____
ROOT
ATOM      1  C   UNL     1      32.427 -13.108 -20.755  0.00  0.00    -0.022 C 
ATOM      2  C   UNL     1      33.146 -13.376 -21.919  0.00  0.00    -0.004 C 
ATOM      3  C   UNL     1      32.338 -14.070 -19.753  0.00  0.00    -0.004 C 
ATOM      4  C   UNL     1      33.786 -14.614 -22.098  0.00  0.00    -0.000 C 
ATOM      5  C   UNL     1      32.969 -15.306 -19.914  0.00  0.00    -0.000 C 
ATOM      6  C   UNL     1      33.697 -15.593 -21.079  0.00  0.00    +0.000 C 
ATOM      7  C   UNL     1      34.514 -14.901 -23.264  0.00  0.00    +0.000 C 
ATOM      8  C   UNL     1      34.337 -16.829 -21.257  0.00  0.00    +0.003 C 
ATOM      9  C   UNL     1      35.056 -17.099 -22.422  0.00  0.00    +0.031 C 
ATOM     10  C   UNL     1      35.144 -16.135 -23.423  0.00  0.00    +0.003 C 
ENDROOT
BRANCH   9  13
ATOM     11  N   UNL     1      37.031 -18.584 -22.180  0.00  0.00    -0.343 N 
ATOM     12  N   UNL     1      35.062 -19.390 -23.146  0.00  0.00    -0.285 NA
ATOM     13  C   UNL     1      35.714 -18.384 -22.590  0.00  0.00    +0.117 C 
ATOM     14  H   UNL     1      37.457 -19.463 -22.304  0.00  0.00    +0.144 HD
ATOM     15  H   UNL     1      37.535 -17.846 -21.767  0.00  0.00    +0.144 HD
ATOM     16  H   UNL     1      35.506 -20.261 -23.260  0.00  0.00    +0.188 HD
ENDBRANCH   9  13
BRANCH   1  17
ATOM     17  C   UNL     1      31.753 -11.791 -20.583  0.00  0.00    +0.027 C 
ATOM     18  C   UNL     1      31.730 -10.825 -21.726  0.00  0.00    +0.027 C 
ATOM     19  C   UNL     1      30.471 -11.526 -21.309  0.00  0.00    +0.009 C 
BRANCH  18  20
ATOM     20  C   UNL     1      31.880  -9.374 -21.454  0.00  0.00    -0.022 C 
ATOM     21  C   UNL     1      31.564  -8.436 -22.442  0.00  0.00    -0.004 C 
ATOM     22  C   UNL     1      32.338  -8.934 -20.208  0.00  0.00    -0.004 C 
ATOM     23  C   UNL     1      31.706  -7.072 -22.187  0.00  0.00    -0.000 C 
ATOM     24  C   UNL     1      32.481  -7.571 -19.953  0.00  0.00    -0.000 C 
ATOM     25  C   UNL     1      32.165  -6.640 -20.943  0.00  0.00    -0.000 C 
ENDBRANCH  18  20
ENDBRANCH   1  17
TORSDOF 3
ENDMDL
