MODEL 1
REMARK VINA RESULT:     -10.9      0.000      0.000
REMARK  Name = 24988948
REMARK  5 active torsions:
REMARK  status: ('A' for Active; 'I' for Inactive)
REMARK    1  A    between atoms: N_2  and  C_21
REMARK    2  A    between atoms: C_6  and  O_11
REMARK    3  A    between atoms: O_11  and  C_13
REMARK    4  A    between atoms: C_16  and  C_20
REMARK    5  A    between atoms: C_21  and  C_25
REMARK                            x       y       z     vdW  Elec       q    Type
REMARK                         _______ _______ _______ _____ _____    ______ ____
ROOT
ATOM      1 CL   UNL     1      33.995 -15.960 -25.850  0.00  0.00    -0.079 Cl
ATOM      2  N   UNL     1      35.358 -19.597 -21.510  0.00  0.00    -0.205 N 
ATOM      3  N   UNL     1      35.896 -18.801 -20.571  0.00  0.00    -0.176 NA
ATOM      4  C   UNL     1      34.959 -18.938 -22.642  0.00  0.00    +0.074 C 
ATOM      5  C   UNL     1      35.266 -17.602 -22.416  0.00  0.00    +0.071 C 
ATOM      6  C   UNL     1      34.973 -16.651 -23.408  0.00  0.00    +0.158 C 
ATOM      7  C   UNL     1      35.838 -17.587 -21.126  0.00  0.00    +0.122 C 
ATOM      8  C   UNL     1      34.366 -19.395 -23.822  0.00  0.00    +0.017 C 
ATOM      9  C   UNL     1      34.379 -17.088 -24.599  0.00  0.00    +0.092 C 
ATOM     10  C   UNL     1      34.081 -18.436 -24.800  0.00  0.00    +0.016 C 
ENDROOT
BRANCH   6  11
ATOM     11  O   UNL     1      35.265 -15.328 -23.211  0.00  0.00    -0.453 OA
BRANCH  11  13
ATOM     12 CL   UNL     1      31.896 -14.947 -19.394  0.00  0.00    -0.082 Cl
ATOM     13  C   UNL     1      34.327 -14.562 -22.547  0.00  0.00    +0.147 C 
ATOM     14  C   UNL     1      34.043 -13.270 -22.989  0.00  0.00    +0.048 C 
ATOM     15  C   UNL     1      33.662 -15.081 -21.436  0.00  0.00    +0.049 C 
ATOM     16  C   UNL     1      33.096 -12.496 -22.319  0.00  0.00    +0.072 C 
ATOM     17  C   UNL     1      32.715 -14.307 -20.765  0.00  0.00    +0.061 C 
ATOM     18  C   UNL     1      32.431 -13.015 -21.207  0.00  0.00    +0.022 C 
BRANCH  16  20
ATOM     19  N   UNL     1      32.571 -10.097 -23.139  0.00  0.00    -0.191 NA
ATOM     20  C   UNL     1      32.806 -11.172 -22.771  0.00  0.00    +0.101 C 
ENDBRANCH  16  20
ENDBRANCH  11  13
ENDBRANCH   6  11
BRANCH   2  21
ATOM     21  C   UNL     1      35.253 -21.015 -21.254  0.00  0.00    +0.159 C 
BRANCH  21  25
ATOM     22  N   UNL     1      36.818 -21.016 -19.284  0.00  0.00    -0.230 N 
ATOM     23  N   UNL     1      37.002 -21.437 -18.015  0.00  0.00    -0.128 NA
ATOM     24  N   UNL     1      35.551 -22.756 -16.587  0.00  0.00    -0.192 NA
ATOM     25  C   UNL     1      35.629 -21.396 -19.843  0.00  0.00    +0.071 C 
ATOM     26  C   UNL     1      34.998 -22.114 -18.866  0.00  0.00    +0.058 C 
ATOM     27  C   UNL     1      35.882 -22.117 -17.744  0.00  0.00    +0.049 C 
ATOM     28  C   UNL     1      33.749 -22.709 -18.969  0.00  0.00    +0.065 C 
ATOM     29  C   UNL     1      33.429 -23.358 -17.772  0.00  0.00    +0.001 C 
ATOM     30  C   UNL     1      34.317 -23.351 -16.670  0.00  0.00    +0.105 C 
ATOM     31  H   UNL     1      37.487 -20.480 -19.768  0.00  0.00    +0.175 HD
ENDBRANCH  21  25
ENDBRANCH   2  21
TORSDOF 5
ENDMDL
MODEL 2
REMARK VINA RESULT:     -10.7      2.178      3.206
REMARK  Name = 24988948
REMARK  5 active torsions:
REMARK  status: ('A' for Active; 'I' for Inactive)
REMARK    1  A    between atoms: N_2  and  C_21
REMARK    2  A    between atoms: C_6  and  O_11
REMARK    3  A    between atoms: O_11  and  C_13
REMARK    4  A    between atoms: C_16  and  C_20
REMARK    5  A    between atoms: C_21  and  C_25
REMARK                            x       y       z     vdW  Elec       q    Type
REMARK                         _______ _______ _______ _____ _____    ______ ____
ROOT
ATOM      1 CL   UNL     1      32.521 -13.774 -25.759  0.00  0.00    -0.079 Cl
ATOM      2  N   UNL     1      35.448 -17.273 -22.140  0.00  0.00    -0.205 N 
ATOM      3  N   UNL     1      35.149 -16.805 -20.916  0.00  0.00    -0.176 NA
ATOM      4  C   UNL     1      34.856 -16.585 -23.164  0.00  0.00    +0.074 C 
ATOM      5  C   UNL     1      34.110 -15.586 -22.550  0.00  0.00    +0.071 C 
ATOM      6  C   UNL     1      33.371 -14.693 -23.344  0.00  0.00    +0.158 C 
ATOM      7  C   UNL     1      34.334 -15.778 -21.170  0.00  0.00    +0.122 C 
ATOM      8  C   UNL     1      34.913 -16.752 -24.549  0.00  0.00    +0.017 C 
ATOM      9  C   UNL     1      33.413 -14.843 -24.736  0.00  0.00    +0.092 C 
ATOM     10  C   UNL     1      34.171 -15.855 -25.326  0.00  0.00    +0.016 C 
ENDROOT
BRANCH   6  11
ATOM     11  O   UNL     1      32.628 -13.699 -22.765  0.00  0.00    -0.453 OA
BRANCH  11  13
ATOM     12 CL   UNL     1      35.729 -10.472 -25.221  0.00  0.00    -0.082 Cl
ATOM     13  C   UNL     1      33.031 -12.396 -22.981  0.00  0.00    +0.147 C 
ATOM     14  C   UNL     1      32.413 -11.352 -22.293  0.00  0.00    +0.048 C 
ATOM     15  C   UNL     1      34.057 -12.124 -23.885  0.00  0.00    +0.049 C 
ATOM     16  C   UNL     1      32.820 -10.036 -22.510  0.00  0.00    +0.072 C 
ATOM     17  C   UNL     1      34.464 -10.808 -24.104  0.00  0.00    +0.061 C 
ATOM     18  C   UNL     1      33.846  -9.764 -23.415  0.00  0.00    +0.022 C 
BRANCH  16  20
ATOM     19  N   UNL     1      31.670  -8.099 -21.234  0.00  0.00    -0.191 NA
ATOM     20  C   UNL     1      32.185  -8.967 -21.805  0.00  0.00    +0.101 C 
ENDBRANCH  16  20
ENDBRANCH  11  13
ENDBRANCH   6  11
BRANCH   2  21
ATOM     21  C   UNL     1      36.330 -18.412 -22.260  0.00  0.00    +0.159 C 
BRANCH  21  25
ATOM     22  N   UNL     1      37.208 -19.844 -20.388  0.00  0.00    -0.230 N 
ATOM     23  N   UNL     1      36.886 -20.749 -19.439  0.00  0.00    -0.128 NA
ATOM     24  N   UNL     1      34.736 -21.729 -18.891  0.00  0.00    -0.192 NA
ATOM     25  C   UNL     1      36.157 -19.421 -21.153  0.00  0.00    +0.071 C 
ATOM     26  C   UNL     1      35.075 -20.101 -20.664  0.00  0.00    +0.058 C 
ATOM     27  C   UNL     1      35.568 -20.915 -19.600  0.00  0.00    +0.049 C 
ATOM     28  C   UNL     1      33.771 -20.000 -21.128  0.00  0.00    +0.065 C 
ATOM     29  C   UNL     1      32.935 -20.842 -20.388  0.00  0.00    +0.001 C 
ATOM     30  C   UNL     1      33.441 -21.643 -19.336  0.00  0.00    +0.105 C 
ATOM     31  H   UNL     1      38.127 -19.516 -20.518  0.00  0.00    +0.175 HD
ENDBRANCH  21  25
ENDBRANCH   2  21
TORSDOF 5
ENDMDL
MODEL 3
REMARK VINA RESULT:     -10.5      2.185      4.015
REMARK  Name = 24988948
REMARK  5 active torsions:
REMARK  status: ('A' for Active; 'I' for Inactive)
REMARK    1  A    between atoms: N_2  and  C_21
REMARK    2  A    between atoms: C_6  and  O_11
REMARK    3  A    between atoms: O_11  and  C_13
REMARK    4  A    between atoms: C_16  and  C_20
REMARK    5  A    between atoms: C_21  and  C_25
REMARK                            x       y       z     vdW  Elec       q    Type
REMARK                         _______ _______ _______ _____ _____    ______ ____
ROOT
ATOM      1 CL   UNL     1      32.085 -12.925 -20.172  0.00  0.00    -0.079 Cl
ATOM      2  N   UNL     1      35.280 -17.182 -22.536  0.00  0.00    -0.205 N 
ATOM      3  N   UNL     1      35.156 -16.989 -23.860  0.00  0.00    -0.176 NA
ATOM      4  C   UNL     1      34.595 -16.277 -21.771  0.00  0.00    +0.074 C 
ATOM      5  C   UNL     1      33.976 -15.425 -22.678  0.00  0.00    +0.071 C 
ATOM      6  C   UNL     1      33.184 -14.368 -22.199  0.00  0.00    +0.158 C 
ATOM      7  C   UNL     1      34.362 -15.918 -23.943  0.00  0.00    +0.122 C 
ATOM      8  C   UNL     1      34.470 -16.137 -20.387  0.00  0.00    +0.017 C 
ATOM      9  C   UNL     1      33.045 -14.210 -20.814  0.00  0.00    +0.092 C 
ATOM     10  C   UNL     1      33.678 -15.080 -19.926  0.00  0.00    +0.016 C 
ENDROOT
BRANCH   6  11
ATOM     11  O   UNL     1      32.563 -13.514 -23.071  0.00  0.00    -0.453 OA
BRANCH  11  13
ATOM     12 CL   UNL     1      35.905 -10.289 -25.190  0.00  0.00    -0.082 Cl
ATOM     13  C   UNL     1      33.056 -12.227 -23.159  0.00  0.00    +0.147 C 
ATOM     14  C   UNL     1      32.500 -11.213 -22.379  0.00  0.00    +0.048 C 
ATOM     15  C   UNL     1      34.109 -11.941 -24.028  0.00  0.00    +0.049 C 
ATOM     16  C   UNL     1      32.998  -9.913 -22.468  0.00  0.00    +0.072 C 
ATOM     17  C   UNL     1      34.606 -10.641 -24.118  0.00  0.00    +0.061 C 
ATOM     18  C   UNL     1      34.051  -9.627 -23.337  0.00  0.00    +0.022 C 
BRANCH  16  20
ATOM     19  N   UNL     1      31.965  -8.031 -21.020  0.00  0.00    -0.191 NA
ATOM     20  C   UNL     1      32.428  -8.874 -21.669  0.00  0.00    +0.101 C 
ENDBRANCH  16  20
ENDBRANCH  11  13
ENDBRANCH   6  11
BRANCH   2  21
ATOM     21  C   UNL     1      36.088 -18.281 -22.059  0.00  0.00    +0.159 C 
BRANCH  21  25
ATOM     22  N   UNL     1      33.950 -19.489 -21.513  0.00  0.00    -0.230 N 
ATOM     23  N   UNL     1      33.388 -20.470 -20.776  0.00  0.00    -0.128 NA
ATOM     24  N   UNL     1      34.399 -21.984 -19.172  0.00  0.00    -0.192 NA
ATOM     25  C   UNL     1      35.294 -19.329 -21.319  0.00  0.00    +0.071 C 
ATOM     26  C   UNL     1      35.627 -20.276 -20.391  0.00  0.00    +0.058 C 
ATOM     27  C   UNL     1      34.417 -20.966 -20.078  0.00  0.00    +0.049 C 
ATOM     28  C   UNL     1      36.895 -20.500 -19.874  0.00  0.00    +0.065 C 
ATOM     29  C   UNL     1      36.855 -21.548 -18.948  0.00  0.00    +0.001 C 
ATOM     30  C   UNL     1      35.646 -22.221 -18.650  0.00  0.00    +0.105 C 
ATOM     31  H   UNL     1      33.432 -18.932 -22.138  0.00  0.00    +0.175 HD
ENDBRANCH  21  25
ENDBRANCH   2  21
TORSDOF 5
ENDMDL
MODEL 4
REMARK VINA RESULT:     -10.5      1.536      1.890
REMARK  Name = 24988948
REMARK  5 active torsions:
REMARK  status: ('A' for Active; 'I' for Inactive)
REMARK    1  A    between atoms: N_2  and  C_21
REMARK    2  A    between atoms: C_6  and  O_11
REMARK    3  A    between atoms: O_11  and  C_13
REMARK    4  A    between atoms: C_16  and  C_20
REMARK    5  A    between atoms: C_21  and  C_25
REMARK                            x       y       z     vdW  Elec       q    Type
REMARK                         _______ _______ _______ _____ _____    ______ ____
ROOT
ATOM      1 CL   UNL     1      33.581 -14.977 -26.249  0.00  0.00    -0.079 Cl
ATOM      2  N   UNL     1      35.373 -18.463 -21.941  0.00  0.00    -0.205 N 
ATOM      3  N   UNL     1      35.668 -17.620 -20.937  0.00  0.00    -0.176 NA
ATOM      4  C   UNL     1      34.924 -17.846 -23.078  0.00  0.00    +0.074 C 
ATOM      5  C   UNL     1      34.928 -16.488 -22.783  0.00  0.00    +0.071 C 
ATOM      6  C   UNL     1      34.512 -15.570 -23.763  0.00  0.00    +0.158 C 
ATOM      7  C   UNL     1      35.396 -16.419 -21.454  0.00  0.00    +0.122 C 
ATOM      8  C   UNL     1      34.522 -18.357 -24.314  0.00  0.00    +0.017 C 
ATOM      9  C   UNL     1      34.105 -16.061 -25.009  0.00  0.00    +0.092 C 
ATOM     10  C   UNL     1      34.110 -17.431 -25.279  0.00  0.00    +0.016 C 
ENDROOT
BRANCH   6  11
ATOM     11  O   UNL     1      34.508 -14.227 -23.499  0.00  0.00    -0.453 OA
BRANCH  11  13
ATOM     12 CL   UNL     1      31.822 -15.174 -19.262  0.00  0.00    -0.082 Cl
ATOM     13  C   UNL     1      33.616 -13.769 -22.549  0.00  0.00    +0.147 C 
ATOM     14  C   UNL     1      33.116 -12.469 -22.632  0.00  0.00    +0.048 C 
ATOM     15  C   UNL     1      33.215 -14.605 -21.507  0.00  0.00    +0.049 C 
ATOM     16  C   UNL     1      32.215 -12.006 -21.673  0.00  0.00    +0.072 C 
ATOM     17  C   UNL     1      32.315 -14.142 -20.547  0.00  0.00    +0.061 C 
ATOM     18  C   UNL     1      31.815 -12.843 -20.630  0.00  0.00    +0.022 C 
BRANCH  16  20
ATOM     19  N   UNL     1      31.288  -9.594 -21.827  0.00  0.00    -0.191 NA
ATOM     20  C   UNL     1      31.703 -10.675 -21.758  0.00  0.00    +0.101 C 
ENDBRANCH  16  20
ENDBRANCH  11  13
ENDBRANCH   6  11
BRANCH   2  21
ATOM     21  C   UNL     1      35.549 -19.883 -21.741  0.00  0.00    +0.159 C 
BRANCH  21  25
ATOM     22  N   UNL     1      33.175 -20.250 -20.994  0.00  0.00    -0.230 N 
ATOM     23  N   UNL     1      32.378 -20.870 -20.097  0.00  0.00    -0.128 NA
ATOM     24  N   UNL     1      32.957 -22.336 -18.253  0.00  0.00    -0.192 NA
ATOM     25  C   UNL     1      34.511 -20.491 -20.830  0.00  0.00    +0.071 C 
ATOM     26  C   UNL     1      34.585 -21.327 -19.750  0.00  0.00    +0.058 C 
ATOM     27  C   UNL     1      33.239 -21.539 -19.323  0.00  0.00    +0.049 C 
ATOM     28  C   UNL     1      35.747 -21.849 -19.202  0.00  0.00    +0.065 C 
ATOM     29  C   UNL     1      35.435 -22.662 -18.107  0.00  0.00    +0.001 C 
ATOM     30  C   UNL     1      34.095 -22.862 -17.697  0.00  0.00    +0.105 C 
ATOM     31  H   UNL     1      32.822 -19.671 -21.707  0.00  0.00    +0.175 HD
ENDBRANCH  21  25
ENDBRANCH   2  21
TORSDOF 5
ENDMDL
MODEL 5
REMARK VINA RESULT:     -10.5      4.888      8.717
REMARK  Name = 24988948
REMARK  5 active torsions:
REMARK  status: ('A' for Active; 'I' for Inactive)
REMARK    1  A    between atoms: N_2  and  C_21
REMARK    2  A    between atoms: C_6  and  O_11
REMARK    3  A    between atoms: O_11  and  C_13
REMARK    4  A    between atoms: C_16  and  C_20
REMARK    5  A    between atoms: C_21  and  C_25
REMARK                            x       y       z     vdW  Elec       q    Type
REMARK                         _______ _______ _______ _____ _____    ______ ____
ROOT
ATOM      1 CL   UNL     1      31.572  -7.816 -20.439  0.00  0.00    -0.079 Cl
ATOM      2  N   UNL     1      33.886 -11.632 -24.181  0.00  0.00    -0.205 N 
ATOM      3  N   UNL     1      34.918 -10.969 -24.731  0.00  0.00    -0.176 NA
ATOM      4  C   UNL     1      33.185 -10.909 -23.253  0.00  0.00    +0.074 C 
ATOM      5  C   UNL     1      33.818  -9.672 -23.199  0.00  0.00    +0.071 C 
ATOM      6  C   UNL     1      33.329  -8.687 -22.324  0.00  0.00    +0.158 C 
ATOM      7  C   UNL     1      34.873  -9.777 -24.130  0.00  0.00    +0.122 C 
ATOM      8  C   UNL     1      32.071 -11.230 -22.474  0.00  0.00    +0.017 C 
ATOM      9  C   UNL     1      32.213  -8.989 -21.533  0.00  0.00    +0.092 C 
ATOM     10  C   UNL     1      31.596 -10.239 -21.609  0.00  0.00    +0.016 C 
ENDROOT
BRANCH   6  11
ATOM     11  O   UNL     1      33.932  -7.461 -22.251  0.00  0.00    -0.453 OA
BRANCH  11  13
ATOM     12 CL   UNL     1      34.066  -5.010 -26.727  0.00  0.00    -0.082 Cl
ATOM     13  C   UNL     1      33.429  -6.456 -23.052  0.00  0.00    +0.147 C 
ATOM     14  C   UNL     1      32.408  -5.632 -22.579  0.00  0.00    +0.048 C 
ATOM     15  C   UNL     1      33.942  -6.263 -24.335  0.00  0.00    +0.049 C 
ATOM     16  C   UNL     1      31.899  -4.616 -23.387  0.00  0.00    +0.072 C 
ATOM     17  C   UNL     1      33.433  -5.247 -25.145  0.00  0.00    +0.061 C 
ATOM     18  C   UNL     1      32.412  -4.423 -24.671  0.00  0.00    +0.022 C 
BRANCH  16  20
ATOM     19  N   UNL     1      30.003  -3.089 -22.508  0.00  0.00    -0.191 NA
ATOM     20  C   UNL     1      30.853  -3.773 -22.902  0.00  0.00    +0.101 C 
ENDBRANCH  16  20
ENDBRANCH  11  13
ENDBRANCH   6  11
BRANCH   2  21
ATOM     21  C   UNL     1      33.620 -12.989 -24.600  0.00  0.00    +0.159 C 
BRANCH  21  25
ATOM     22  N   UNL     1      34.454 -13.713 -22.340  0.00  0.00    -0.230 N 
ATOM     23  N   UNL     1      34.904 -14.753 -21.605  0.00  0.00    -0.128 NA
ATOM     24  N   UNL     1      35.231 -17.074 -22.231  0.00  0.00    -0.192 NA
ATOM     25  C   UNL     1      34.138 -14.025 -23.633  0.00  0.00    +0.071 C 
ATOM     26  C   UNL     1      34.401 -15.362 -23.745  0.00  0.00    +0.058 C 
ATOM     27  C   UNL     1      34.875 -15.779 -22.463  0.00  0.00    +0.049 C 
ATOM     28  C   UNL     1      34.232 -16.134 -24.884  0.00  0.00    +0.065 C 
ATOM     29  C   UNL     1      34.604 -17.458 -24.624  0.00  0.00    +0.001 C 
ATOM     30  C   UNL     1      35.071 -17.853 -23.348  0.00  0.00    +0.105 C 
ATOM     31  H   UNL     1      34.363 -12.804 -21.973  0.00  0.00    +0.175 HD
ENDBRANCH  21  25
ENDBRANCH   2  21
TORSDOF 5
ENDMDL
MODEL 6
REMARK VINA RESULT:     -10.4      2.229      3.039
REMARK  Name = 24988948
REMARK  5 active torsions:
REMARK  status: ('A' for Active; 'I' for Inactive)
REMARK    1  A    between atoms: N_2  and  C_21
REMARK    2  A    between atoms: C_6  and  O_11
REMARK    3  A    between atoms: O_11  and  C_13
REMARK    4  A    between atoms: C_16  and  C_20
REMARK    5  A    between atoms: C_21  and  C_25
REMARK                            x       y       z     vdW  Elec       q    Type
REMARK                         _______ _______ _______ _____ _____    ______ ____
ROOT
ATOM      1 CL   UNL     1      32.484 -13.884 -25.714  0.00  0.00    -0.079 Cl
ATOM      2  N   UNL     1      35.456 -17.274 -22.028  0.00  0.00    -0.205 N 
ATOM      3  N   UNL     1      35.096 -16.832 -20.812  0.00  0.00    -0.176 NA
ATOM      4  C   UNL     1      34.866 -16.605 -23.066  0.00  0.00    +0.074 C 
ATOM      5  C   UNL     1      34.053 -15.648 -22.469  0.00  0.00    +0.071 C 
ATOM      6  C   UNL     1      33.298 -14.784 -23.280  0.00  0.00    +0.158 C 
ATOM      7  C   UNL     1      34.241 -15.842 -21.084  0.00  0.00    +0.122 C 
ATOM      8  C   UNL     1      34.975 -16.756 -24.450  0.00  0.00    +0.017 C 
ATOM      9  C   UNL     1      33.393 -14.918 -24.671  0.00  0.00    +0.092 C 
ATOM     10  C   UNL     1      34.217 -15.888 -25.244  0.00  0.00    +0.016 C 
ENDROOT
BRANCH   6  11
ATOM     11  O   UNL     1      32.491 -13.832 -22.718  0.00  0.00    -0.453 OA
BRANCH  11  13
ATOM     12 CL   UNL     1      31.857  -8.964 -21.316  0.00  0.00    -0.082 Cl
ATOM     13  C   UNL     1      32.869 -12.511 -22.862  0.00  0.00    +0.147 C 
ATOM     14  C   UNL     1      33.876 -12.169 -23.766  0.00  0.00    +0.048 C 
ATOM     15  C   UNL     1      32.245 -11.520 -22.106  0.00  0.00    +0.049 C 
ATOM     16  C   UNL     1      34.258 -10.836 -23.912  0.00  0.00    +0.072 C 
ATOM     17  C   UNL     1      32.627 -10.186 -22.251  0.00  0.00    +0.061 C 
ATOM     18  C   UNL     1      33.633  -9.844 -23.154  0.00  0.00    +0.022 C 
BRANCH  16  20
ATOM     19  N   UNL     1      36.126 -10.201 -25.588  0.00  0.00    -0.191 NA
ATOM     20  C   UNL     1      35.289 -10.486 -24.837  0.00  0.00    +0.101 C 
ENDBRANCH  16  20
ENDBRANCH  11  13
ENDBRANCH   6  11
BRANCH   2  21
ATOM     21  C   UNL     1      36.394 -18.368 -22.129  0.00  0.00    +0.159 C 
BRANCH  21  25
ATOM     22  N   UNL     1      37.255 -19.838 -20.278  0.00  0.00    -0.230 N 
ATOM     23  N   UNL     1      36.926 -20.774 -19.362  0.00  0.00    -0.128 NA
ATOM     24  N   UNL     1      34.781 -21.803 -18.889  0.00  0.00    -0.192 NA
ATOM     25  C   UNL     1      36.213 -19.411 -21.054  0.00  0.00    +0.071 C 
ATOM     26  C   UNL     1      35.132 -20.121 -20.608  0.00  0.00    +0.058 C 
ATOM     27  C   UNL     1      35.615 -20.957 -19.556  0.00  0.00    +0.049 C 
ATOM     28  C   UNL     1      33.838 -20.027 -21.097  0.00  0.00    +0.065 C 
ATOM     29  C   UNL     1      32.999 -20.903 -20.400  0.00  0.00    +0.001 C 
ATOM     30  C   UNL     1      33.495 -21.724 -19.359  0.00  0.00    +0.105 C 
ATOM     31  H   UNL     1      38.171 -19.493 -20.379  0.00  0.00    +0.175 HD
ENDBRANCH  21  25
ENDBRANCH   2  21
TORSDOF 5
ENDMDL
MODEL 7
REMARK VINA RESULT:     -10.4      1.917      3.142
REMARK  Name = 24988948
REMARK  5 active torsions:
REMARK  status: ('A' for Active; 'I' for Inactive)
REMARK    1  A    between atoms: N_2  and  C_21
REMARK    2  A    between atoms: C_6  and  O_11
REMARK    3  A    between atoms: O_11  and  C_13
REMARK    4  A    between atoms: C_16  and  C_20
REMARK    5  A    between atoms: C_21  and  C_25
REMARK                            x       y       z     vdW  Elec       q    Type
REMARK                         _______ _______ _______ _____ _____    ______ ____
ROOT
ATOM      1 CL   UNL     1      32.984 -12.663 -26.715  0.00  0.00    -0.079 Cl
ATOM      2  N   UNL     1      34.643 -16.908 -23.090  0.00  0.00    -0.205 N 
ATOM      3  N   UNL     1      35.145 -16.255 -22.028  0.00  0.00    -0.176 NA
ATOM      4  C   UNL     1      34.185 -16.088 -24.086  0.00  0.00    +0.074 C 
ATOM      5  C   UNL     1      34.410 -14.795 -23.629  0.00  0.00    +0.071 C 
ATOM      6  C   UNL     1      34.043 -13.706 -24.437  0.00  0.00    +0.158 C 
ATOM      7  C   UNL     1      35.002 -14.970 -22.360  0.00  0.00    +0.122 C 
ATOM      8  C   UNL     1      33.603 -16.369 -25.325  0.00  0.00    +0.017 C 
ATOM      9  C   UNL     1      33.458 -13.965 -25.683  0.00  0.00    +0.092 C 
ATOM     10  C   UNL     1      33.243 -15.274 -26.118  0.00  0.00    +0.016 C 
ENDROOT
BRANCH   6  11
ATOM     11  O   UNL     1      34.254 -12.422 -24.012  0.00  0.00    -0.453 OA
BRANCH  11  13
ATOM     12 CL   UNL     1      31.300 -13.003 -19.889  0.00  0.00    -0.082 Cl
ATOM     13  C   UNL     1      33.323 -11.876 -23.151  0.00  0.00    +0.147 C 
ATOM     14  C   UNL     1      32.866 -10.574 -23.353  0.00  0.00    +0.048 C 
ATOM     15  C   UNL     1      32.838 -12.627 -22.080  0.00  0.00    +0.049 C 
ATOM     16  C   UNL     1      31.925 -10.023 -22.483  0.00  0.00    +0.072 C 
ATOM     17  C   UNL     1      31.897 -12.076 -21.210  0.00  0.00    +0.061 C 
ATOM     18  C   UNL     1      31.440 -10.774 -21.412  0.00  0.00    +0.022 C 
BRANCH  16  20
ATOM     19  N   UNL     1      31.079  -7.604 -22.857  0.00  0.00    -0.191 NA
ATOM     20  C   UNL     1      31.457  -8.688 -22.690  0.00  0.00    +0.101 C 
ENDBRANCH  16  20
ENDBRANCH  11  13
ENDBRANCH   6  11
BRANCH   2  21
ATOM     21  C   UNL     1      34.631 -18.352 -23.086  0.00  0.00    +0.159 C 
BRANCH  21  25
ATOM     22  N   UNL     1      36.888 -18.609 -22.004  0.00  0.00    -0.230 N 
ATOM     23  N   UNL     1      37.588 -19.237 -21.036  0.00  0.00    -0.128 NA
ATOM     24  N   UNL     1      36.858 -20.873 -19.400  0.00  0.00    -0.192 NA
ATOM     25  C   UNL     1      35.566 -18.954 -22.066  0.00  0.00    +0.071 C 
ATOM     26  C   UNL     1      35.398 -19.871 -21.066  0.00  0.00    +0.058 C 
ATOM     27  C   UNL     1      36.677 -20.020 -20.447  0.00  0.00    +0.049 C 
ATOM     28  C   UNL     1      34.212 -20.512 -20.738  0.00  0.00    +0.065 C 
ATOM     29  C   UNL     1      34.420 -21.381 -19.662  0.00  0.00    +0.001 C 
ATOM     30  C   UNL     1      35.695 -21.517 -19.061  0.00  0.00    +0.105 C 
ATOM     31  H   UNL     1      37.297 -17.956 -22.617  0.00  0.00    +0.175 HD
ENDBRANCH  21  25
ENDBRANCH   2  21
TORSDOF 5
ENDMDL
MODEL 8
REMARK VINA RESULT:     -10.3      6.220     12.694
REMARK  Name = 24988948
REMARK  5 active torsions:
REMARK  status: ('A' for Active; 'I' for Inactive)
REMARK    1  A    between atoms: N_2  and  C_21
REMARK    2  A    between atoms: C_6  and  O_11
REMARK    3  A    between atoms: O_11  and  C_13
REMARK    4  A    between atoms: C_16  and  C_20
REMARK    5  A    between atoms: C_21  and  C_25
REMARK                            x       y       z     vdW  Elec       q    Type
REMARK                         _______ _______ _______ _____ _____    ______ ____
ROOT
ATOM      1 CL   UNL     1      31.206 -11.539 -18.051  0.00  0.00    -0.079 Cl
ATOM      2  N   UNL     1      32.633  -7.853 -22.328  0.00  0.00    -0.205 N 
ATOM      3  N   UNL     1      32.352  -8.531 -23.454  0.00  0.00    -0.176 NA
ATOM      4  C   UNL     1      32.369  -8.544 -21.176  0.00  0.00    +0.074 C 
ATOM      5  C   UNL     1      31.876  -9.775 -21.593  0.00  0.00    +0.071 C 
ATOM      6  C   UNL     1      31.506 -10.730 -20.631  0.00  0.00    +0.158 C 
ATOM      7  C   UNL     1      31.892  -9.700 -23.002  0.00  0.00    +0.122 C 
ATOM      8  C   UNL     1      32.520  -8.199 -19.831  0.00  0.00    +0.017 C 
ATOM      9  C   UNL     1      31.649 -10.404 -19.276  0.00  0.00    +0.092 C 
ATOM     10  C   UNL     1      32.147  -9.160 -18.885  0.00  0.00    +0.016 C 
ENDROOT
BRANCH   6  11
ATOM     11  O   UNL     1      31.018 -11.950 -21.013  0.00  0.00    -0.453 OA
BRANCH  11  13
ATOM     12 CL   UNL     1      34.438 -15.566 -19.878  0.00  0.00    -0.082 Cl
ATOM     13  C   UNL     1      31.928 -12.885 -21.464  0.00  0.00    +0.147 C 
ATOM     14  C   UNL     1      32.136 -13.053 -22.833  0.00  0.00    +0.048 C 
ATOM     15  C   UNL     1      32.641 -13.662 -20.551  0.00  0.00    +0.049 C 
ATOM     16  C   UNL     1      33.056 -13.997 -23.289  0.00  0.00    +0.072 C 
ATOM     17  C   UNL     1      33.560 -14.607 -21.006  0.00  0.00    +0.061 C 
ATOM     18  C   UNL     1      33.768 -14.775 -22.375  0.00  0.00    +0.022 C 
BRANCH  16  20
ATOM     19  N   UNL     1      33.439 -14.308 -25.830  0.00  0.00    -0.191 NA
ATOM     20  C   UNL     1      33.267 -14.169 -24.692  0.00  0.00    +0.101 C 
ENDBRANCH  16  20
ENDBRANCH  11  13
ENDBRANCH   6  11
BRANCH   2  21
ATOM     21  C   UNL     1      33.164  -6.513 -22.429  0.00  0.00    +0.159 C 
BRANCH  21  25
ATOM     22  N   UNL     1      31.086  -5.240 -21.806  0.00  0.00    -0.230 N 
ATOM     23  N   UNL     1      30.225  -4.272 -22.183  0.00  0.00    -0.128 NA
ATOM     24  N   UNL     1      30.215  -2.886 -24.174  0.00  0.00    -0.192 NA
ATOM     25  C   UNL     1      32.107  -5.469 -22.687  0.00  0.00    +0.071 C 
ATOM     26  C   UNL     1      31.891  -4.585 -23.708  0.00  0.00    +0.058 C 
ATOM     27  C   UNL     1      30.712  -3.858 -23.358  0.00  0.00    +0.049 C 
ATOM     28  C   UNL     1      32.676  -4.443 -24.843  0.00  0.00    +0.065 C 
ATOM     29  C   UNL     1      32.148  -3.442 -25.666  0.00  0.00    +0.001 C 
ATOM     30  C   UNL     1      30.979  -2.732 -25.304  0.00  0.00    +0.105 C 
ATOM     31  H   UNL     1      30.987  -5.741 -20.964  0.00  0.00    +0.175 HD
ENDBRANCH  21  25
ENDBRANCH   2  21
TORSDOF 5
ENDMDL
MODEL 9
REMARK VINA RESULT:     -10.3      4.403      6.972
REMARK  Name = 24988948
REMARK  5 active torsions:
REMARK  status: ('A' for Active; 'I' for Inactive)
REMARK    1  A    between atoms: N_2  and  C_21
REMARK    2  A    between atoms: C_6  and  O_11
REMARK    3  A    between atoms: O_11  and  C_13
REMARK    4  A    between atoms: C_16  and  C_20
REMARK    5  A    between atoms: C_21  and  C_25
REMARK                            x       y       z     vdW  Elec       q    Type
REMARK                         _______ _______ _______ _____ _____    ______ ____
ROOT
ATOM      1 CL   UNL     1      30.060 -11.190 -19.403  0.00  0.00    -0.079 Cl
ATOM      2  N   UNL     1      34.133 -13.618 -22.784  0.00  0.00    -0.205 N 
ATOM      3  N   UNL     1      34.124 -12.869 -23.899  0.00  0.00    -0.176 NA
ATOM      4  C   UNL     1      33.233 -13.219 -21.832  0.00  0.00    +0.074 C 
ATOM      5  C   UNL     1      32.587 -12.117 -22.379  0.00  0.00    +0.071 C 
ATOM      6  C   UNL     1      31.588 -11.465 -21.636  0.00  0.00    +0.158 C 
ATOM      7  C   UNL     1      33.182 -11.956 -23.649  0.00  0.00    +0.122 C 
ATOM      8  C   UNL     1      32.938 -13.723 -20.563  0.00  0.00    +0.017 C 
ATOM      9  C   UNL     1      31.277 -11.954 -20.361  0.00  0.00    +0.092 C 
ATOM     10  C   UNL     1      31.942 -13.064 -19.836  0.00  0.00    +0.016 C 
ENDROOT
BRANCH   6  11
ATOM     11  O   UNL     1      30.936 -10.378 -22.151  0.00  0.00    -0.453 OA
BRANCH  11  13
ATOM     12 CL   UNL     1      33.099  -6.806 -19.214  0.00  0.00    -0.082 Cl
ATOM     13  C   UNL     1      31.574  -9.156 -22.069  0.00  0.00    +0.147 C 
ATOM     14  C   UNL     1      31.824  -8.420 -23.228  0.00  0.00    +0.048 C 
ATOM     15  C   UNL     1      31.968  -8.656 -20.828  0.00  0.00    +0.049 C 
ATOM     16  C   UNL     1      32.468  -7.186 -23.146  0.00  0.00    +0.072 C 
ATOM     17  C   UNL     1      32.613  -7.422 -20.745  0.00  0.00    +0.061 C 
ATOM     18  C   UNL     1      32.863  -6.687 -21.904  0.00  0.00    +0.022 C 
BRANCH  16  20
ATOM     19  N   UNL     1      32.933  -5.824 -25.297  0.00  0.00    -0.191 NA
ATOM     20  C   UNL     1      32.725  -6.434 -24.333  0.00  0.00    +0.101 C 
ENDBRANCH  16  20
ENDBRANCH  11  13
ENDBRANCH   6  11
BRANCH   2  21
ATOM     21  C   UNL     1      35.050 -14.730 -22.692  0.00  0.00    +0.159 C 
BRANCH  21  25
ATOM     22  N   UNL     1      34.177 -15.665 -24.858  0.00  0.00    -0.230 N 
ATOM     23  N   UNL     1      33.917 -16.792 -25.553  0.00  0.00    -0.128 NA
ATOM     24  N   UNL     1      34.231 -19.115 -24.928  0.00  0.00    -0.192 NA
ATOM     25  C   UNL     1      34.697 -15.874 -23.610  0.00  0.00    +0.071 C 
ATOM     26  C   UNL     1      34.780 -17.233 -23.489  0.00  0.00    +0.058 C 
ATOM     27  C   UNL     1      34.286 -17.770 -24.718  0.00  0.00    +0.049 C 
ATOM     28  C   UNL     1      35.254 -17.927 -22.385  0.00  0.00    +0.065 C 
ATOM     29  C   UNL     1      35.188 -19.304 -22.622  0.00  0.00    +0.001 C 
ATOM     30  C   UNL     1      34.696 -19.818 -23.845  0.00  0.00    +0.105 C 
ATOM     31  H   UNL     1      34.005 -14.766 -25.219  0.00  0.00    +0.175 HD
ENDBRANCH  21  25
ENDBRANCH   2  21
TORSDOF 5
ENDMDL
