MODEL 1
REMARK VINA RESULT:     -11.1      0.000      0.000
REMARK  Name = 8969
REMARK  3 active torsions:
REMARK  status: ('A' for Active; 'I' for Inactive)
REMARK    1  A    between atoms: C_7  and  C_27
REMARK    2  A    between atoms: C_10  and  O_24
REMARK    3  A    between atoms: C_27  and  O_28
REMARK                            x       y       z     vdW  Elec       q    Type
REMARK                         _______ _______ _______ _____ _____    ______ ____
ROOT
ATOM      1  N   UNL     1      34.161 -23.548 -15.882  0.00  0.00    +0.392 N 
ATOM      2  N   UNL     1      33.111 -22.070 -19.156  0.00  0.00    -0.358 N 
ATOM      3  C   UNL     1      31.312 -24.128 -15.529  0.00  0.00    +0.009 C 
ATOM      4  C   UNL     1      32.330 -24.198 -14.369  0.00  0.00    -0.020 C 
ATOM      5  C   UNL     1      31.825 -23.140 -16.592  0.00  0.00    -0.015 C 
ATOM      6  C   UNL     1      33.241 -23.525 -17.053  0.00  0.00    -0.019 C 
ATOM      7  C   UNL     1      29.919 -23.754 -14.988  0.00  0.00    +0.126 C 
ATOM      8  C   UNL     1      33.733 -24.546 -14.893  0.00  0.00    -0.077 C 
ATOM      9  C   UNL     1      31.874 -25.189 -13.292  0.00  0.00    +0.000 C 
ATOM     10  C   UNL     1      29.453 -24.736 -13.898  0.00  0.00    +0.121 C 
ATOM     11  C   UNL     1      30.480 -24.835 -12.768  0.00  0.00    +0.030 C 
ATOM     12  C   UNL     1      33.786 -22.587 -18.087  0.00  0.00    +0.010 A 
ATOM     13  C   UNL     1      35.566 -23.759 -16.290  0.00  0.00    -0.072 C 
ATOM     14  C   UNL     1      35.095 -22.157 -18.151  0.00  0.00    -0.013 A 
ATOM     15  C   UNL     1      36.091 -22.567 -17.126  0.00  0.00    +0.005 C 
ATOM     16  C   UNL     1      35.218 -21.316 -19.290  0.00  0.00    +0.013 A 
ATOM     17  C   UNL     1      33.959 -21.278 -19.902  0.00  0.00    +0.056 A 
ATOM     18  C   UNL     1      36.274 -20.584 -19.867  0.00  0.00    +0.001 C 
ATOM     19  C   UNL     1      33.710 -20.542 -21.066  0.00  0.00    +0.017 C 
ATOM     20  C   UNL     1      36.036 -19.841 -21.030  0.00  0.00    +0.000 C 
ATOM     21  C   UNL     1      34.774 -19.822 -21.618  0.00  0.00    +0.001 C 
ATOM     22  H   UNL     1      34.113 -22.631 -15.440  0.00  0.00    -0.079 HD
ATOM     23  H   UNL     1      32.163 -22.236 -19.364  0.00  0.00    +0.166 HD
ENDROOT
BRANCH  10  24
ATOM     24  O   UNL     1      29.270 -26.034 -14.466  0.00  0.00    -0.384 OA
ATOM     25  H   UNL     1      29.961 -26.198 -15.127  0.00  0.00    +0.210 HD
ENDBRANCH  10  24
BRANCH   7  27
ATOM     26  O   UNL     1      28.550 -24.711 -16.727  0.00  0.00    -0.250 OA
ATOM     27  C   UNL     1      28.893 -23.727 -16.084  0.00  0.00    +0.319 C 
BRANCH  27  28
ATOM     28  O   UNL     1      28.424 -22.456 -16.238  0.00  0.00    -0.444 OA
ATOM     29  C   UNL     1      27.047 -22.350 -16.612  0.00  0.00    +0.256 C 
ENDBRANCH  27  28
ENDBRANCH   7  27
TORSDOF 3
ENDMDL
MODEL 2
REMARK VINA RESULT:      -9.2     12.246     15.419
REMARK  Name = 8969
REMARK  3 active torsions:
REMARK  status: ('A' for Active; 'I' for Inactive)
REMARK    1  A    between atoms: C_7  and  C_27
REMARK    2  A    between atoms: C_10  and  O_24
REMARK    3  A    between atoms: C_27  and  O_28
REMARK                            x       y       z     vdW  Elec       q    Type
REMARK                         _______ _______ _______ _____ _____    ______ ____
ROOT
ATOM      1  N   UNL     1      31.822  -8.789 -20.930  0.00  0.00    +0.392 N 
ATOM      2  N   UNL     1      33.291  -7.299 -24.034  0.00  0.00    -0.358 N 
ATOM      3  C   UNL     1      32.883 -11.318 -21.957  0.00  0.00    +0.009 C 
ATOM      4  C   UNL     1      31.849 -11.248 -20.812  0.00  0.00    -0.020 C 
ATOM      5  C   UNL     1      32.743 -10.064 -22.841  0.00  0.00    -0.015 C 
ATOM      6  C   UNL     1      32.865  -8.786 -21.993  0.00  0.00    -0.019 C 
ATOM      7  C   UNL     1      32.710 -12.629 -22.748  0.00  0.00    +0.126 C 
ATOM      8  C   UNL     1      31.991  -9.934 -20.026  0.00  0.00    -0.077 C 
ATOM      9  C   UNL     1      31.964 -12.466 -19.888  0.00  0.00    +0.000 C 
ATOM     10  C   UNL     1      32.813 -13.860 -21.830  0.00  0.00    +0.121 C 
ATOM     11  C   UNL     1      31.816 -13.772 -20.674  0.00  0.00    +0.030 C 
ATOM     12  C   UNL     1      32.730  -7.538 -22.811  0.00  0.00    +0.010 A 
ATOM     13  C   UNL     1      31.792  -7.512 -20.185  0.00  0.00    -0.072 C 
ATOM     14  C   UNL     1      32.066  -6.398 -22.408  0.00  0.00    -0.013 A 
ATOM     15  C   UNL     1      31.360  -6.341 -21.099  0.00  0.00    +0.005 C 
ATOM     16  C   UNL     1      32.199  -5.432 -23.441  0.00  0.00    +0.013 A 
ATOM     17  C   UNL     1      32.971  -6.022 -24.449  0.00  0.00    +0.056 A 
ATOM     18  C   UNL     1      31.744  -4.111 -23.622  0.00  0.00    +0.001 C 
ATOM     19  C   UNL     1      33.310  -5.351 -25.629  0.00  0.00    +0.017 C 
ATOM     20  C   UNL     1      32.074  -3.430 -24.800  0.00  0.00    +0.000 C 
ATOM     21  C   UNL     1      32.845  -4.041 -25.786  0.00  0.00    +0.001 C 
ATOM     22  H   UNL     1      30.918  -8.886 -21.391  0.00  0.00    -0.079 HD
ATOM     23  H   UNL     1      33.839  -7.939 -24.542  0.00  0.00    +0.166 HD
ENDROOT
BRANCH  10  24
ATOM     24  O   UNL     1      34.133 -13.949 -21.292  0.00  0.00    -0.384 OA
ATOM     25  H   UNL     1      34.553 -14.768 -21.597  0.00  0.00    +0.210 HD
ENDBRANCH  10  24
BRANCH   7  27
ATOM     26  O   UNL     1      34.372 -11.808 -24.289  0.00  0.00    -0.250 OA
ATOM     27  C   UNL     1      33.734 -12.751 -23.839  0.00  0.00    +0.319 C 
BRANCH  27  28
ATOM     28  O   UNL     1      33.829 -14.053 -24.231  0.00  0.00    -0.444 OA
ATOM     29  C   UNL     1      33.177 -14.374 -25.464  0.00  0.00    +0.256 C 
ENDBRANCH  27  28
ENDBRANCH   7  27
TORSDOF 3
ENDMDL
MODEL 3
REMARK VINA RESULT:      -8.4     11.172     14.229
REMARK  Name = 8969
REMARK  3 active torsions:
REMARK  status: ('A' for Active; 'I' for Inactive)
REMARK    1  A    between atoms: C_7  and  C_27
REMARK    2  A    between atoms: C_10  and  O_24
REMARK    3  A    between atoms: C_27  and  O_28
REMARK                            x       y       z     vdW  Elec       q    Type
REMARK                         _______ _______ _______ _____ _____    ______ ____
ROOT
ATOM      1  N   UNL     1      32.415 -11.757 -20.338  0.00  0.00    +0.392 N 
ATOM      2  N   UNL     1      33.116 -13.006 -23.796  0.00  0.00    -0.358 N 
ATOM      3  C   UNL     1      32.110  -9.145 -21.626  0.00  0.00    +0.009 C 
ATOM      4  C   UNL     1      32.263  -9.311 -20.098  0.00  0.00    -0.020 C 
ATOM      5  C   UNL     1      32.779 -10.338 -22.333  0.00  0.00    -0.015 C 
ATOM      6  C   UNL     1      32.209 -11.668 -21.810  0.00  0.00    -0.019 C 
ATOM      7  C   UNL     1      32.687  -7.787 -22.071  0.00  0.00    +0.126 C 
ATOM      8  C   UNL     1      31.715 -10.672 -19.639  0.00  0.00    -0.077 C 
ATOM      9  C   UNL     1      31.592  -8.156 -19.346  0.00  0.00    +0.000 C 
ATOM     10  C   UNL     1      32.029  -6.619 -21.316  0.00  0.00    +0.121 C 
ATOM     11  C   UNL     1      32.146  -6.803 -19.802  0.00  0.00    +0.030 C 
ATOM     12  C   UNL     1      32.834 -12.860 -22.467  0.00  0.00    +0.010 A 
ATOM     13  C   UNL     1      32.029 -13.081 -19.807  0.00  0.00    -0.072 C 
ATOM     14  C   UNL     1      33.156 -14.037 -21.824  0.00  0.00    -0.013 A 
ATOM     15  C   UNL     1      32.948 -14.196 -20.359  0.00  0.00    +0.005 C 
ATOM     16  C   UNL     1      33.687 -14.929 -22.795  0.00  0.00    +0.013 A 
ATOM     17  C   UNL     1      33.650 -14.258 -24.022  0.00  0.00    +0.056 A 
ATOM     18  C   UNL     1      34.193 -16.243 -22.756  0.00  0.00    +0.001 C 
ATOM     19  C   UNL     1      34.096 -14.842 -25.214  0.00  0.00    +0.017 C 
ATOM     20  C   UNL     1      34.644 -16.838 -23.940  0.00  0.00    +0.000 C 
ATOM     21  C   UNL     1      34.595 -16.146 -25.148  0.00  0.00    +0.001 C 
ATOM     22  H   UNL     1      33.414 -11.646 -20.164  0.00  0.00    -0.079 HD
ATOM     23  H   UNL     1      32.961 -12.323 -24.487  0.00  0.00    +0.166 HD
ENDROOT
BRANCH  10  24
ATOM     24  O   UNL     1      30.646  -6.541 -21.663  0.00  0.00    -0.384 OA
ATOM     25  H   UNL     1      30.131  -7.113 -21.074  0.00  0.00    +0.210 HD
ENDBRANCH  10  24
BRANCH   7  27
ATOM     26  O   UNL     1      31.443  -7.702 -24.134  0.00  0.00    -0.250 OA
ATOM     27  C   UNL     1      32.509  -7.571 -23.546  0.00  0.00    +0.319 C 
BRANCH  27  28
ATOM     28  O   UNL     1      33.702  -7.216 -24.102  0.00  0.00    -0.444 OA
ATOM     29  C   UNL     1      33.741  -5.916 -24.697  0.00  0.00    +0.256 C 
ENDBRANCH  27  28
ENDBRANCH   7  27
TORSDOF 3
ENDMDL
