MODEL 1
REMARK VINA RESULT:     -13.1      0.000      0.000
REMARK  Name = 445756
REMARK  6 active torsions:
REMARK  status: ('A' for Active; 'I' for Inactive)
REMARK    1  A    between atoms: C_3  and  C_11
REMARK    2  A    between atoms: C_6  and  C_22
REMARK    3  A    between atoms: C_11  and  N_12
REMARK    4  A    between atoms: C_22  and  N_23
REMARK    5  A    between atoms: N_23  and  C_25
REMARK    6  A    between atoms: C_30  and  C_33
REMARK                            x       y       z     vdW  Elec       q    Type
REMARK                         _______ _______ _______ _____ _____    ______ ____
ROOT
ATOM      1  N   UNL     1      34.541 -15.659 -22.470  0.00  0.00    -0.261 N 
ATOM      2  N   UNL     1      33.747 -15.737 -20.396  0.00  0.00    -0.392 NA
ATOM      3  C   UNL     1      31.856 -12.717 -21.524  0.00  0.00    -0.017 C 
ATOM      4  C   UNL     1      33.675 -14.601 -22.370  0.00  0.00    +0.079 C 
ATOM      5  C   UNL     1      33.192 -14.672 -21.066  0.00  0.00    +0.128 C 
ATOM      6  C   UNL     1      34.551 -16.306 -21.266  0.00  0.00    +0.183 C 
ATOM      7  C   UNL     1      32.263 -13.714 -20.627  0.00  0.00    +0.084 C 
ATOM      8  C   UNL     1      32.358 -12.673 -22.826  0.00  0.00    -0.005 C 
ATOM      9  C   UNL     1      33.283 -13.619 -23.281  0.00  0.00    +0.017 C 
ATOM     10  C   UNL     1      35.307 -16.022 -23.642  0.00  0.00    +0.120 C 
ENDROOT
BRANCH   3  11
ATOM     11  C   UNL     1      30.868 -11.689 -21.079  0.00  0.00    +0.120 C 
BRANCH  11  12
ATOM     12  N   UNL     1      31.528 -10.517 -20.496  0.00  0.00    -0.260 N 
ATOM     13  N   UNL     1      32.332  -9.153 -18.963  0.00  0.00    -0.394 NA
ATOM     14  C   UNL     1      32.061  -9.485 -21.202  0.00  0.00    +0.079 C 
ATOM     15  C   UNL     1      31.705 -10.289 -19.172  0.00  0.00    +0.164 C 
ATOM     16  C   UNL     1      32.562  -8.637 -20.218  0.00  0.00    +0.128 C 
ATOM     17  C   UNL     1      32.154  -9.214 -22.567  0.00  0.00    +0.017 C 
ATOM     18  C   UNL     1      31.239 -11.225 -18.129  0.00  0.00    +0.084 C 
ATOM     19  C   UNL     1      33.196  -7.443 -20.602  0.00  0.00    +0.086 C 
ATOM     20  C   UNL     1      32.787  -8.020 -22.930  0.00  0.00    -0.003 C 
ATOM     21  C   UNL     1      33.301  -7.150 -21.966  0.00  0.00    -0.019 C 
ENDBRANCH  11  12
ENDBRANCH   3  11
BRANCH   6  22
ATOM     22  C   UNL     1      35.385 -17.501 -21.023  0.00  0.00    +0.164 C 
BRANCH  22  23
ATOM     23  N   UNL     1      34.832 -18.756 -21.522  0.00  0.00    -0.326 N 
ATOM     24  H   UNL     1      34.557 -18.803 -22.467  0.00  0.00    +0.147 HD
BRANCH  23  25
ATOM     25  C   UNL     1      34.673 -19.876 -20.736  0.00  0.00    +0.045 C 
ATOM     26  C   UNL     1      33.390 -20.323 -20.352  0.00  0.00    +0.014 C 
ATOM     27  C   UNL     1      35.787 -20.615 -20.286  0.00  0.00    +0.014 C 
ATOM     28  C   UNL     1      33.230 -21.456 -19.555  0.00  0.00    +0.004 C 
ATOM     29  C   UNL     1      35.627 -21.748 -19.489  0.00  0.00    +0.004 C 
ATOM     30  C   UNL     1      34.348 -22.168 -19.123  0.00  0.00    +0.031 C 
BRANCH  30  33
ATOM     31  N   UNL     1      34.491 -23.328 -16.932  0.00  0.00    -0.343 N 
ATOM     32  N   UNL     1      33.731 -24.471 -18.823  0.00  0.00    -0.285 NA
ATOM     33  C   UNL     1      34.181 -23.349 -18.290  0.00  0.00    +0.117 C 
ATOM     34  H   UNL     1      34.370 -24.140 -16.387  0.00  0.00    +0.144 HD
ATOM     35  H   UNL     1      34.830 -22.503 -16.517  0.00  0.00    +0.144 HD
ATOM     36  H   UNL     1      33.617 -25.272 -18.261  0.00  0.00    +0.188 HD
ENDBRANCH  30  33
ENDBRANCH  23  25
ENDBRANCH  22  23
ENDBRANCH   6  22
TORSDOF 6
ENDMDL
MODEL 2
REMARK VINA RESULT:     -11.2      1.143      1.922
REMARK  Name = 445756
REMARK  6 active torsions:
REMARK  status: ('A' for Active; 'I' for Inactive)
REMARK    1  A    between atoms: C_3  and  C_11
REMARK    2  A    between atoms: C_6  and  C_22
REMARK    3  A    between atoms: C_11  and  N_12
REMARK    4  A    between atoms: C_22  and  N_23
REMARK    5  A    between atoms: N_23  and  C_25
REMARK    6  A    between atoms: C_30  and  C_33
REMARK                            x       y       z     vdW  Elec       q    Type
REMARK                         _______ _______ _______ _____ _____    ______ ____
ROOT
ATOM      1  N   UNL     1      34.351 -15.893 -21.510  0.00  0.00    -0.261 N 
ATOM      2  N   UNL     1      33.961 -14.942 -23.480  0.00  0.00    -0.392 NA
ATOM      3  C   UNL     1      31.842 -12.659 -21.415  0.00  0.00    -0.017 C 
ATOM      4  C   UNL     1      33.501 -14.849 -21.250  0.00  0.00    +0.079 C 
ATOM      5  C   UNL     1      33.273 -14.271 -22.497  0.00  0.00    +0.128 C 
ATOM      6  C   UNL     1      34.596 -15.908 -22.855  0.00  0.00    +0.183 C 
ATOM      7  C   UNL     1      32.427 -13.153 -22.588  0.00  0.00    +0.084 C 
ATOM      8  C   UNL     1      32.091 -13.260 -20.179  0.00  0.00    -0.005 C 
ATOM      9  C   UNL     1      32.930 -14.374 -20.069  0.00  0.00    +0.017 C 
ATOM     10  C   UNL     1      34.891 -16.812 -20.532  0.00  0.00    +0.120 C 
ENDROOT
BRANCH   3  11
ATOM     11  C   UNL     1      30.940 -11.471 -21.489  0.00  0.00    +0.120 C 
BRANCH  11  12
ATOM     12  N   UNL     1      31.551 -10.286 -20.877  0.00  0.00    -0.260 N 
ATOM     13  N   UNL     1      32.141  -8.840 -19.323  0.00  0.00    -0.394 NA
ATOM     14  C   UNL     1      32.262  -9.338 -21.544  0.00  0.00    +0.079 C 
ATOM     15  C   UNL     1      31.497  -9.961 -19.563  0.00  0.00    +0.164 C 
ATOM     16  C   UNL     1      32.624  -8.437 -20.546  0.00  0.00    +0.128 C 
ATOM     17  C   UNL     1      32.617  -9.181 -22.884  0.00  0.00    +0.017 C 
ATOM     18  C   UNL     1      30.796 -10.789 -18.561  0.00  0.00    +0.084 C 
ATOM     19  C   UNL     1      33.386  -7.307 -20.889  0.00  0.00    +0.086 C 
ATOM     20  C   UNL     1      33.374  -8.050 -23.206  0.00  0.00    -0.003 C 
ATOM     21  C   UNL     1      33.753  -7.129 -22.228  0.00  0.00    -0.019 C 
ENDBRANCH  11  12
ENDBRANCH   3  11
BRANCH   6  22
ATOM     22  C   UNL     1      35.478 -16.913 -23.482  0.00  0.00    +0.164 C 
BRANCH  22  23
ATOM     23  N   UNL     1      34.996 -18.288 -23.418  0.00  0.00    -0.326 N 
ATOM     24  H   UNL     1      34.483 -18.640 -24.182  0.00  0.00    +0.147 HD
BRANCH  23  25
ATOM     25  C   UNL     1      35.220 -19.118 -22.341  0.00  0.00    +0.045 C 
ATOM     26  C   UNL     1      34.167 -19.850 -21.751  0.00  0.00    +0.014 C 
ATOM     27  C   UNL     1      36.511 -19.264 -21.790  0.00  0.00    +0.014 C 
ATOM     28  C   UNL     1      34.394 -20.688 -20.661  0.00  0.00    +0.004 C 
ATOM     29  C   UNL     1      36.738 -20.103 -20.699  0.00  0.00    +0.004 C 
ATOM     30  C   UNL     1      35.680 -20.814 -20.134  0.00  0.00    +0.031 C 
BRANCH  30  33
ATOM     31  N   UNL     1      35.178 -22.855 -18.811  0.00  0.00    -0.343 N 
ATOM     32  N   UNL     1      36.846 -21.377 -18.109  0.00  0.00    -0.285 NA
ATOM     33  C   UNL     1      35.916 -21.688 -18.995  0.00  0.00    +0.117 C 
ATOM     34  H   UNL     1      35.355 -23.432 -18.033  0.00  0.00    +0.144 HD
ATOM     35  H   UNL     1      34.479 -23.103 -19.459  0.00  0.00    +0.144 HD
ATOM     36  H   UNL     1      37.008 -21.967 -17.337  0.00  0.00    +0.188 HD
ENDBRANCH  30  33
ENDBRANCH  23  25
ENDBRANCH  22  23
ENDBRANCH   6  22
TORSDOF 6
ENDMDL
MODEL 3
REMARK VINA RESULT:     -10.8      2.222     11.404
REMARK  Name = 445756
REMARK  6 active torsions:
REMARK  status: ('A' for Active; 'I' for Inactive)
REMARK    1  A    between atoms: C_3  and  C_11
REMARK    2  A    between atoms: C_6  and  C_22
REMARK    3  A    between atoms: C_11  and  N_12
REMARK    4  A    between atoms: C_22  and  N_23
REMARK    5  A    between atoms: N_23  and  C_25
REMARK    6  A    between atoms: C_30  and  C_33
REMARK                            x       y       z     vdW  Elec       q    Type
REMARK                         _______ _______ _______ _____ _____    ______ ____
ROOT
ATOM      1  N   UNL     1      32.854 -13.449 -21.060  0.00  0.00    -0.261 N 
ATOM      2  N   UNL     1      33.318 -13.607 -23.228  0.00  0.00    -0.392 NA
ATOM      3  C   UNL     1      34.823 -16.862 -22.173  0.00  0.00    -0.017 C 
ATOM      4  C   UNL     1      33.503 -14.648 -21.209  0.00  0.00    +0.079 C 
ATOM      5  C   UNL     1      33.782 -14.723 -22.571  0.00  0.00    +0.128 C 
ATOM      6  C   UNL     1      32.769 -12.865 -22.293  0.00  0.00    +0.183 C 
ATOM      7  C   UNL     1      34.455 -15.851 -23.070  0.00  0.00    +0.084 C 
ATOM      8  C   UNL     1      34.528 -16.758 -20.812  0.00  0.00    -0.005 C 
ATOM      9  C   UNL     1      33.858 -15.643 -20.297  0.00  0.00    +0.017 C 
ATOM     10  C   UNL     1      32.352 -12.904 -19.819  0.00  0.00    +0.120 C 
ENDROOT
BRANCH   3  11
ATOM     11  C   UNL     1      35.538 -18.070 -22.682  0.00  0.00    +0.120 C 
BRANCH  11  12
ATOM     12  N   UNL     1      35.807 -19.035 -21.611  0.00  0.00    -0.260 N 
ATOM     13  N   UNL     1      36.940 -20.206 -20.128  0.00  0.00    -0.394 NA
ATOM     14  C   UNL     1      34.873 -19.815 -21.005  0.00  0.00    +0.079 C 
ATOM     15  C   UNL     1      37.022 -19.291 -21.069  0.00  0.00    +0.164 C 
ATOM     16  C   UNL     1      35.608 -20.545 -20.075  0.00  0.00    +0.128 C 
ATOM     17  C   UNL     1      33.495 -19.953 -21.172  0.00  0.00    +0.017 C 
ATOM     18  C   UNL     1      38.256 -18.607 -21.506  0.00  0.00    +0.084 C 
ATOM     19  C   UNL     1      34.944 -21.471 -19.253  0.00  0.00    +0.086 C 
ATOM     20  C   UNL     1      32.851 -20.881 -20.347  0.00  0.00    -0.003 C 
ATOM     21  C   UNL     1      33.560 -21.627 -19.403  0.00  0.00    -0.019 C 
ENDBRANCH  11  12
ENDBRANCH   3  11
BRANCH   6  22
ATOM     22  C   UNL     1      32.124 -11.552 -22.497  0.00  0.00    +0.164 C 
BRANCH  22  23
ATOM     23  N   UNL     1      33.038 -10.449 -22.774  0.00  0.00    -0.326 N 
ATOM     24  H   UNL     1      33.985 -10.657 -22.946  0.00  0.00    +0.147 HD
BRANCH  23  25
ATOM     25  C   UNL     1      32.641  -9.129 -22.806  0.00  0.00    +0.045 C 
ATOM     26  C   UNL     1      33.587  -8.082 -22.804  0.00  0.00    +0.014 C 
ATOM     27  C   UNL     1      31.275  -8.779 -22.840  0.00  0.00    +0.014 C 
ATOM     28  C   UNL     1      33.186  -6.747 -22.834  0.00  0.00    +0.004 C 
ATOM     29  C   UNL     1      30.873  -7.444 -22.870  0.00  0.00    +0.004 C 
ATOM     30  C   UNL     1      31.828  -6.428 -22.866  0.00  0.00    +0.031 C 
BRANCH  30  33
ATOM     31  N   UNL     1      30.413  -4.560 -22.046  0.00  0.00    -0.343 N 
ATOM     32  N   UNL     1      31.975  -4.196 -23.746  0.00  0.00    -0.285 NA
ATOM     33  C   UNL     1      31.409  -5.036 -22.896  0.00  0.00    +0.117 C 
ATOM     34  H   UNL     1      30.145  -3.613 -22.083  0.00  0.00    +0.144 HD
ATOM     35  H   UNL     1      29.978  -5.170 -21.407  0.00  0.00    +0.144 HD
ATOM     36  H   UNL     1      31.692  -3.253 -23.768  0.00  0.00    +0.188 HD
ENDBRANCH  30  33
ENDBRANCH  23  25
ENDBRANCH  22  23
ENDBRANCH   6  22
TORSDOF 6
ENDMDL
MODEL 4
REMARK VINA RESULT:     -10.7      2.387     11.109
REMARK  Name = 445756
REMARK  6 active torsions:
REMARK  status: ('A' for Active; 'I' for Inactive)
REMARK    1  A    between atoms: C_3  and  C_11
REMARK    2  A    between atoms: C_6  and  C_22
REMARK    3  A    between atoms: C_11  and  N_12
REMARK    4  A    between atoms: C_22  and  N_23
REMARK    5  A    between atoms: N_23  and  C_25
REMARK    6  A    between atoms: C_30  and  C_33
REMARK                            x       y       z     vdW  Elec       q    Type
REMARK                         _______ _______ _______ _____ _____    ______ ____
ROOT
ATOM      1  N   UNL     1      35.868 -19.624 -20.641  0.00  0.00    -0.261 N 
ATOM      2  N   UNL     1      33.653 -19.806 -20.689  0.00  0.00    -0.392 NA
ATOM      3  C   UNL     1      34.346 -22.859 -18.646  0.00  0.00    -0.017 C 
ATOM      4  C   UNL     1      35.579 -20.756 -19.925  0.00  0.00    +0.079 C 
ATOM      5  C   UNL     1      34.190 -20.848 -19.969  0.00  0.00    +0.128 C 
ATOM      6  C   UNL     1      34.686 -19.092 -21.078  0.00  0.00    +0.183 C 
ATOM      7  C   UNL     1      33.554 -21.918 -19.318  0.00  0.00    +0.084 C 
ATOM      8  C   UNL     1      35.737 -22.738 -18.619  0.00  0.00    -0.005 C 
ATOM      9  C   UNL     1      36.387 -21.680 -19.261  0.00  0.00    +0.017 C 
ATOM     10  C   UNL     1      37.188 -19.090 -20.890  0.00  0.00    +0.120 C 
ENDROOT
BRANCH   3  11
ATOM     11  C   UNL     1      33.690 -24.004 -17.946  0.00  0.00    +0.120 C 
BRANCH  11  12
ATOM     12  N   UNL     1      33.368 -23.678 -16.554  0.00  0.00    -0.260 N 
ATOM     13  N   UNL     1      33.669 -23.267 -14.410  0.00  0.00    -0.394 NA
ATOM     14  C   UNL     1      32.120 -23.434 -16.074  0.00  0.00    +0.079 C 
ATOM     15  C   UNL     1      34.263 -23.572 -15.542  0.00  0.00    +0.164 C 
ATOM     16  C   UNL     1      32.332 -23.178 -14.722  0.00  0.00    +0.128 C 
ATOM     17  C   UNL     1      30.859 -23.412 -16.670  0.00  0.00    +0.017 C 
ATOM     18  C   UNL     1      35.714 -23.777 -15.730  0.00  0.00    +0.084 C 
ATOM     19  C   UNL     1      31.230 -22.880 -13.901  0.00  0.00    +0.086 C 
ATOM     20  C   UNL     1      29.775 -23.115 -15.837  0.00  0.00    -0.003 C 
ATOM     21  C   UNL     1      29.955 -22.853 -14.477  0.00  0.00    -0.019 C 
ENDBRANCH  11  12
ENDBRANCH   3  11
BRANCH   6  22
ATOM     22  C   UNL     1      34.631 -17.858 -21.888  0.00  0.00    +0.164 C 
BRANCH  22  23
ATOM     23  N   UNL     1      34.924 -16.627 -21.163  0.00  0.00    -0.326 N 
ATOM     24  H   UNL     1      35.725 -16.601 -20.590  0.00  0.00    +0.147 HD
BRANCH  23  25
ATOM     25  C   UNL     1      34.135 -15.499 -21.240  0.00  0.00    +0.045 C 
ATOM     26  C   UNL     1      34.292 -14.569 -22.289  0.00  0.00    +0.014 C 
ATOM     27  C   UNL     1      33.145 -15.235 -20.270  0.00  0.00    +0.014 C 
ATOM     28  C   UNL     1      33.495 -13.427 -22.365  0.00  0.00    +0.004 C 
ATOM     29  C   UNL     1      32.348 -14.093 -20.346  0.00  0.00    +0.004 C 
ATOM     30  C   UNL     1      32.523 -13.189 -21.393  0.00  0.00    +0.031 C 
BRANCH  30  33
ATOM     31  N   UNL     1      30.435 -11.950 -20.874  0.00  0.00    -0.343 N 
ATOM     32  N   UNL     1      32.129 -10.933 -22.122  0.00  0.00    -0.285 NA
ATOM     33  C   UNL     1      31.693 -11.997 -21.471  0.00  0.00    +0.117 C 
ATOM     34  H   UNL     1      29.889 -11.132 -20.940  0.00  0.00    +0.144 HD
ATOM     35  H   UNL     1      30.091 -12.733 -20.387  0.00  0.00    +0.144 HD
ATOM     36  H   UNL     1      31.568 -10.125 -22.177  0.00  0.00    +0.188 HD
ENDBRANCH  30  33
ENDBRANCH  23  25
ENDBRANCH  22  23
ENDBRANCH   6  22
TORSDOF 6
ENDMDL
MODEL 5
REMARK VINA RESULT:     -10.7      2.452      5.167
REMARK  Name = 445756
REMARK  6 active torsions:
REMARK  status: ('A' for Active; 'I' for Inactive)
REMARK    1  A    between atoms: C_3  and  C_11
REMARK    2  A    between atoms: C_6  and  C_22
REMARK    3  A    between atoms: C_11  and  N_12
REMARK    4  A    between atoms: C_22  and  N_23
REMARK    5  A    between atoms: N_23  and  C_25
REMARK    6  A    between atoms: C_30  and  C_33
REMARK                            x       y       z     vdW  Elec       q    Type
REMARK                         _______ _______ _______ _____ _____    ______ ____
ROOT
ATOM      1  N   UNL     1      32.187 -12.093 -21.440  0.00  0.00    -0.261 N 
ATOM      2  N   UNL     1      33.120 -11.025 -23.151  0.00  0.00    -0.392 NA
ATOM      3  C   UNL     1      32.506  -8.036 -20.992  0.00  0.00    -0.017 C 
ATOM      4  C   UNL     1      32.194 -10.769 -21.085  0.00  0.00    +0.079 C 
ATOM      5  C   UNL     1      32.781 -10.123 -22.169  0.00  0.00    +0.128 C 
ATOM      6  C   UNL     1      32.749 -12.195 -22.682  0.00  0.00    +0.183 C 
ATOM      7  C   UNL     1      32.944  -8.728 -22.129  0.00  0.00    +0.084 C 
ATOM      8  C   UNL     1      31.921  -8.713 -19.920  0.00  0.00    -0.005 C 
ATOM      9  C   UNL     1      31.751 -10.101 -19.942  0.00  0.00    +0.017 C 
ATOM     10  C   UNL     1      31.675 -13.184 -20.641  0.00  0.00    +0.120 C 
ENDROOT
BRANCH   3  11
ATOM     11  C   UNL     1      32.670  -6.553 -20.928  0.00  0.00    +0.120 C 
BRANCH  11  12
ATOM     12  N   UNL     1      32.155  -5.896 -22.133  0.00  0.00    -0.260 N 
ATOM     13  N   UNL     1      30.766  -4.813 -23.457  0.00  0.00    -0.394 NA
ATOM     14  C   UNL     1      32.828  -5.771 -23.307  0.00  0.00    +0.079 C 
ATOM     15  C   UNL     1      30.935  -5.318 -22.255  0.00  0.00    +0.164 C 
ATOM     16  C   UNL     1      31.936  -5.086 -24.127  0.00  0.00    +0.128 C 
ATOM     17  C   UNL     1      34.096  -6.177 -23.725  0.00  0.00    +0.017 C 
ATOM     18  C   UNL     1      29.952  -5.281 -21.154  0.00  0.00    +0.084 C 
ATOM     19  C   UNL     1      32.315  -4.779 -25.445  0.00  0.00    +0.086 C 
ATOM     20  C   UNL     1      34.456  -5.864 -25.040  0.00  0.00    -0.003 C 
ATOM     21  C   UNL     1      33.583  -5.177 -25.886  0.00  0.00    -0.019 C 
ENDBRANCH  11  12
ENDBRANCH   3  11
BRANCH   6  22
ATOM     22  C   UNL     1      32.900 -13.492 -23.372  0.00  0.00    +0.164 C 
BRANCH  22  23
ATOM     23  N   UNL     1      34.249 -14.048 -23.362  0.00  0.00    -0.326 N 
ATOM     24  H   UNL     1      34.977 -13.514 -23.756  0.00  0.00    +0.147 HD
BRANCH  23  25
ATOM     25  C   UNL     1      34.554 -15.282 -22.830  0.00  0.00    +0.045 C 
ATOM     26  C   UNL     1      34.952 -16.355 -23.655  0.00  0.00    +0.014 C 
ATOM     27  C   UNL     1      34.475 -15.516 -21.440  0.00  0.00    +0.014 C 
ATOM     28  C   UNL     1      35.259 -17.604 -23.117  0.00  0.00    +0.004 C 
ATOM     29  C   UNL     1      34.782 -16.766 -20.902  0.00  0.00    +0.004 C 
ATOM     30  C   UNL     1      35.173 -17.809 -21.740  0.00  0.00    +0.031 C 
BRANCH  30  33
ATOM     31  N   UNL     1      36.731 -19.369 -20.597  0.00  0.00    -0.343 N 
ATOM     32  N   UNL     1      34.595 -20.083 -21.218  0.00  0.00    -0.285 NA
ATOM     33  C   UNL     1      35.491 -19.113 -21.179  0.00  0.00    +0.117 C 
ATOM     34  H   UNL     1      36.925 -20.259 -20.223  0.00  0.00    +0.144 HD
ATOM     35  H   UNL     1      37.413 -18.660 -20.560  0.00  0.00    +0.144 HD
ATOM     36  H   UNL     1      34.808 -20.967 -20.838  0.00  0.00    +0.188 HD
ENDBRANCH  30  33
ENDBRANCH  23  25
ENDBRANCH  22  23
ENDBRANCH   6  22
TORSDOF 6
ENDMDL
MODEL 6
REMARK VINA RESULT:     -10.5      5.235     13.032
REMARK  Name = 445756
REMARK  6 active torsions:
REMARK  status: ('A' for Active; 'I' for Inactive)
REMARK    1  A    between atoms: C_3  and  C_11
REMARK    2  A    between atoms: C_6  and  C_22
REMARK    3  A    between atoms: C_11  and  N_12
REMARK    4  A    between atoms: C_22  and  N_23
REMARK    5  A    between atoms: N_23  and  C_25
REMARK    6  A    between atoms: C_30  and  C_33
REMARK                            x       y       z     vdW  Elec       q    Type
REMARK                         _______ _______ _______ _____ _____    ______ ____
ROOT
ATOM      1  N   UNL     1      34.631 -22.710 -18.291  0.00  0.00    -0.261 N 
ATOM      2  N   UNL     1      36.482 -21.571 -17.826  0.00  0.00    -0.392 NA
ATOM      3  C   UNL     1      36.019 -23.133 -14.462  0.00  0.00    -0.017 C 
ATOM      4  C   UNL     1      34.914 -22.991 -16.979  0.00  0.00    +0.079 C 
ATOM      5  C   UNL     1      36.074 -22.268 -16.713  0.00  0.00    +0.128 C 
ATOM      6  C   UNL     1      35.595 -21.858 -18.752  0.00  0.00    +0.183 C 
ATOM      7  C   UNL     1      36.644 -22.336 -15.430  0.00  0.00    +0.084 C 
ATOM      8  C   UNL     1      34.857 -23.847 -14.760  0.00  0.00    -0.005 C 
ATOM      9  C   UNL     1      34.276 -23.792 -16.031  0.00  0.00    +0.017 C 
ATOM     10  C   UNL     1      33.512 -23.226 -19.047  0.00  0.00    +0.120 C 
ENDROOT
BRANCH   3  11
ATOM     11  C   UNL     1      36.609 -23.221 -13.093  0.00  0.00    +0.120 C 
BRANCH  11  12
ATOM     12  N   UNL     1      37.255 -24.516 -12.861  0.00  0.00    -0.260 N 
ATOM     13  N   UNL     1      37.649 -26.495 -11.975  0.00  0.00    -0.394 NA
ATOM     14  C   UNL     1      38.338 -24.984 -13.537  0.00  0.00    +0.079 C 
ATOM     15  C   UNL     1      36.872 -25.435 -11.941  0.00  0.00    +0.164 C 
ATOM     16  C   UNL     1      38.569 -26.232 -12.963  0.00  0.00    +0.128 C 
ATOM     17  C   UNL     1      39.118 -24.457 -14.566  0.00  0.00    +0.017 C 
ATOM     18  C   UNL     1      35.721 -25.233 -11.038  0.00  0.00    +0.084 C 
ATOM     19  C   UNL     1      39.639 -27.013 -13.434  0.00  0.00    +0.086 C 
ATOM     20  C   UNL     1      40.178 -25.248 -15.020  0.00  0.00    -0.003 C 
ATOM     21  C   UNL     1      40.436 -26.504 -14.466  0.00  0.00    -0.019 C 
ENDBRANCH  11  12
ENDBRANCH   3  11
BRANCH   6  22
ATOM     22  C   UNL     1      35.594 -21.348 -20.139  0.00  0.00    +0.164 C 
BRANCH  22  23
ATOM     23  N   UNL     1      36.156 -20.012 -20.309  0.00  0.00    -0.326 N 
ATOM     24  H   UNL     1      36.870 -19.723 -19.695  0.00  0.00    +0.147 HD
BRANCH  23  25
ATOM     25  C   UNL     1      35.736 -19.135 -21.284  0.00  0.00    +0.045 C 
ATOM     26  C   UNL     1      35.518 -19.567 -22.610  0.00  0.00    +0.014 C 
ATOM     27  C   UNL     1      35.511 -17.773 -20.992  0.00  0.00    +0.014 C 
ATOM     28  C   UNL     1      35.094 -18.678 -23.598  0.00  0.00    +0.004 C 
ATOM     29  C   UNL     1      35.087 -16.884 -21.980  0.00  0.00    +0.004 C 
ATOM     30  C   UNL     1      34.880 -17.336 -23.282  0.00  0.00    +0.031 C 
BRANCH  30  33
ATOM     31  N   UNL     1      34.036 -15.113 -23.997  0.00  0.00    -0.343 N 
ATOM     32  N   UNL     1      34.413 -16.793 -25.577  0.00  0.00    -0.285 NA
ATOM     33  C   UNL     1      34.439 -16.409 -24.313  0.00  0.00    +0.117 C 
ATOM     34  H   UNL     1      33.742 -14.501 -24.711  0.00  0.00    +0.144 HD
ATOM     35  H   UNL     1      34.046 -14.808 -23.061  0.00  0.00    +0.144 HD
ATOM     36  H   UNL     1      34.116 -16.166 -26.276  0.00  0.00    +0.188 HD
ENDBRANCH  30  33
ENDBRANCH  23  25
ENDBRANCH  22  23
ENDBRANCH   6  22
TORSDOF 6
ENDMDL
MODEL 7
REMARK VINA RESULT:     -10.5      4.721     12.928
REMARK  Name = 445756
REMARK  6 active torsions:
REMARK  status: ('A' for Active; 'I' for Inactive)
REMARK    1  A    between atoms: C_3  and  C_11
REMARK    2  A    between atoms: C_6  and  C_22
REMARK    3  A    between atoms: C_11  and  N_12
REMARK    4  A    between atoms: C_22  and  N_23
REMARK    5  A    between atoms: N_23  and  C_25
REMARK    6  A    between atoms: C_30  and  C_33
REMARK                            x       y       z     vdW  Elec       q    Type
REMARK                         _______ _______ _______ _____ _____    ______ ____
ROOT
ATOM      1  N   UNL     1      34.632 -22.015 -18.549  0.00  0.00    -0.261 N 
ATOM      2  N   UNL     1      36.778 -21.482 -18.769  0.00  0.00    -0.392 NA
ATOM      3  C   UNL     1      37.094 -23.466 -15.617  0.00  0.00    -0.017 C 
ATOM      4  C   UNL     1      35.264 -22.593 -17.479  0.00  0.00    +0.079 C 
ATOM      5  C   UNL     1      36.603 -22.246 -17.639  0.00  0.00    +0.128 C 
ATOM      6  C   UNL     1      35.578 -21.362 -19.290  0.00  0.00    +0.183 C 
ATOM      7  C   UNL     1      37.543 -22.688 -16.693  0.00  0.00    +0.084 C 
ATOM      8  C   UNL     1      35.744 -23.798 -15.485  0.00  0.00    -0.005 C 
ATOM      9  C   UNL     1      34.794 -23.367 -16.417  0.00  0.00    +0.017 C 
ATOM     10  C   UNL     1      33.217 -22.085 -18.840  0.00  0.00    +0.120 C 
ENDROOT
BRANCH   3  11
ATOM     11  C   UNL     1      38.076 -23.948 -14.600  0.00  0.00    +0.120 C 
BRANCH  11  12
ATOM     12  N   UNL     1      37.444 -24.819 -13.604  0.00  0.00    -0.260 N 
ATOM     13  N   UNL     1      36.631 -26.649 -12.685  0.00  0.00    -0.394 NA
ATOM     14  C   UNL     1      36.999 -24.420 -12.383  0.00  0.00    +0.079 C 
ATOM     15  C   UNL     1      37.210 -26.145 -13.752  0.00  0.00    +0.164 C 
ATOM     16  C   UNL     1      36.491 -25.588 -11.820  0.00  0.00    +0.128 C 
ATOM     17  C   UNL     1      36.991 -23.187 -11.729  0.00  0.00    +0.017 C 
ATOM     18  C   UNL     1      37.577 -26.892 -14.972  0.00  0.00    +0.084 C 
ATOM     19  C   UNL     1      35.938 -25.540 -10.530  0.00  0.00    +0.086 C 
ATOM     20  C   UNL     1      36.435 -23.160 -10.446  0.00  0.00    -0.003 C 
ATOM     21  C   UNL     1      35.918 -24.314  -9.854  0.00  0.00    -0.019 C 
ENDBRANCH  11  12
ENDBRANCH   3  11
BRANCH   6  22
ATOM     22  C   UNL     1      35.238 -20.624 -20.523  0.00  0.00    +0.164 C 
BRANCH  22  23
ATOM     23  N   UNL     1      35.769 -19.268 -20.601  0.00  0.00    -0.326 N 
ATOM     24  H   UNL     1      36.444 -18.991 -19.939  0.00  0.00    +0.147 HD
BRANCH  23  25
ATOM     25  C   UNL     1      35.372 -18.354 -21.553  0.00  0.00    +0.045 C 
ATOM     26  C   UNL     1      35.299 -18.706 -22.917  0.00  0.00    +0.014 C 
ATOM     27  C   UNL     1      35.027 -17.033 -21.196  0.00  0.00    +0.014 C 
ATOM     28  C   UNL     1      34.899 -17.781 -23.881  0.00  0.00    +0.004 C 
ATOM     29  C   UNL     1      34.627 -16.107 -22.160  0.00  0.00    +0.004 C 
ATOM     30  C   UNL     1      34.564 -16.481 -23.502  0.00  0.00    +0.031 C 
BRANCH  30  33
ATOM     31  N   UNL     1      33.803 -14.211 -24.160  0.00  0.00    -0.343 N 
ATOM     32  N   UNL     1      34.089 -15.872 -25.778  0.00  0.00    -0.285 NA
ATOM     33  C   UNL     1      34.148 -15.515 -24.507  0.00  0.00    +0.117 C 
ATOM     34  H   UNL     1      33.525 -13.573 -24.856  0.00  0.00    +0.144 HD
ATOM     35  H   UNL     1      33.838 -13.926 -23.218  0.00  0.00    +0.144 HD
ATOM     36  H   UNL     1      33.808 -15.219 -26.460  0.00  0.00    +0.188 HD
ENDBRANCH  30  33
ENDBRANCH  23  25
ENDBRANCH  22  23
ENDBRANCH   6  22
TORSDOF 6
ENDMDL
MODEL 8
REMARK VINA RESULT:     -10.5      3.451      6.406
REMARK  Name = 445756
REMARK  6 active torsions:
REMARK  status: ('A' for Active; 'I' for Inactive)
REMARK    1  A    between atoms: C_3  and  C_11
REMARK    2  A    between atoms: C_6  and  C_22
REMARK    3  A    between atoms: C_11  and  N_12
REMARK    4  A    between atoms: C_22  and  N_23
REMARK    5  A    between atoms: N_23  and  C_25
REMARK    6  A    between atoms: C_30  and  C_33
REMARK                            x       y       z     vdW  Elec       q    Type
REMARK                         _______ _______ _______ _____ _____    ______ ____
ROOT
ATOM      1  N   UNL     1      35.535 -20.993 -19.872  0.00  0.00    -0.261 N 
ATOM      2  N   UNL     1      33.626 -20.782 -20.990  0.00  0.00    -0.392 NA
ATOM      3  C   UNL     1      35.508 -18.062 -22.730  0.00  0.00    -0.017 C 
ATOM      4  C   UNL     1      35.744 -19.972 -20.763  0.00  0.00    +0.079 C 
ATOM      5  C   UNL     1      34.537 -19.860 -21.449  0.00  0.00    +0.128 C 
ATOM      6  C   UNL     1      34.256 -21.444 -20.045  0.00  0.00    +0.183 C 
ATOM      7  C   UNL     1      34.410 -18.888 -22.455  0.00  0.00    +0.084 C 
ATOM      8  C   UNL     1      36.705 -18.199 -22.025  0.00  0.00    -0.005 C 
ATOM      9  C   UNL     1      36.851 -19.162 -21.021  0.00  0.00    +0.017 C 
ATOM     10  C   UNL     1      36.498 -21.500 -18.920  0.00  0.00    +0.120 C 
ENDROOT
BRANCH   3  11
ATOM     11  C   UNL     1      35.394 -17.022 -23.796  0.00  0.00    +0.120 C 
BRANCH  11  12
ATOM     12  N   UNL     1      34.393 -16.005 -23.460  0.00  0.00    -0.260 N 
ATOM     13  N   UNL     1      32.835 -14.472 -23.742  0.00  0.00    -0.394 NA
ATOM     14  C   UNL     1      34.071 -15.608 -22.200  0.00  0.00    +0.079 C 
ATOM     15  C   UNL     1      33.643 -15.312 -24.350  0.00  0.00    +0.164 C 
ATOM     16  C   UNL     1      33.089 -14.643 -22.400  0.00  0.00    +0.128 C 
ATOM     17  C   UNL     1      34.528 -15.986 -20.937  0.00  0.00    +0.017 C 
ATOM     18  C   UNL     1      33.749 -15.508 -25.810  0.00  0.00    +0.084 C 
ATOM     19  C   UNL     1      32.517 -14.007 -21.285  0.00  0.00    +0.086 C 
ATOM     20  C   UNL     1      33.949 -15.342 -19.839  0.00  0.00    -0.003 C 
ATOM     21  C   UNL     1      32.960 -14.370 -20.008  0.00  0.00    -0.019 C 
ENDBRANCH  11  12
ENDBRANCH   3  11
BRANCH   6  22
ATOM     22  C   UNL     1      33.696 -22.548 -19.239  0.00  0.00    +0.164 C 
BRANCH  22  23
ATOM     23  N   UNL     1      32.732 -22.146 -18.221  0.00  0.00    -0.326 N 
ATOM     24  H   UNL     1      32.195 -21.336 -18.380  0.00  0.00    +0.147 HD
BRANCH  23  25
ATOM     25  C   UNL     1      32.538 -22.842 -17.048  0.00  0.00    +0.045 C 
ATOM     26  C   UNL     1      31.246 -23.012 -16.505  0.00  0.00    +0.014 C 
ATOM     27  C   UNL     1      33.625 -23.407 -16.347  0.00  0.00    +0.014 C 
ATOM     28  C   UNL     1      31.051 -23.714 -15.316  0.00  0.00    +0.004 C 
ATOM     29  C   UNL     1      33.429 -24.109 -15.158  0.00  0.00    +0.004 C 
ATOM     30  C   UNL     1      32.142 -24.263 -14.643  0.00  0.00    +0.031 C 
BRANCH  30  33
ATOM     31  N   UNL     1      30.664 -25.374 -12.986  0.00  0.00    -0.343 N 
ATOM     32  N   UNL     1      32.975 -25.308 -12.645  0.00  0.00    -0.285 NA
ATOM     33  C   UNL     1      31.938 -24.995 -13.403  0.00  0.00    +0.117 C 
ATOM     34  H   UNL     1      30.549 -25.869 -12.142  0.00  0.00    +0.144 HD
ATOM     35  H   UNL     1      29.878 -25.147 -13.534  0.00  0.00    +0.144 HD
ATOM     36  H   UNL     1      32.839 -25.804 -11.805  0.00  0.00    +0.188 HD
ENDBRANCH  30  33
ENDBRANCH  23  25
ENDBRANCH  22  23
ENDBRANCH   6  22
TORSDOF 6
ENDMDL
MODEL 9
REMARK VINA RESULT:     -10.5      2.480     11.468
REMARK  Name = 445756
REMARK  6 active torsions:
REMARK  status: ('A' for Active; 'I' for Inactive)
REMARK    1  A    between atoms: C_3  and  C_11
REMARK    2  A    between atoms: C_6  and  C_22
REMARK    3  A    between atoms: C_11  and  N_12
REMARK    4  A    between atoms: C_22  and  N_23
REMARK    5  A    between atoms: N_23  and  C_25
REMARK    6  A    between atoms: C_30  and  C_33
REMARK                            x       y       z     vdW  Elec       q    Type
REMARK                         _______ _______ _______ _____ _____    ______ ____
ROOT
ATOM      1  N   UNL     1      35.862 -19.897 -20.406  0.00  0.00    -0.261 N 
ATOM      2  N   UNL     1      33.669 -20.101 -20.702  0.00  0.00    -0.392 NA
ATOM      3  C   UNL     1      34.120 -23.017 -18.408  0.00  0.00    -0.017 C 
ATOM      4  C   UNL     1      35.492 -20.986 -19.660  0.00  0.00    +0.079 C 
ATOM      5  C   UNL     1      34.118 -21.092 -19.861  0.00  0.00    +0.128 C 
ATOM      6  C   UNL     1      34.740 -19.403 -21.010  0.00  0.00    +0.183 C 
ATOM      7  C   UNL     1      33.411 -22.126 -19.225  0.00  0.00    +0.084 C 
ATOM      8  C   UNL     1      35.498 -22.884 -18.226  0.00  0.00    -0.005 C 
ATOM      9  C   UNL     1      36.218 -21.861 -18.850  0.00  0.00    +0.017 C 
ATOM     10  C   UNL     1      37.202 -19.368 -20.530  0.00  0.00    +0.120 C 
ENDROOT
BRANCH   3  11
ATOM     11  C   UNL     1      33.388 -24.123 -17.721  0.00  0.00    +0.120 C 
BRANCH  11  12
ATOM     12  N   UNL     1      33.260 -23.879 -16.282  0.00  0.00    -0.260 N 
ATOM     13  N   UNL     1      32.373 -23.232 -14.371  0.00  0.00    -0.394 NA
ATOM     14  C   UNL     1      34.201 -24.180 -15.348  0.00  0.00    +0.079 C 
ATOM     15  C   UNL     1      32.189 -23.317 -15.670  0.00  0.00    +0.164 C 
ATOM     16  C   UNL     1      33.622 -23.765 -14.151  0.00  0.00    +0.128 C 
ATOM     17  C   UNL     1      35.468 -24.760 -15.426  0.00  0.00    +0.017 C 
ATOM     18  C   UNL     1      30.988 -22.874 -16.405  0.00  0.00    +0.084 C 
ATOM     19  C   UNL     1      34.336 -23.931 -12.953  0.00  0.00    +0.086 C 
ATOM     20  C   UNL     1      36.164 -24.916 -14.223  0.00  0.00    -0.003 C 
ATOM     21  C   UNL     1      35.610 -24.510 -13.007  0.00  0.00    -0.019 C 
ENDBRANCH  11  12
ENDBRANCH   3  11
BRANCH   6  22
ATOM     22  C   UNL     1      34.778 -18.222 -21.895  0.00  0.00    +0.164 C 
BRANCH  22  23
ATOM     23  N   UNL     1      35.126 -16.966 -21.239  0.00  0.00    -0.326 N 
ATOM     24  H   UNL     1      35.943 -16.936 -20.690  0.00  0.00    +0.147 HD
BRANCH  23  25
ATOM     25  C   UNL     1      34.367 -15.821 -21.349  0.00  0.00    +0.045 C 
ATOM     26  C   UNL     1      33.431 -15.467 -20.354  0.00  0.00    +0.014 C 
ATOM     27  C   UNL     1      34.498 -14.964 -22.462  0.00  0.00    +0.014 C 
ATOM     28  C   UNL     1      32.662 -14.310 -20.467  0.00  0.00    +0.004 C 
ATOM     29  C   UNL     1      33.729 -13.806 -22.575  0.00  0.00    +0.004 C 
ATOM     30  C   UNL     1      32.811 -13.479 -21.578  0.00  0.00    +0.031 C 
BRANCH  30  33
ATOM     31  N   UNL     1      32.458 -11.170 -22.419  0.00  0.00    -0.343 N 
ATOM     32  N   UNL     1      30.826 -12.207 -21.107  0.00  0.00    -0.285 NA
ATOM     33  C   UNL     1      32.007 -12.272 -21.696  0.00  0.00    +0.117 C 
ATOM     34  H   UNL     1      31.897 -10.362 -22.486  0.00  0.00    +0.144 HD
ATOM     35  H   UNL     1      33.336 -11.197 -22.863  0.00  0.00    +0.144 HD
ATOM     36  H   UNL     1      30.281 -11.391 -21.186  0.00  0.00    +0.188 HD
ENDBRANCH  30  33
ENDBRANCH  23  25
ENDBRANCH  22  23
ENDBRANCH   6  22
TORSDOF 6
ENDMDL
