MODEL 1
REMARK VINA RESULT:     -11.2      0.000      0.000
REMARK  Name = 104758
REMARK  11 active torsions:
REMARK  status: ('A' for Active; 'I' for Inactive)
REMARK    1  A    between atoms: C_2  and  N_21
REMARK    2  A    between atoms: C_3  and  C_8
REMARK    3  A    between atoms: N_7  and  CA_10
REMARK    4  A    between atoms: CA_10  and  C_12
REMARK    5  A    between atoms: CA_10  and  CB_15
REMARK    6  A    between atoms: C_12  and  O_13
REMARK    7  A    between atoms: CB_15  and  CG_16
REMARK    8  A    between atoms: CG_16  and  CD_18
REMARK    9  A    between atoms: CD_18  and  OE1_19
REMARK   10  A    between atoms: N_21  and  C_23
REMARK   11  A    between atoms: C_23  and  C_27
REMARK                            x       y       z     vdW  Elec       q    Type
REMARK                         _______ _______ _______ _____ _____    ______ ____
ROOT
ATOM      1  S   UNL     1      35.075 -21.765 -19.179  0.00  0.00    -0.068 S 
ATOM      2  C   UNL     1      34.732 -20.609 -20.395  0.00  0.00    +0.079 C 
ATOM      3  C   UNL     1      33.411 -21.984 -18.842  0.00  0.00    +0.084 C 
ATOM      4  C   UNL     1      33.379 -20.396 -20.538  0.00  0.00    +0.022 C 
ATOM      5  C   UNL     1      32.613 -21.193 -19.639  0.00  0.00    +0.013 C 
ENDROOT
BRANCH   3   8
ATOM      6  O   UNL     1      33.684 -23.933 -17.522  0.00  0.00    -0.270 OA
ATOM      7  N   UNL     1      31.807 -22.661 -17.154  0.00  0.00    -0.293 N 
ATOM      8  C   ACE A   0      33.024 -22.909 -17.826  0.00  0.00    +0.252 C 
ATOM      9  H   UNL     1      31.297 -21.856 -17.401  0.00  0.00    +0.150 HD
BRANCH   7  10
ATOM     10  CA  UNL     1      31.269 -23.522 -16.126  0.00  0.00    +0.172 C 
BRANCH  10  12
ATOM     11  OXT UNL     1      29.105 -22.462 -16.474  0.00  0.00    -0.248 OA
ATOM     12  C   UNL     1      29.758 -23.466 -16.225  0.00  0.00    +0.332 C 
BRANCH  12  13
ATOM     13  O   UNL     1      29.192 -24.687 -16.040  0.00  0.00    -0.479 OA
ATOM     14  H   UNL     1      28.542 -24.808 -15.376  0.00  0.00    +0.295 HD
ENDBRANCH  12  13
ENDBRANCH  10  12
BRANCH  10  15
ATOM     15  CB  UNL     1      31.810 -23.188 -14.731  0.00  0.00    +0.043 C 
BRANCH  15  16
ATOM     16  CG  UNL     1      30.951 -23.657 -13.550  0.00  0.00    +0.112 C 
BRANCH  16  18
ATOM     17  OE2 UNL     1      32.172 -25.605 -12.743  0.00  0.00    -0.250 OA
ATOM     18  CD  UNL     1      31.147 -25.115 -13.194  0.00  0.00    +0.314 C 
BRANCH  18  19
ATOM     19  OE1 UNL     1      30.039 -25.851 -13.477  0.00  0.00    -0.480 OA
ATOM     20  HE1 UNL     1      29.333 -25.468 -13.959  0.00  0.00    +0.295 HD
ENDBRANCH  18  19
ENDBRANCH  16  18
ENDBRANCH  15  16
ENDBRANCH  10  15
ENDBRANCH   7  10
ENDBRANCH   3   8
BRANCH   2  21
ATOM     21  N   UNL     1      35.746 -19.993 -21.117  0.00  0.00    -0.297 N 
ATOM     22  C   UNL     1      37.082 -19.827 -20.540  0.00  0.00    +0.113 C 
BRANCH  21  23
ATOM     23  C   UNL     1      35.541 -19.497 -22.460  0.00  0.00    +0.118 C 
BRANCH  23  27
ATOM     24  O   UNL     1      34.186 -15.930 -25.924  0.00  0.00    -0.209 OA
ATOM     25  N   UNL     1      34.139 -13.985 -22.419  0.00  0.00    -0.290 N 
ATOM     26  N   UNL     1      33.833 -13.973 -24.783  0.00  0.00    -0.322 NA
ATOM     27  C   UNL     1      35.174 -18.051 -22.444  0.00  0.00    -0.002 C 
ATOM     28  C   UNL     1      34.513 -16.045 -23.611  0.00  0.00    +0.108 C 
ATOM     29  C   UNL     1      34.855 -17.400 -23.636  0.00  0.00    +0.011 C 
ATOM     30  C   UNL     1      34.487 -15.337 -22.401  0.00  0.00    +0.062 C 
ATOM     31  C   UNL     1      35.151 -17.352 -21.236  0.00  0.00    -0.001 C 
ATOM     32  C   UNL     1      34.808 -15.999 -21.213  0.00  0.00    +0.015 C 
ATOM     33  C   UNL     1      34.166 -15.315 -24.862  0.00  0.00    +0.207 C 
ATOM     34  C   UNL     1      33.835 -13.389 -23.620  0.00  0.00    +0.174 C 
ATOM     35  C   UNL     1      33.468 -11.926 -23.572  0.00  0.00    +0.085 C 
ATOM     36  H   UNL     1      34.113 -13.465 -21.583  0.00  0.00    +0.154 HD
ENDBRANCH  23  27
ENDBRANCH  21  23
ENDBRANCH   2  21
TORSDOF 11
ENDMDL
MODEL 2
REMARK VINA RESULT:     -11.1      3.811      4.868
REMARK  Name = 104758
REMARK  11 active torsions:
REMARK  status: ('A' for Active; 'I' for Inactive)
REMARK    1  A    between atoms: C_2  and  N_21
REMARK    2  A    between atoms: C_3  and  C_8
REMARK    3  A    between atoms: N_7  and  CA_10
REMARK    4  A    between atoms: CA_10  and  C_12
REMARK    5  A    between atoms: CA_10  and  CB_15
REMARK    6  A    between atoms: C_12  and  O_13
REMARK    7  A    between atoms: CB_15  and  CG_16
REMARK    8  A    between atoms: CG_16  and  CD_18
REMARK    9  A    between atoms: CD_18  and  OE1_19
REMARK   10  A    between atoms: N_21  and  C_23
REMARK   11  A    between atoms: C_23  and  C_27
REMARK                            x       y       z     vdW  Elec       q    Type
REMARK                         _______ _______ _______ _____ _____    ______ ____
ROOT
ATOM      1  S   UNL     1      36.237 -21.990 -17.869  0.00  0.00    -0.068 S 
ATOM      2  C   UNL     1      34.760 -21.877 -18.729  0.00  0.00    +0.079 C 
ATOM      3  C   UNL     1      35.548 -23.054 -16.718  0.00  0.00    +0.084 C 
ATOM      4  C   UNL     1      33.766 -22.633 -18.149  0.00  0.00    +0.022 C 
ATOM      5  C   UNL     1      34.222 -23.315 -16.985  0.00  0.00    +0.013 C 
ENDROOT
BRANCH   3   8
ATOM      6  O   UNL     1      37.131 -22.822 -14.971  0.00  0.00    -0.270 OA
ATOM      7  N   UNL     1      36.304 -24.925 -15.376  0.00  0.00    -0.293 N 
ATOM      8  C   ACE A   0      36.359 -23.542 -15.651  0.00  0.00    +0.252 C 
ATOM      9  H   UNL     1      35.696 -25.481 -15.915  0.00  0.00    +0.150 HD
BRANCH   7  10
ATOM     10  CA  UNL     1      37.088 -25.571 -14.348  0.00  0.00    +0.172 C 
BRANCH  10  12
ATOM     11  OXT UNL     1      38.340 -27.659 -14.393  0.00  0.00    -0.248 OA
ATOM     12  C   UNL     1      37.449 -26.955 -14.848  0.00  0.00    +0.332 C 
BRANCH  12  13
ATOM     13  O   UNL     1      36.633 -27.358 -15.857  0.00  0.00    -0.479 OA
ATOM     14  H   UNL     1      36.845 -27.148 -16.745  0.00  0.00    +0.295 HD
ENDBRANCH  12  13
ENDBRANCH  10  12
BRANCH  10  15
ATOM     15  CB  UNL     1      36.391 -25.569 -12.982  0.00  0.00    +0.043 C 
BRANCH  15  16
ATOM     16  CG  UNL     1      37.275 -25.211 -11.781  0.00  0.00    +0.112 C 
BRANCH  16  18
ATOM     17  OE2 UNL     1      38.543 -23.217 -11.187  0.00  0.00    -0.250 OA
ATOM     18  CD  UNL     1      37.521 -23.727 -11.626  0.00  0.00    +0.314 C 
BRANCH  18  19
ATOM     19  OE1 UNL     1      36.437 -22.998 -12.002  0.00  0.00    -0.480 OA
ATOM     20  HE1 UNL     1      36.076 -23.104 -12.861  0.00  0.00    +0.295 HD
ENDBRANCH  18  19
ENDBRANCH  16  18
ENDBRANCH  15  16
ENDBRANCH  10  15
ENDBRANCH   7  10
ENDBRANCH   3   8
BRANCH   2  21
ATOM     21  N   UNL     1      34.644 -21.096 -19.871  0.00  0.00    -0.297 N 
ATOM     22  C   UNL     1      33.328 -20.725 -20.395  0.00  0.00    +0.113 C 
BRANCH  21  23
ATOM     23  C   UNL     1      35.801 -20.608 -20.590  0.00  0.00    +0.118 C 
BRANCH  23  27
ATOM     24  O   UNL     1      34.563 -15.646 -19.952  0.00  0.00    -0.209 OA
ATOM     25  N   UNL     1      34.420 -16.208 -23.919  0.00  0.00    -0.290 N 
ATOM     26  N   UNL     1      34.184 -14.767 -22.035  0.00  0.00    -0.322 NA
ATOM     27  C   UNL     1      35.438 -19.457 -21.467  0.00  0.00    -0.002 C 
ATOM     28  C   UNL     1      34.819 -17.141 -21.733  0.00  0.00    +0.108 C 
ATOM     29  C   UNL     1      35.157 -18.212 -20.903  0.00  0.00    +0.011 C 
ATOM     30  C   UNL     1      34.761 -17.305 -23.124  0.00  0.00    +0.062 C 
ATOM     31  C   UNL     1      35.383 -19.628 -22.851  0.00  0.00    -0.001 C 
ATOM     32  C   UNL     1      35.045 -18.556 -23.679  0.00  0.00    +0.015 C 
ATOM     33  C   UNL     1      34.513 -15.796 -21.170  0.00  0.00    +0.207 C 
ATOM     34  C   UNL     1      34.150 -15.004 -23.314  0.00  0.00    +0.174 C 
ATOM     35  C   UNL     1      33.787 -13.858 -24.228  0.00  0.00    +0.085 C 
ATOM     36  H   UNL     1      34.373 -16.297 -24.898  0.00  0.00    +0.154 HD
ENDBRANCH  23  27
ENDBRANCH  21  23
ENDBRANCH   2  21
TORSDOF 11
ENDMDL
MODEL 3
REMARK VINA RESULT:     -11.0      2.572      3.108
REMARK  Name = 104758
REMARK  11 active torsions:
REMARK  status: ('A' for Active; 'I' for Inactive)
REMARK    1  A    between atoms: C_2  and  N_21
REMARK    2  A    between atoms: C_3  and  C_8
REMARK    3  A    between atoms: N_7  and  CA_10
REMARK    4  A    between atoms: CA_10  and  C_12
REMARK    5  A    between atoms: CA_10  and  CB_15
REMARK    6  A    between atoms: C_12  and  O_13
REMARK    7  A    between atoms: CB_15  and  CG_16
REMARK    8  A    between atoms: CG_16  and  CD_18
REMARK    9  A    between atoms: CD_18  and  OE1_19
REMARK   10  A    between atoms: N_21  and  C_23
REMARK   11  A    between atoms: C_23  and  C_27
REMARK                            x       y       z     vdW  Elec       q    Type
REMARK                         _______ _______ _______ _____ _____    ______ ____
ROOT
ATOM      1  S   UNL     1      35.642 -21.930 -19.174  0.00  0.00    -0.068 S 
ATOM      2  C   UNL     1      35.003 -20.735 -20.221  0.00  0.00    +0.079 C 
ATOM      3  C   UNL     1      34.079 -22.358 -18.621  0.00  0.00    +0.084 C 
ATOM      4  C   UNL     1      33.629 -20.665 -20.148  0.00  0.00    +0.022 C 
ATOM      5  C   UNL     1      33.094 -21.606 -19.222  0.00  0.00    +0.013 C 
ENDROOT
BRANCH   3   8
ATOM      6  O   UNL     1      32.977 -24.187 -17.595  0.00  0.00    -0.270 OA
ATOM      7  N   UNL     1      34.960 -23.493 -16.668  0.00  0.00    -0.293 N 
ATOM      8  C   ACE A   0      33.947 -23.392 -17.646  0.00  0.00    +0.252 C 
ATOM      9  H   UNL     1      35.716 -22.864 -16.717  0.00  0.00    +0.150 HD
BRANCH   7  10
ATOM     10  CA  UNL     1      34.950 -24.466 -15.600  0.00  0.00    +0.172 C 
BRANCH  10  12
ATOM     11  OXT UNL     1      33.092 -24.783 -14.059  0.00  0.00    -0.248 OA
ATOM     12  C   UNL     1      33.898 -24.037 -14.598  0.00  0.00    +0.332 C 
BRANCH  12  13
ATOM     13  O   UNL     1      33.971 -22.708 -14.325  0.00  0.00    -0.479 OA
ATOM     14  H   UNL     1      34.629 -22.384 -13.742  0.00  0.00    +0.295 HD
ENDBRANCH  12  13
ENDBRANCH  10  12
BRANCH  10  15
ATOM     15  CB  UNL     1      36.338 -24.684 -14.985  0.00  0.00    +0.043 C 
BRANCH  15  16
ATOM     16  CG  UNL     1      36.502 -25.951 -14.136  0.00  0.00    +0.112 C 
BRANCH  16  18
ATOM     17  OE2 UNL     1      38.455 -27.378 -14.435  0.00  0.00    -0.250 OA
ATOM     18  CD  UNL     1      37.342 -27.023 -14.797  0.00  0.00    +0.314 C 
BRANCH  18  19
ATOM     19  OE1 UNL     1      36.724 -27.537 -15.893  0.00  0.00    -0.480 OA
ATOM     20  HE1 UNL     1      37.225 -27.753 -16.655  0.00  0.00    +0.295 HD
ENDBRANCH  18  19
ENDBRANCH  16  18
ENDBRANCH  15  16
ENDBRANCH  10  15
ENDBRANCH   7  10
ENDBRANCH   3   8
BRANCH   2  21
ATOM     21  N   UNL     1      35.828 -19.958 -21.024  0.00  0.00    -0.297 N 
ATOM     22  C   UNL     1      37.152 -19.541 -20.557  0.00  0.00    +0.113 C 
BRANCH  21  23
ATOM     23  C   UNL     1      35.431 -19.532 -22.348  0.00  0.00    +0.118 C 
BRANCH  23  27
ATOM     24  O   UNL     1      34.255 -15.987 -25.899  0.00  0.00    -0.209 OA
ATOM     25  N   UNL     1      34.142 -13.993 -22.423  0.00  0.00    -0.290 N 
ATOM     26  N   UNL     1      33.908 -14.008 -24.795  0.00  0.00    -0.322 NA
ATOM     27  C   UNL     1      35.094 -18.079 -22.363  0.00  0.00    -0.002 C 
ATOM     28  C   UNL     1      34.510 -16.077 -23.576  0.00  0.00    +0.108 C 
ATOM     29  C   UNL     1      34.825 -17.438 -23.573  0.00  0.00    +0.011 C 
ATOM     30  C   UNL     1      34.462 -15.352 -22.377  0.00  0.00    +0.062 C 
ATOM     31  C   UNL     1      35.048 -17.363 -21.165  0.00  0.00    -0.001 C 
ATOM     32  C   UNL     1      34.733 -16.003 -21.171  0.00  0.00    +0.015 C 
ATOM     33  C   UNL     1      34.215 -15.357 -24.846  0.00  0.00    +0.207 C 
ATOM     34  C   UNL     1      33.887 -13.408 -23.641  0.00  0.00    +0.174 C 
ATOM     35  C   UNL     1      33.548 -11.937 -23.623  0.00  0.00    +0.085 C 
ATOM     36  H   UNL     1      34.101 -13.462 -21.595  0.00  0.00    +0.154 HD
ENDBRANCH  23  27
ENDBRANCH  21  23
ENDBRANCH   2  21
TORSDOF 11
ENDMDL
MODEL 4
REMARK VINA RESULT:     -10.9      3.878      4.833
REMARK  Name = 104758
REMARK  11 active torsions:
REMARK  status: ('A' for Active; 'I' for Inactive)
REMARK    1  A    between atoms: C_2  and  N_21
REMARK    2  A    between atoms: C_3  and  C_8
REMARK    3  A    between atoms: N_7  and  CA_10
REMARK    4  A    between atoms: CA_10  and  C_12
REMARK    5  A    between atoms: CA_10  and  CB_15
REMARK    6  A    between atoms: C_12  and  O_13
REMARK    7  A    between atoms: CB_15  and  CG_16
REMARK    8  A    between atoms: CG_16  and  CD_18
REMARK    9  A    between atoms: CD_18  and  OE1_19
REMARK   10  A    between atoms: N_21  and  C_23
REMARK   11  A    between atoms: C_23  and  C_27
REMARK                            x       y       z     vdW  Elec       q    Type
REMARK                         _______ _______ _______ _____ _____    ______ ____
ROOT
ATOM      1  S   UNL     1      34.332 -22.335 -18.379  0.00  0.00    -0.068 S 
ATOM      2  C   UNL     1      35.257 -21.323 -19.404  0.00  0.00    +0.079 C 
ATOM      3  C   UNL     1      35.687 -22.655 -17.383  0.00  0.00    +0.084 C 
ATOM      4  C   UNL     1      36.569 -21.233 -18.995  0.00  0.00    +0.022 C 
ATOM      5  C   UNL     1      36.818 -22.005 -17.824  0.00  0.00    +0.013 C 
ENDROOT
BRANCH   3   8
ATOM      6  O   UNL     1      34.424 -23.796 -15.734  0.00  0.00    -0.270 OA
ATOM      7  N   UNL     1      36.706 -24.053 -15.684  0.00  0.00    -0.293 N 
ATOM      8  C   ACE A   0      35.532 -23.517 -16.255  0.00  0.00    +0.252 C 
ATOM      9  H   UNL     1      37.569 -23.827 -16.100  0.00  0.00    +0.150 HD
BRANCH   7  10
ATOM     10  CA  UNL     1      36.713 -24.914 -14.523  0.00  0.00    +0.172 C 
BRANCH  10  12
ATOM     11  OXT UNL     1      37.772 -23.084 -13.317  0.00  0.00    -0.248 OA
ATOM     12  C   UNL     1      37.027 -24.055 -13.316  0.00  0.00    +0.332 C 
BRANCH  12  13
ATOM     13  O   UNL     1      36.348 -24.463 -12.213  0.00  0.00    -0.479 OA
ATOM     14  H   UNL     1      35.725 -23.893 -11.808  0.00  0.00    +0.295 HD
ENDBRANCH  12  13
ENDBRANCH  10  12
BRANCH  10  15
ATOM     15  CB  UNL     1      37.648 -26.119 -14.686  0.00  0.00    +0.043 C 
BRANCH  15  16
ATOM     16  CG  UNL     1      38.890 -26.128 -13.786  0.00  0.00    +0.112 C 
BRANCH  16  18
ATOM     17  OE2 UNL     1      41.015 -24.965 -14.052  0.00  0.00    -0.250 OA
ATOM     18  CD  UNL     1      40.161 -25.720 -14.497  0.00  0.00    +0.314 C 
BRANCH  18  19
ATOM     19  OE1 UNL     1      40.237 -26.267 -15.739  0.00  0.00    -0.480 OA
ATOM     20  HE1 UNL     1      40.727 -25.836 -16.412  0.00  0.00    +0.295 HD
ENDBRANCH  18  19
ENDBRANCH  16  18
ENDBRANCH  15  16
ENDBRANCH  10  15
ENDBRANCH   7  10
ENDBRANCH   3   8
BRANCH   2  21
ATOM     21  N   UNL     1      34.690 -20.695 -20.506  0.00  0.00    -0.297 N 
ATOM     22  C   UNL     1      33.238 -20.541 -20.616  0.00  0.00    +0.113 C 
BRANCH  21  23
ATOM     23  C   UNL     1      35.494 -20.160 -21.583  0.00  0.00    +0.118 C 
BRANCH  23  27
ATOM     24  O   UNL     1      34.503 -17.093 -25.604  0.00  0.00    -0.209 OA
ATOM     25  N   UNL     1      34.377 -14.648 -22.430  0.00  0.00    -0.290 N 
ATOM     26  N   UNL     1      34.193 -14.976 -24.784  0.00  0.00    -0.322 NA
ATOM     27  C   UNL     1      35.202 -18.714 -21.800  0.00  0.00    -0.002 C 
ATOM     28  C   UNL     1      34.705 -16.878 -23.284  0.00  0.00    +0.108 C 
ATOM     29  C   UNL     1      34.978 -18.234 -23.092  0.00  0.00    +0.011 C 
ATOM     30  C   UNL     1      34.654 -15.997 -22.194  0.00  0.00    +0.062 C 
ATOM     31  C   UNL     1      35.153 -17.843 -20.711  0.00  0.00    -0.001 C 
ATOM     32  C   UNL     1      34.880 -16.488 -20.906  0.00  0.00    +0.015 C 
ATOM     33  C   UNL     1      34.460 -16.327 -24.646  0.00  0.00    +0.207 C 
ATOM     34  C   UNL     1      34.166 -14.226 -23.721  0.00  0.00    +0.174 C 
ATOM     35  C   UNL     1      33.873 -12.757 -23.908  0.00  0.00    +0.085 C 
ATOM     36  H   UNL     1      34.335 -14.010 -21.682  0.00  0.00    +0.154 HD
ENDBRANCH  23  27
ENDBRANCH  21  23
ENDBRANCH   2  21
TORSDOF 11
ENDMDL
MODEL 5
REMARK VINA RESULT:     -10.8      1.971      2.716
REMARK  Name = 104758
REMARK  11 active torsions:
REMARK  status: ('A' for Active; 'I' for Inactive)
REMARK    1  A    between atoms: C_2  and  N_21
REMARK    2  A    between atoms: C_3  and  C_8
REMARK    3  A    between atoms: N_7  and  CA_10
REMARK    4  A    between atoms: CA_10  and  C_12
REMARK    5  A    between atoms: CA_10  and  CB_15
REMARK    6  A    between atoms: C_12  and  O_13
REMARK    7  A    between atoms: CB_15  and  CG_16
REMARK    8  A    between atoms: CG_16  and  CD_18
REMARK    9  A    between atoms: CD_18  and  OE1_19
REMARK   10  A    between atoms: N_21  and  C_23
REMARK   11  A    between atoms: C_23  and  C_27
REMARK                            x       y       z     vdW  Elec       q    Type
REMARK                         _______ _______ _______ _____ _____    ______ ____
ROOT
ATOM      1  S   UNL     1      35.491 -21.859 -19.385  0.00  0.00    -0.068 S 
ATOM      2  C   UNL     1      34.917 -20.603 -20.398  0.00  0.00    +0.079 C 
ATOM      3  C   UNL     1      33.905 -22.236 -18.862  0.00  0.00    +0.084 C 
ATOM      4  C   UNL     1      33.546 -20.476 -20.337  0.00  0.00    +0.022 C 
ATOM      5  C   UNL     1      32.960 -21.422 -19.448  0.00  0.00    +0.013 C 
ENDROOT
BRANCH   3   8
ATOM      6  O   UNL     1      33.403 -24.467 -18.243  0.00  0.00    -0.270 OA
ATOM      7  N   UNL     1      33.863 -22.978 -16.555  0.00  0.00    -0.293 N 
ATOM      8  C   ACE A   0      33.716 -23.294 -17.923  0.00  0.00    +0.252 C 
ATOM      9  H   UNL     1      34.108 -22.056 -16.315  0.00  0.00    +0.150 HD
BRANCH   7  10
ATOM     10  CA  UNL     1      33.673 -23.933 -15.487  0.00  0.00    +0.172 C 
BRANCH  10  12
ATOM     11  OXT UNL     1      31.258 -24.211 -15.351  0.00  0.00    -0.248 OA
ATOM     12  C   UNL     1      32.288 -23.714 -14.915  0.00  0.00    +0.332 C 
BRANCH  12  13
ATOM     13  O   UNL     1      32.314 -22.915 -13.816  0.00  0.00    -0.479 OA
ATOM     14  H   UNL     1      31.834 -22.111 -13.809  0.00  0.00    +0.295 HD
ENDBRANCH  12  13
ENDBRANCH  10  12
BRANCH  10  15
ATOM     15  CB  UNL     1      34.791 -23.878 -14.438  0.00  0.00    +0.043 C 
BRANCH  15  16
ATOM     16  CG  UNL     1      36.027 -24.738 -14.732  0.00  0.00    +0.112 C 
BRANCH  16  18
ATOM     17  OE2 UNL     1      38.282 -23.833 -14.548  0.00  0.00    -0.250 OA
ATOM     18  CD  UNL     1      37.235 -23.939 -15.171  0.00  0.00    +0.314 C 
BRANCH  18  19
ATOM     19  OE1 UNL     1      37.010 -23.300 -16.349  0.00  0.00    -0.480 OA
ATOM     20  HE1 UNL     1      36.187 -22.878 -16.504  0.00  0.00    +0.295 HD
ENDBRANCH  18  19
ENDBRANCH  16  18
ENDBRANCH  15  16
ENDBRANCH  10  15
ENDBRANCH   7  10
ENDBRANCH   3   8
BRANCH   2  21
ATOM     21  N   UNL     1      35.784 -19.838 -21.167  0.00  0.00    -0.297 N 
ATOM     22  C   UNL     1      37.106 -19.465 -20.659  0.00  0.00    +0.113 C 
BRANCH  21  23
ATOM     23  C   UNL     1      35.434 -19.380 -22.494  0.00  0.00    +0.118 C 
BRANCH  23  27
ATOM     24  O   UNL     1      34.109 -15.816 -25.971  0.00  0.00    -0.209 OA
ATOM     25  N   UNL     1      34.112 -13.849 -22.478  0.00  0.00    -0.290 N 
ATOM     26  N   UNL     1      33.791 -13.848 -24.840  0.00  0.00    -0.322 NA
ATOM     27  C   UNL     1      35.089 -17.929 -22.485  0.00  0.00    -0.002 C 
ATOM     28  C   UNL     1      34.449 -15.922 -23.660  0.00  0.00    +0.108 C 
ATOM     29  C   UNL     1      34.771 -17.281 -23.679  0.00  0.00    +0.011 C 
ATOM     30  C   UNL     1      34.441 -15.206 -22.454  0.00  0.00    +0.062 C 
ATOM     31  C   UNL     1      35.082 -17.223 -21.281  0.00  0.00    -0.001 C 
ATOM     32  C   UNL     1      34.759 -15.865 -21.264  0.00  0.00    +0.015 C 
ATOM     33  C   UNL     1      34.104 -15.194 -24.913  0.00  0.00    +0.207 C 
ATOM     34  C   UNL     1      33.809 -13.257 -23.681  0.00  0.00    +0.174 C 
ATOM     35  C   UNL     1      33.463 -11.788 -23.639  0.00  0.00    +0.085 C 
ATOM     36  H   UNL     1      34.098 -13.324 -21.645  0.00  0.00    +0.154 HD
ENDBRANCH  23  27
ENDBRANCH  21  23
ENDBRANCH   2  21
TORSDOF 11
ENDMDL
MODEL 6
REMARK VINA RESULT:     -10.4      3.069      3.884
REMARK  Name = 104758
REMARK  11 active torsions:
REMARK  status: ('A' for Active; 'I' for Inactive)
REMARK    1  A    between atoms: C_2  and  N_21
REMARK    2  A    between atoms: C_3  and  C_8
REMARK    3  A    between atoms: N_7  and  CA_10
REMARK    4  A    between atoms: CA_10  and  C_12
REMARK    5  A    between atoms: CA_10  and  CB_15
REMARK    6  A    between atoms: C_12  and  O_13
REMARK    7  A    between atoms: CB_15  and  CG_16
REMARK    8  A    between atoms: CG_16  and  CD_18
REMARK    9  A    between atoms: CD_18  and  OE1_19
REMARK   10  A    between atoms: N_21  and  C_23
REMARK   11  A    between atoms: C_23  and  C_27
REMARK                            x       y       z     vdW  Elec       q    Type
REMARK                         _______ _______ _______ _____ _____    ______ ____
ROOT
ATOM      1  S   UNL     1      34.367 -22.250 -18.291  0.00  0.00    -0.068 S 
ATOM      2  C   UNL     1      35.267 -21.343 -19.431  0.00  0.00    +0.079 C 
ATOM      3  C   UNL     1      35.772 -22.597 -17.377  0.00  0.00    +0.084 C 
ATOM      4  C   UNL     1      36.608 -21.308 -19.120  0.00  0.00    +0.022 C 
ATOM      5  C   UNL     1      36.900 -22.034 -17.930  0.00  0.00    +0.013 C 
ENDROOT
BRANCH   3   8
ATOM      6  O   UNL     1      34.559 -23.689 -15.659  0.00  0.00    -0.270 OA
ATOM      7  N   UNL     1      36.850 -23.835 -15.593  0.00  0.00    -0.293 N 
ATOM      8  C   ACE A   0      35.654 -23.392 -16.197  0.00  0.00    +0.252 C 
ATOM      9  H   UNL     1      37.703 -23.596 -16.023  0.00  0.00    +0.150 HD
BRANCH   7  10
ATOM     10  CA  UNL     1      36.894 -24.620 -14.381  0.00  0.00    +0.172 C 
BRANCH  10  12
ATOM     11  OXT UNL     1      37.435 -26.885 -15.091  0.00  0.00    -0.248 OA
ATOM     12  C   UNL     1      36.598 -26.058 -14.754  0.00  0.00    +0.332 C 
BRANCH  12  13
ATOM     13  O   UNL     1      35.277 -26.351 -14.636  0.00  0.00    -0.479 OA
ATOM     14  H   UNL     1      34.867 -26.926 -15.251  0.00  0.00    +0.295 HD
ENDBRANCH  12  13
ENDBRANCH  10  12
BRANCH  10  15
ATOM     15  CB  UNL     1      35.977 -24.065 -13.284  0.00  0.00    +0.043 C 
BRANCH  15  16
ATOM     16  CG  UNL     1      36.617 -23.893 -11.900  0.00  0.00    +0.112 C 
BRANCH  16  18
ATOM     17  OE2 UNL     1      36.099 -24.494  -9.596  0.00  0.00    -0.250 OA
ATOM     18  CD  UNL     1      35.882 -24.617 -10.794  0.00  0.00    +0.314 C 
BRANCH  18  19
ATOM     19  OE1 UNL     1      34.950 -25.474 -11.290  0.00  0.00    -0.480 OA
ATOM     20  HE1 UNL     1      35.111 -26.398 -11.278  0.00  0.00    +0.295 HD
ENDBRANCH  18  19
ENDBRANCH  16  18
ENDBRANCH  15  16
ENDBRANCH  10  15
ENDBRANCH   7  10
ENDBRANCH   3   8
BRANCH   2  21
ATOM     21  N   UNL     1      34.656 -20.739 -20.522  0.00  0.00    -0.297 N 
ATOM     22  C   UNL     1      33.199 -20.599 -20.583  0.00  0.00    +0.113 C 
BRANCH  21  23
ATOM     23  C   UNL     1      35.416 -20.217 -21.637  0.00  0.00    +0.118 C 
BRANCH  23  27
ATOM     24  O   UNL     1      34.539 -17.061 -25.616  0.00  0.00    -0.209 OA
ATOM     25  N   UNL     1      34.387 -14.675 -22.398  0.00  0.00    -0.290 N 
ATOM     26  N   UNL     1      34.242 -14.955 -24.761  0.00  0.00    -0.322 NA
ATOM     27  C   UNL     1      35.147 -18.762 -21.831  0.00  0.00    -0.002 C 
ATOM     28  C   UNL     1      34.701 -16.892 -23.289  0.00  0.00    +0.108 C 
ATOM     29  C   UNL     1      34.953 -18.255 -23.117  0.00  0.00    +0.011 C 
ATOM     30  C   UNL     1      34.642 -16.032 -22.183  0.00  0.00    +0.062 C 
ATOM     31  C   UNL     1      35.089 -17.911 -20.726  0.00  0.00    -0.001 C 
ATOM     32  C   UNL     1      34.837 -16.550 -20.900  0.00  0.00    +0.015 C 
ATOM     33  C   UNL     1      34.488 -16.313 -24.644  0.00  0.00    +0.207 C 
ATOM     34  C   UNL     1      34.205 -14.225 -23.684  0.00  0.00    +0.174 C 
ATOM     35  C   UNL     1      33.934 -12.749 -23.849  0.00  0.00    +0.085 C 
ATOM     36  H   UNL     1      34.339 -14.050 -21.639  0.00  0.00    +0.154 HD
ENDBRANCH  23  27
ENDBRANCH  21  23
ENDBRANCH   2  21
TORSDOF 11
ENDMDL
MODEL 7
REMARK VINA RESULT:     -10.4      3.707     11.024
REMARK  Name = 104758
REMARK  11 active torsions:
REMARK  status: ('A' for Active; 'I' for Inactive)
REMARK    1  A    between atoms: C_2  and  N_21
REMARK    2  A    between atoms: C_3  and  C_8
REMARK    3  A    between atoms: N_7  and  CA_10
REMARK    4  A    between atoms: CA_10  and  C_12
REMARK    5  A    between atoms: CA_10  and  CB_15
REMARK    6  A    between atoms: C_12  and  O_13
REMARK    7  A    between atoms: CB_15  and  CG_16
REMARK    8  A    between atoms: CG_16  and  CD_18
REMARK    9  A    between atoms: CD_18  and  OE1_19
REMARK   10  A    between atoms: N_21  and  C_23
REMARK   11  A    between atoms: C_23  and  C_27
REMARK                            x       y       z     vdW  Elec       q    Type
REMARK                         _______ _______ _______ _____ _____    ______ ____
ROOT
ATOM      1  S   UNL     1      34.595 -15.921 -24.010  0.00  0.00    -0.068 S 
ATOM      2  C   UNL     1      34.957 -16.865 -22.627  0.00  0.00    +0.079 C 
ATOM      3  C   UNL     1      34.114 -14.593 -23.043  0.00  0.00    +0.084 C 
ATOM      4  C   UNL     1      34.716 -16.180 -21.457  0.00  0.00    +0.022 C 
ATOM      5  C   UNL     1      34.228 -14.864 -21.698  0.00  0.00    +0.013 C 
ENDROOT
BRANCH   3   8
ATOM      6  O   UNL     1      33.477 -13.290 -24.917  0.00  0.00    -0.270 OA
ATOM      7  N   UNL     1      33.452 -12.267 -22.861  0.00  0.00    -0.293 N 
ATOM      8  C   ACE A   0      33.664 -13.397 -23.681  0.00  0.00    +0.252 C 
ATOM      9  H   UNL     1      33.602 -12.362 -21.893  0.00  0.00    +0.150 HD
BRANCH   7  10
ATOM     10  CA  UNL     1      33.027 -10.981 -23.364  0.00  0.00    +0.172 C 
BRANCH  10  12
ATOM     11  OXT UNL     1      34.496  -9.056 -23.103  0.00  0.00    -0.248 OA
ATOM     12  C   UNL     1      34.270 -10.149 -23.605  0.00  0.00    +0.332 C 
BRANCH  12  13
ATOM     13  O   UNL     1      35.149 -10.779 -24.428  0.00  0.00    -0.479 OA
ATOM     14  H   UNL     1      35.577 -10.301 -25.111  0.00  0.00    +0.295 HD
ENDBRANCH  12  13
ENDBRANCH  10  12
BRANCH  10  15
ATOM     15  CB  UNL     1      31.996 -10.301 -22.454  0.00  0.00    +0.043 C 
BRANCH  15  16
ATOM     16  CG  UNL     1      32.066 -10.674 -20.968  0.00  0.00    +0.112 C 
BRANCH  16  18
ATOM     17  OE2 UNL     1      31.818  -9.417 -18.895  0.00  0.00    -0.250 OA
ATOM     18  CD  UNL     1      32.222  -9.483 -20.048  0.00  0.00    +0.314 C 
BRANCH  18  19
ATOM     19  OE1 UNL     1      32.842  -8.447 -20.671  0.00  0.00    -0.480 OA
ATOM     20  HE1 UNL     1      33.718  -8.213 -20.432  0.00  0.00    +0.295 HD
ENDBRANCH  18  19
ENDBRANCH  16  18
ENDBRANCH  15  16
ENDBRANCH  10  15
ENDBRANCH   7  10
ENDBRANCH   3   8
BRANCH   2  21
ATOM     21  N   UNL     1      35.436 -18.163 -22.741  0.00  0.00    -0.297 N 
ATOM     22  C   UNL     1      34.788 -19.126 -23.634  0.00  0.00    +0.113 C 
BRANCH  21  23
ATOM     23  C   UNL     1      36.589 -18.625 -21.998  0.00  0.00    +0.118 C 
BRANCH  23  27
ATOM     24  O   UNL     1      32.210 -20.740 -20.292  0.00  0.00    -0.209 OA
ATOM     25  N   UNL     1      35.090 -22.597 -18.213  0.00  0.00    -0.290 N 
ATOM     26  N   UNL     1      32.778 -22.296 -18.709  0.00  0.00    -0.322 NA
ATOM     27  C   UNL     1      36.200 -19.667 -21.004  0.00  0.00    -0.002 C 
ATOM     28  C   UNL     1      34.501 -20.957 -19.878  0.00  0.00    +0.108 C 
ATOM     29  C   UNL     1      34.854 -19.980 -20.812  0.00  0.00    +0.011 C 
ATOM     30  C   UNL     1      35.485 -21.625 -19.135  0.00  0.00    +0.062 C 
ATOM     31  C   UNL     1      37.185 -20.328 -20.268  0.00  0.00    -0.001 C 
ATOM     32  C   UNL     1      36.830 -21.304 -19.336  0.00  0.00    +0.015 C 
ATOM     33  C   UNL     1      33.075 -21.320 -19.645  0.00  0.00    +0.207 C 
ATOM     34  C   UNL     1      33.751 -22.866 -18.060  0.00  0.00    +0.174 C 
ATOM     35  C   UNL     1      33.389 -23.926 -17.046  0.00  0.00    +0.085 C 
ATOM     36  H   UNL     1      35.762 -23.080 -17.679  0.00  0.00    +0.154 HD
ENDBRANCH  23  27
ENDBRANCH  21  23
ENDBRANCH   2  21
TORSDOF 11
ENDMDL
MODEL 8
REMARK VINA RESULT:     -10.4      3.499     10.970
REMARK  Name = 104758
REMARK  11 active torsions:
REMARK  status: ('A' for Active; 'I' for Inactive)
REMARK    1  A    between atoms: C_2  and  N_21
REMARK    2  A    between atoms: C_3  and  C_8
REMARK    3  A    between atoms: N_7  and  CA_10
REMARK    4  A    between atoms: CA_10  and  C_12
REMARK    5  A    between atoms: CA_10  and  CB_15
REMARK    6  A    between atoms: C_12  and  O_13
REMARK    7  A    between atoms: CB_15  and  CG_16
REMARK    8  A    between atoms: CG_16  and  CD_18
REMARK    9  A    between atoms: CD_18  and  OE1_19
REMARK   10  A    between atoms: N_21  and  C_23
REMARK   11  A    between atoms: C_23  and  C_27
REMARK                            x       y       z     vdW  Elec       q    Type
REMARK                         _______ _______ _______ _____ _____    ______ ____
ROOT
ATOM      1  S   UNL     1      34.529 -16.440 -24.140  0.00  0.00    -0.068 S 
ATOM      2  C   UNL     1      34.961 -17.339 -22.747  0.00  0.00    +0.079 C 
ATOM      3  C   UNL     1      34.281 -15.022 -23.214  0.00  0.00    +0.084 C 
ATOM      4  C   UNL     1      34.915 -16.572 -21.604  0.00  0.00    +0.022 C 
ATOM      5  C   UNL     1      34.522 -15.230 -21.874  0.00  0.00    +0.013 C 
ENDROOT
BRANCH   3   8
ATOM      6  O   UNL     1      33.409 -13.791 -25.041  0.00  0.00    -0.270 OA
ATOM      7  N   UNL     1      34.028 -12.611 -23.171  0.00  0.00    -0.293 N 
ATOM      8  C   ACE A   0      33.870 -13.825 -23.874  0.00  0.00    +0.252 C 
ATOM      9  H   UNL     1      34.391 -12.649 -22.256  0.00  0.00    +0.150 HD
BRANCH   7  10
ATOM     10  CA  UNL     1      33.687 -11.317 -23.717  0.00  0.00    +0.172 C 
BRANCH  10  12
ATOM     11  OXT UNL     1      35.198 -11.097 -25.613  0.00  0.00    -0.248 OA
ATOM     12  C   UNL     1      34.899 -10.801 -24.464  0.00  0.00    +0.332 C 
BRANCH  12  13
ATOM     13  O   UNL     1      35.618  -9.922 -23.717  0.00  0.00    -0.479 OA
ATOM     14  H   UNL     1      36.544  -9.849 -23.841  0.00  0.00    +0.295 HD
ENDBRANCH  12  13
ENDBRANCH  10  12
BRANCH  10  15
ATOM     15  CB  UNL     1      33.156 -10.348 -22.654  0.00  0.00    +0.043 C 
BRANCH  15  16
ATOM     16  CG  UNL     1      31.687 -10.536 -22.251  0.00  0.00    +0.112 C 
BRANCH  16  18
ATOM     17  OE2 UNL     1      32.356 -12.265 -20.670  0.00  0.00    -0.250 OA
ATOM     18  CD  UNL     1      31.474 -11.617 -21.215  0.00  0.00    +0.314 C 
BRANCH  18  19
ATOM     19  OE1 UNL     1      30.152 -11.826 -20.975  0.00  0.00    -0.480 OA
ATOM     20  HE1 UNL     1      29.857 -12.008 -20.104  0.00  0.00    +0.295 HD
ENDBRANCH  18  19
ENDBRANCH  16  18
ENDBRANCH  15  16
ENDBRANCH  10  15
ENDBRANCH   7  10
ENDBRANCH   3   8
BRANCH   2  21
ATOM     21  N   UNL     1      35.306 -18.682 -22.829  0.00  0.00    -0.297 N 
ATOM     22  C   UNL     1      34.891 -19.494 -23.974  0.00  0.00    +0.113 C 
BRANCH  21  23
ATOM     23  C   UNL     1      36.088 -19.337 -21.804  0.00  0.00    +0.118 C 
BRANCH  23  27
ATOM     24  O   UNL     1      36.745 -22.482 -17.774  0.00  0.00    -0.209 OA
ATOM     25  N   UNL     1      32.773 -22.363 -18.310  0.00  0.00    -0.290 N 
ATOM     26  N   UNL     1      34.664 -23.173 -17.105  0.00  0.00    -0.322 NA
ATOM     27  C   UNL     1      35.215 -20.130 -20.890  0.00  0.00    -0.002 C 
ATOM     28  C   UNL     1      34.957 -21.633 -19.021  0.00  0.00    +0.108 C 
ATOM     29  C   UNL     1      35.784 -20.894 -19.871  0.00  0.00    +0.011 C 
ATOM     30  C   UNL     1      33.565 -21.611 -19.182  0.00  0.00    +0.062 C 
ATOM     31  C   UNL     1      33.829 -20.104 -21.057  0.00  0.00    -0.001 C 
ATOM     32  C   UNL     1      33.005 -20.842 -20.206  0.00  0.00    +0.015 C 
ATOM     33  C   UNL     1      35.526 -22.460 -17.921  0.00  0.00    +0.207 C 
ATOM     34  C   UNL     1      33.383 -23.101 -17.324  0.00  0.00    +0.174 C 
ATOM     35  C   UNL     1      32.473 -23.892 -16.415  0.00  0.00    +0.085 C 
ATOM     36  H   UNL     1      31.793 -22.364 -18.402  0.00  0.00    +0.154 HD
ENDBRANCH  23  27
ENDBRANCH  21  23
ENDBRANCH   2  21
TORSDOF 11
ENDMDL
MODEL 9
REMARK VINA RESULT:     -10.3      2.062      2.672
REMARK  Name = 104758
REMARK  11 active torsions:
REMARK  status: ('A' for Active; 'I' for Inactive)
REMARK    1  A    between atoms: C_2  and  N_21
REMARK    2  A    between atoms: C_3  and  C_8
REMARK    3  A    between atoms: N_7  and  CA_10
REMARK    4  A    between atoms: CA_10  and  C_12
REMARK    5  A    between atoms: CA_10  and  CB_15
REMARK    6  A    between atoms: C_12  and  O_13
REMARK    7  A    between atoms: CB_15  and  CG_16
REMARK    8  A    between atoms: CG_16  and  CD_18
REMARK    9  A    between atoms: CD_18  and  OE1_19
REMARK   10  A    between atoms: N_21  and  C_23
REMARK   11  A    between atoms: C_23  and  C_27
REMARK                            x       y       z     vdW  Elec       q    Type
REMARK                         _______ _______ _______ _____ _____    ______ ____
ROOT
ATOM      1  S   UNL     1      35.562 -21.746 -19.538  0.00  0.00    -0.068 S 
ATOM      2  C   UNL     1      34.958 -20.492 -20.535  0.00  0.00    +0.079 C 
ATOM      3  C   UNL     1      33.994 -22.112 -18.956  0.00  0.00    +0.084 C 
ATOM      4  C   UNL     1      33.591 -20.357 -20.424  0.00  0.00    +0.022 C 
ATOM      5  C   UNL     1      33.033 -21.296 -19.510  0.00  0.00    +0.013 C 
ENDROOT
BRANCH   3   8
ATOM      6  O   UNL     1      33.548 -24.349 -18.313  0.00  0.00    -0.270 OA
ATOM      7  N   UNL     1      33.979 -22.834 -16.642  0.00  0.00    -0.293 N 
ATOM      8  C   ACE A   0      33.835 -23.166 -18.006  0.00  0.00    +0.252 C 
ATOM      9  H   UNL     1      34.203 -21.903 -16.412  0.00  0.00    +0.150 HD
BRANCH   7  10
ATOM     10  CA  UNL     1      33.817 -23.783 -15.564  0.00  0.00    +0.172 C 
BRANCH  10  12
ATOM     11  OXT UNL     1      31.383 -23.863 -15.556  0.00  0.00    -0.248 OA
ATOM     12  C   UNL     1      32.430 -23.588 -14.986  0.00  0.00    +0.332 C 
BRANCH  12  13
ATOM     13  O   UNL     1      32.474 -23.098 -13.719  0.00  0.00    -0.479 OA
ATOM     14  H   UNL     1      31.760 -23.249 -13.132  0.00  0.00    +0.295 HD
ENDBRANCH  12  13
ENDBRANCH  10  12
BRANCH  10  15
ATOM     15  CB  UNL     1      34.939 -23.694 -14.523  0.00  0.00    +0.043 C 
BRANCH  15  16
ATOM     16  CG  UNL     1      35.257 -24.991 -13.769  0.00  0.00    +0.112 C 
BRANCH  16  18
ATOM     17  OE2 UNL     1      35.741 -25.598 -11.459  0.00  0.00    -0.250 OA
ATOM     18  CD  UNL     1      35.205 -24.849 -12.263  0.00  0.00    +0.314 C 
BRANCH  18  19
ATOM     19  OE1 UNL     1      34.441 -23.789 -11.887  0.00  0.00    -0.480 OA
ATOM     20  HE1 UNL     1      34.440 -23.006 -12.403  0.00  0.00    +0.295 HD
ENDBRANCH  18  19
ENDBRANCH  16  18
ENDBRANCH  15  16
ENDBRANCH  10  15
ENDBRANCH   7  10
ENDBRANCH   3   8
BRANCH   2  21
ATOM     21  N   UNL     1      35.800 -19.734 -21.338  0.00  0.00    -0.297 N 
ATOM     22  C   UNL     1      36.974 -19.066 -20.773  0.00  0.00    +0.113 C 
BRANCH  21  23
ATOM     23  C   UNL     1      35.570 -19.574 -22.757  0.00  0.00    +0.118 C 
BRANCH  23  27
ATOM     24  O   UNL     1      34.535 -15.270 -20.118  0.00  0.00    -0.209 OA
ATOM     25  N   UNL     1      33.991 -14.243 -23.955  0.00  0.00    -0.290 N 
ATOM     26  N   UNL     1      33.979 -13.654 -21.645  0.00  0.00    -0.322 NA
ATOM     27  C   UNL     1      35.155 -18.177 -23.076  0.00  0.00    -0.002 C 
ATOM     28  C   UNL     1      34.576 -15.948 -22.356  0.00  0.00    +0.108 C 
ATOM     29  C   UNL     1      34.964 -17.254 -22.047  0.00  0.00    +0.011 C 
ATOM     30  C   UNL     1      34.378 -15.558 -23.688  0.00  0.00    +0.062 C 
ATOM     31  C   UNL     1      34.960 -17.795 -24.405  0.00  0.00    -0.001 C 
ATOM     32  C   UNL     1      34.572 -16.490 -24.711  0.00  0.00    +0.015 C 
ATOM     33  C   UNL     1      34.362 -14.934 -21.286  0.00  0.00    +0.207 C 
ATOM     34  C   UNL     1      33.814 -13.373 -22.905  0.00  0.00    +0.174 C 
ATOM     35  C   UNL     1      33.395 -11.967 -23.260  0.00  0.00    +0.085 C 
ATOM     36  H   UNL     1      33.847 -13.944 -24.882  0.00  0.00    +0.154 HD
ENDBRANCH  23  27
ENDBRANCH  21  23
ENDBRANCH   2  21
TORSDOF 11
ENDMDL
