MODEL 1
REMARK VINA RESULT:     -13.0      0.000      0.000
REMARK  Name = 11167118
REMARK  6 active torsions:
REMARK  status: ('A' for Active; 'I' for Inactive)
REMARK    1  A    between atoms: N_2  and  C_6
REMARK    2  A    between atoms: N_2  and  C_15
REMARK    3  A    between atoms: C_8  and  O_25
REMARK    4  A    between atoms: C_17  and  C_24
REMARK    5  A    between atoms: O_25  and  C_27
REMARK    6  A    between atoms: C_30  and  C_34
REMARK                            x       y       z     vdW  Elec       q    Type
REMARK                         _______ _______ _______ _____ _____    ______ ____
ROOT
ATOM      1  N   UNL     1      35.289 -22.789 -18.057  0.00  0.00    -0.302 N 
ATOM      2  N   UNL     1      33.068 -22.716 -18.102  0.00  0.00    -0.302 N 
ATOM      3  C   UNL     1      34.972 -21.888 -19.041  0.00  0.00    +0.063 C 
ATOM      4  C   UNL     1      33.580 -21.860 -19.049  0.00  0.00    +0.060 C 
ATOM      5  C   UNL     1      34.120 -23.256 -17.526  0.00  0.00    +0.225 C 
ATOM      6  C   UNL     1      35.759 -21.117 -19.899  0.00  0.00    +0.053 C 
ATOM      7  C   UNL     1      35.082 -20.287 -20.798  0.00  0.00    +0.147 C 
ATOM      8  C   UNL     1      32.917 -21.021 -19.960  0.00  0.00    +0.019 C 
ATOM      9  C   UNL     1      33.687 -20.238 -20.829  0.00  0.00    +0.039 C 
ATOM     10  H   UNL     1      36.197 -23.052 -17.783  0.00  0.00    +0.150 HD
ATOM     11  H   UNL     1      32.121 -22.888 -17.898  0.00  0.00    +0.150 HD
ENDROOT
BRANCH   5  12
ATOM     12  N   UNL     1      34.188 -24.166 -16.529  0.00  0.00    -0.303 N 
ATOM     13  H   UNL     1      33.479 -24.848 -16.542  0.00  0.00    +0.150 HD
BRANCH  12  15
ATOM     14 CL   UNL     1      38.070 -24.657 -12.079  0.00  0.00    -0.082 Cl
ATOM     15  C   UNL     1      35.122 -24.294 -15.462  0.00  0.00    +0.047 C 
ATOM     16  C   UNL     1      35.761 -25.508 -15.254  0.00  0.00    +0.019 C 
ATOM     17  C   UNL     1      36.676 -25.633 -14.208  0.00  0.00    +0.083 C 
ATOM     18  C   UNL     1      35.380 -23.201 -14.645  0.00  0.00    +0.015 C 
ATOM     19  C   UNL     1      36.943 -24.541 -13.381  0.00  0.00    +0.062 C 
ATOM     20  C   UNL     1      36.295 -23.326 -13.599  0.00  0.00    +0.013 C 
BRANCH  17  24
ATOM     21  F   UNL     1      38.694 -26.865 -14.153  0.00  0.00    -0.166 F 
ATOM     22  F   UNL     1      37.124 -27.464 -12.775  0.00  0.00    -0.166 F 
ATOM     23  F   UNL     1      36.908 -27.865 -14.906  0.00  0.00    -0.166 F 
ATOM     24  C   UNL     1      37.350 -26.952 -14.008  0.00  0.00    +0.419 C 
ENDBRANCH  17  24
ENDBRANCH  12  15
ENDBRANCH   5  12
BRANCH   7  25
ATOM     25  O   UNL     1      35.800 -19.512 -21.660  0.00  0.00    -0.453 OA
BRANCH  25  27
ATOM     26  N   UNL     1      34.430 -15.655 -22.381  0.00  0.00    -0.239 NA
ATOM     27  C   UNL     1      35.344 -18.228 -21.900  0.00  0.00    +0.149 C 
ATOM     28  C   UNL     1      35.094 -17.832 -23.197  0.00  0.00    +0.061 C 
ATOM     29  C   UNL     1      35.147 -17.372 -20.838  0.00  0.00    +0.058 C 
ATOM     30  C   UNL     1      34.639 -16.536 -23.385  0.00  0.00    +0.137 C 
ATOM     31  C   UNL     1      34.690 -16.097 -21.130  0.00  0.00    +0.102 C 
BRANCH  30  34
ATOM     32  O   UNL     1      34.754 -16.670 -25.722  0.00  0.00    -0.268 OA
ATOM     33  N   UNL     1      33.600 -14.872 -24.823  0.00  0.00    -0.298 N 
ATOM     34  C   UNL     1      34.355 -16.047 -24.722  0.00  0.00    +0.264 C 
ATOM     35  C   UNL     1      33.217 -14.272 -26.082  0.00  0.00    +0.111 C 
ATOM     36  H   UNL     1      33.316 -14.428 -23.991  0.00  0.00    +0.150 HD
ENDBRANCH  30  34
ENDBRANCH  25  27
ENDBRANCH   7  25
TORSDOF 6
ENDMDL
MODEL 2
REMARK VINA RESULT:     -12.4      6.550     11.339
REMARK  Name = 11167118
REMARK  6 active torsions:
REMARK  status: ('A' for Active; 'I' for Inactive)
REMARK    1  A    between atoms: N_2  and  C_6
REMARK    2  A    between atoms: N_2  and  C_15
REMARK    3  A    between atoms: C_8  and  O_25
REMARK    4  A    between atoms: C_17  and  C_24
REMARK    5  A    between atoms: O_25  and  C_27
REMARK    6  A    between atoms: C_30  and  C_34
REMARK                            x       y       z     vdW  Elec       q    Type
REMARK                         _______ _______ _______ _____ _____    ______ ____
ROOT
ATOM      1  N   UNL     1      34.502 -19.182 -21.225  0.00  0.00    -0.302 N 
ATOM      2  N   UNL     1      36.610 -19.730 -20.782  0.00  0.00    -0.302 N 
ATOM      3  C   UNL     1      34.430 -20.283 -20.410  0.00  0.00    +0.063 C 
ATOM      4  C   UNL     1      35.759 -20.605 -20.148  0.00  0.00    +0.060 C 
ATOM      5  C   UNL     1      35.823 -18.890 -21.418  0.00  0.00    +0.225 C 
ATOM      6  C   UNL     1      33.351 -21.003 -19.894  0.00  0.00    +0.053 C 
ATOM      7  C   UNL     1      33.656 -22.096 -19.078  0.00  0.00    +0.147 C 
ATOM      8  C   UNL     1      36.048 -21.708 -19.325  0.00  0.00    +0.019 C 
ATOM      9  C   UNL     1      34.980 -22.444 -18.797  0.00  0.00    +0.039 C 
ATOM     10  H   UNL     1      33.737 -18.691 -21.602  0.00  0.00    +0.150 HD
ATOM     11  H   UNL     1      37.594 -19.731 -20.765  0.00  0.00    +0.150 HD
ENDROOT
BRANCH   5  12
ATOM     12  N   UNL     1      36.137 -17.832 -22.197  0.00  0.00    -0.303 N 
ATOM     13  H   UNL     1      37.091 -17.588 -22.199  0.00  0.00    +0.150 HD
BRANCH  12  15
ATOM     14 CL   UNL     1      32.694 -14.453 -25.639  0.00  0.00    -0.082 Cl
ATOM     15  C   UNL     1      35.309 -17.013 -23.016  0.00  0.00    +0.047 C 
ATOM     16  C   UNL     1      34.835 -15.807 -22.521  0.00  0.00    +0.019 C 
ATOM     17  C   UNL     1      34.023 -15.005 -23.324  0.00  0.00    +0.083 C 
ATOM     18  C   UNL     1      34.987 -17.435 -24.299  0.00  0.00    +0.015 C 
ATOM     19  C   UNL     1      33.694 -15.419 -24.616  0.00  0.00    +0.062 C 
ATOM     20  C   UNL     1      34.175 -16.634 -25.103  0.00  0.00    +0.013 C 
BRANCH  17  24
ATOM     21  F   UNL     1      33.966 -12.646 -23.480  0.00  0.00    -0.166 F 
ATOM     22  F   UNL     1      32.176 -13.639 -22.749  0.00  0.00    -0.166 F 
ATOM     23  F   UNL     1      33.952 -13.537 -21.490  0.00  0.00    -0.166 F 
ATOM     24  C   UNL     1      33.529 -13.710 -22.765  0.00  0.00    +0.419 C 
ENDBRANCH  17  24
ENDBRANCH  12  15
ENDBRANCH   5  12
BRANCH   7  25
ATOM     25  O   UNL     1      32.642 -22.836 -18.547  0.00  0.00    -0.453 OA
BRANCH  25  27
ATOM     26  N   UNL     1      32.935 -23.917 -14.545  0.00  0.00    -0.239 NA
ATOM     27  C   UNL     1      32.739 -23.196 -17.214  0.00  0.00    +0.149 C 
ATOM     28  C   UNL     1      33.948 -23.644 -16.723  0.00  0.00    +0.061 C 
ATOM     29  C   UNL     1      31.628 -23.098 -16.405  0.00  0.00    +0.058 C 
ATOM     30  C   UNL     1      33.994 -23.992 -15.383  0.00  0.00    +0.137 C 
ATOM     31  C   UNL     1      31.776 -23.471 -15.079  0.00  0.00    +0.102 C 
BRANCH  30  34
ATOM     32  O   UNL     1      35.877 -23.757 -14.006  0.00  0.00    -0.268 OA
ATOM     33  N   UNL     1      35.637 -25.768 -15.133  0.00  0.00    -0.298 N 
ATOM     34  C   UNL     1      35.232 -24.472 -14.793  0.00  0.00    +0.264 C 
ATOM     35  C   UNL     1      36.831 -26.396 -14.612  0.00  0.00    +0.111 C 
ATOM     36  H   UNL     1      35.079 -26.281 -15.763  0.00  0.00    +0.150 HD
ENDBRANCH  30  34
ENDBRANCH  25  27
ENDBRANCH   7  25
TORSDOF 6
ENDMDL
MODEL 3
REMARK VINA RESULT:     -12.4      3.646      4.396
REMARK  Name = 11167118
REMARK  6 active torsions:
REMARK  status: ('A' for Active; 'I' for Inactive)
REMARK    1  A    between atoms: N_2  and  C_6
REMARK    2  A    between atoms: N_2  and  C_15
REMARK    3  A    between atoms: C_8  and  O_25
REMARK    4  A    between atoms: C_17  and  C_24
REMARK    5  A    between atoms: O_25  and  C_27
REMARK    6  A    between atoms: C_30  and  C_34
REMARK                            x       y       z     vdW  Elec       q    Type
REMARK                         _______ _______ _______ _____ _____    ______ ____
ROOT
ATOM      1  N   UNL     1      33.767 -21.805 -19.787  0.00  0.00    -0.302 N 
ATOM      2  N   UNL     1      35.651 -22.235 -18.690  0.00  0.00    -0.302 N 
ATOM      3  C   UNL     1      34.688 -20.918 -20.280  0.00  0.00    +0.063 C 
ATOM      4  C   UNL     1      35.856 -21.206 -19.579  0.00  0.00    +0.060 C 
ATOM      5  C   UNL     1      34.388 -22.570 -18.840  0.00  0.00    +0.225 C 
ATOM      6  C   UNL     1      34.605 -19.917 -21.250  0.00  0.00    +0.053 C 
ATOM      7  C   UNL     1      35.770 -19.188 -21.505  0.00  0.00    +0.147 C 
ATOM      8  C   UNL     1      37.018 -20.464 -19.848  0.00  0.00    +0.019 C 
ATOM      9  C   UNL     1      36.957 -19.455 -20.818  0.00  0.00    +0.039 C 
ATOM     10  H   UNL     1      32.825 -21.877 -20.066  0.00  0.00    +0.150 HD
ATOM     11  H   UNL     1      36.306 -22.635 -18.073  0.00  0.00    +0.150 HD
ENDROOT
BRANCH   5  12
ATOM     12  N   UNL     1      33.666 -23.524 -18.212  0.00  0.00    -0.303 N 
ATOM     13  H   UNL     1      33.514 -24.342 -18.739  0.00  0.00    +0.150 HD
BRANCH  12  15
ATOM     14 CL   UNL     1      31.305 -23.576 -12.777  0.00  0.00    -0.082 Cl
ATOM     15  C   UNL     1      33.089 -23.534 -16.911  0.00  0.00    +0.047 C 
ATOM     16  C   UNL     1      31.717 -23.386 -16.769  0.00  0.00    +0.019 C 
ATOM     17  C   UNL     1      31.153 -23.397 -15.493  0.00  0.00    +0.083 C 
ATOM     18  C   UNL     1      33.909 -23.694 -15.802  0.00  0.00    +0.015 C 
ATOM     19  C   UNL     1      31.967 -23.556 -14.371  0.00  0.00    +0.062 C 
ATOM     20  C   UNL     1      33.346 -23.704 -14.526  0.00  0.00    +0.013 C 
BRANCH  17  24
ATOM     21  F   UNL     1      29.075 -24.353 -14.889  0.00  0.00    -0.166 F 
ATOM     22  F   UNL     1      29.331 -22.223 -14.537  0.00  0.00    -0.166 F 
ATOM     23  F   UNL     1      29.110 -22.968 -16.574  0.00  0.00    -0.166 F 
ATOM     24  C   UNL     1      29.672 -23.236 -15.370  0.00  0.00    +0.419 C 
ENDBRANCH  17  24
ENDBRANCH  12  15
ENDBRANCH   5  12
BRANCH   7  25
ATOM     25  O   UNL     1      35.747 -18.198 -22.442  0.00  0.00    -0.453 OA
BRANCH  25  27
ATOM     26  N   UNL     1      33.804 -14.658 -21.457  0.00  0.00    -0.239 NA
ATOM     27  C   UNL     1      35.100 -17.020 -22.114  0.00  0.00    +0.149 C 
ATOM     28  C   UNL     1      34.822 -16.104 -23.107  0.00  0.00    +0.061 C 
ATOM     29  C   UNL     1      34.747 -16.785 -20.802  0.00  0.00    +0.058 C 
ATOM     30  C   UNL     1      34.173 -14.940 -22.728  0.00  0.00    +0.137 C 
ATOM     31  C   UNL     1      34.102 -15.591 -20.525  0.00  0.00    +0.102 C 
BRANCH  30  34
ATOM     32  O   UNL     1      33.132 -14.208 -24.697  0.00  0.00    -0.268 OA
ATOM     33  N   UNL     1      34.348 -12.639 -23.500  0.00  0.00    -0.298 N 
ATOM     34  C   UNL     1      33.846 -13.928 -23.717  0.00  0.00    +0.264 C 
ATOM     35  C   UNL     1      34.092 -11.521 -24.381  0.00  0.00    +0.111 C 
ATOM     36  H   UNL     1      34.908 -12.486 -22.704  0.00  0.00    +0.150 HD
ENDBRANCH  30  34
ENDBRANCH  25  27
ENDBRANCH   7  25
TORSDOF 6
ENDMDL
MODEL 4
REMARK VINA RESULT:     -12.4      6.693     11.330
REMARK  Name = 11167118
REMARK  6 active torsions:
REMARK  status: ('A' for Active; 'I' for Inactive)
REMARK    1  A    between atoms: N_2  and  C_6
REMARK    2  A    between atoms: N_2  and  C_15
REMARK    3  A    between atoms: C_8  and  O_25
REMARK    4  A    between atoms: C_17  and  C_24
REMARK    5  A    between atoms: O_25  and  C_27
REMARK    6  A    between atoms: C_30  and  C_34
REMARK                            x       y       z     vdW  Elec       q    Type
REMARK                         _______ _______ _______ _____ _____    ______ ____
ROOT
ATOM      1  N   UNL     1      34.306 -19.477 -21.061  0.00  0.00    -0.302 N 
ATOM      2  N   UNL     1      36.472 -19.701 -20.616  0.00  0.00    -0.302 N 
ATOM      3  C   UNL     1      34.401 -20.578 -20.249  0.00  0.00    +0.063 C 
ATOM      4  C   UNL     1      35.763 -20.696 -19.985  0.00  0.00    +0.060 C 
ATOM      5  C   UNL     1      35.568 -18.987 -21.251  0.00  0.00    +0.225 C 
ATOM      6  C   UNL     1      33.442 -21.455 -19.738  0.00  0.00    +0.053 C 
ATOM      7  C   UNL     1      33.908 -22.491 -18.924  0.00  0.00    +0.147 C 
ATOM      8  C   UNL     1      36.213 -21.745 -19.165  0.00  0.00    +0.019 C 
ATOM      9  C   UNL     1      35.268 -22.636 -18.641  0.00  0.00    +0.039 C 
ATOM     10  H   UNL     1      33.477 -19.106 -21.439  0.00  0.00    +0.150 HD
ATOM     11  H   UNL     1      37.445 -19.552 -20.596  0.00  0.00    +0.150 HD
ENDROOT
BRANCH   5  12
ATOM     12  N   UNL     1      35.720 -17.892 -22.027  0.00  0.00    -0.303 N 
ATOM     13  H   UNL     1      36.477 -17.931 -22.655  0.00  0.00    +0.150 HD
BRANCH  12  15
ATOM     14 CL   UNL     1      32.554 -12.886 -22.204  0.00  0.00    -0.082 Cl
ATOM     15  C   UNL     1      34.960 -16.689 -22.079  0.00  0.00    +0.047 C 
ATOM     16  C   UNL     1      34.642 -16.134 -23.311  0.00  0.00    +0.019 C 
ATOM     17  C   UNL     1      33.897 -14.956 -23.362  0.00  0.00    +0.083 C 
ATOM     18  C   UNL     1      34.548 -16.089 -20.897  0.00  0.00    +0.015 C 
ATOM     19  C   UNL     1      33.478 -14.343 -22.180  0.00  0.00    +0.062 C 
ATOM     20  C   UNL     1      33.804 -14.910 -20.948  0.00  0.00    +0.013 C 
BRANCH  17  24
ATOM     21  F   UNL     1      32.232 -14.333 -24.923  0.00  0.00    -0.166 F 
ATOM     22  F   UNL     1      34.033 -13.117 -24.849  0.00  0.00    -0.166 F 
ATOM     23  F   UNL     1      34.112 -15.123 -25.696  0.00  0.00    -0.166 F 
ATOM     24  C   UNL     1      33.568 -14.381 -24.702  0.00  0.00    +0.419 C 
ENDBRANCH  17  24
ENDBRANCH  12  15
ENDBRANCH   5  12
BRANCH   7  25
ATOM     25  O   UNL     1      33.016 -23.378 -18.397  0.00  0.00    -0.453 OA
BRANCH  25  27
ATOM     26  N   UNL     1      32.623 -23.489 -14.262  0.00  0.00    -0.239 NA
ATOM     27  C   UNL     1      32.885 -23.415 -17.021  0.00  0.00    +0.149 C 
ATOM     28  C   UNL     1      33.976 -23.751 -16.248  0.00  0.00    +0.061 C 
ATOM     29  C   UNL     1      31.667 -23.114 -16.450  0.00  0.00    +0.058 C 
ATOM     30  C   UNL     1      33.794 -23.774 -14.874  0.00  0.00    +0.137 C 
ATOM     31  C   UNL     1      31.586 -23.165 -15.068  0.00  0.00    +0.102 C 
BRANCH  30  34
ATOM     32  O   UNL     1      35.945 -24.607 -14.455  0.00  0.00    -0.268 OA
ATOM     33  N   UNL     1      34.729 -23.857 -12.630  0.00  0.00    -0.298 N 
ATOM     34  C   UNL     1      34.897 -24.120 -13.994  0.00  0.00    +0.264 C 
ATOM     35  C   UNL     1      35.742 -24.123 -11.633  0.00  0.00    +0.111 C 
ATOM     36  H   UNL     1      33.874 -23.470 -12.332  0.00  0.00    +0.150 HD
ENDBRANCH  30  34
ENDBRANCH  25  27
ENDBRANCH   7  25
TORSDOF 6
ENDMDL
MODEL 5
REMARK VINA RESULT:     -12.2      3.745      4.368
REMARK  Name = 11167118
REMARK  6 active torsions:
REMARK  status: ('A' for Active; 'I' for Inactive)
REMARK    1  A    between atoms: N_2  and  C_6
REMARK    2  A    between atoms: N_2  and  C_15
REMARK    3  A    between atoms: C_8  and  O_25
REMARK    4  A    between atoms: C_17  and  C_24
REMARK    5  A    between atoms: O_25  and  C_27
REMARK    6  A    between atoms: C_30  and  C_34
REMARK                            x       y       z     vdW  Elec       q    Type
REMARK                         _______ _______ _______ _____ _____    ______ ____
ROOT
ATOM      1  N   UNL     1      35.282 -22.335 -18.486  0.00  0.00    -0.302 N 
ATOM      2  N   UNL     1      33.071 -22.259 -18.702  0.00  0.00    -0.302 N 
ATOM      3  C   UNL     1      35.043 -21.423 -19.480  0.00  0.00    +0.063 C 
ATOM      4  C   UNL     1      33.656 -21.393 -19.597  0.00  0.00    +0.060 C 
ATOM      5  C   UNL     1      34.074 -22.807 -18.052  0.00  0.00    +0.225 C 
ATOM      6  C   UNL     1      35.894 -20.643 -20.266  0.00  0.00    +0.053 C 
ATOM      7  C   UNL     1      35.290 -19.802 -21.205  0.00  0.00    +0.147 C 
ATOM      8  C   UNL     1      33.065 -20.542 -20.546  0.00  0.00    +0.019 C 
ATOM      9  C   UNL     1      33.901 -19.751 -21.345  0.00  0.00    +0.039 C 
ATOM     10  H   UNL     1      36.166 -22.603 -18.145  0.00  0.00    +0.150 HD
ATOM     11  H   UNL     1      32.110 -22.432 -18.574  0.00  0.00    +0.150 HD
ENDROOT
BRANCH   5  12
ATOM     12  N   UNL     1      34.064 -23.728 -17.063  0.00  0.00    -0.303 N 
ATOM     13  H   UNL     1      34.772 -24.409 -17.125  0.00  0.00    +0.150 HD
BRANCH  12  15
ATOM     14 CL   UNL     1      30.470 -24.334 -12.391  0.00  0.00    -0.082 Cl
ATOM     15  C   UNL     1      33.193 -23.869 -15.946  0.00  0.00    +0.047 C 
ATOM     16  C   UNL     1      31.851 -23.541 -16.079  0.00  0.00    +0.019 C 
ATOM     17  C   UNL     1      30.998 -23.681 -14.984  0.00  0.00    +0.083 C 
ATOM     18  C   UNL     1      33.699 -24.335 -14.740  0.00  0.00    +0.015 C 
ATOM     19  C   UNL     1      31.495 -24.148 -13.767  0.00  0.00    +0.062 C 
ATOM     20  C   UNL     1      32.846 -24.474 -13.645  0.00  0.00    +0.013 C 
BRANCH  17  24
ATOM     21  F   UNL     1      29.174 -22.334 -14.310  0.00  0.00    -0.166 F 
ATOM     22  F   UNL     1      29.281 -22.887 -16.410  0.00  0.00    -0.166 F 
ATOM     23  F   UNL     1      28.757 -24.386 -14.918  0.00  0.00    -0.166 F 
ATOM     24  C   UNL     1      29.558 -23.320 -15.156  0.00  0.00    +0.419 C 
ENDBRANCH  17  24
ENDBRANCH  12  15
ENDBRANCH   5  12
BRANCH   7  25
ATOM     25  O   UNL     1      36.073 -19.018 -22.000  0.00  0.00    -0.453 OA
BRANCH  25  27
ATOM     26  N   UNL     1      34.173 -16.220 -24.416  0.00  0.00    -0.239 NA
ATOM     27  C   UNL     1      35.440 -18.087 -22.805  0.00  0.00    +0.149 C 
ATOM     28  C   UNL     1      35.266 -16.801 -22.339  0.00  0.00    +0.061 C 
ATOM     29  C   UNL     1      34.998 -18.464 -24.055  0.00  0.00    +0.058 C 
ATOM     30  C   UNL     1      34.628 -15.906 -23.181  0.00  0.00    +0.137 C 
ATOM     31  C   UNL     1      34.371 -17.495 -24.822  0.00  0.00    +0.102 C 
BRANCH  30  34
ATOM     32  O   UNL     1      34.546 -14.207 -21.568  0.00  0.00    -0.268 OA
ATOM     33  N   UNL     1      34.062 -13.610 -23.755  0.00  0.00    -0.298 N 
ATOM     34  C   UNL     1      34.408 -14.533 -22.760  0.00  0.00    +0.264 C 
ATOM     35  C   UNL     1      33.833 -12.205 -23.498  0.00  0.00    +0.111 C 
ATOM     36  H   UNL     1      33.968 -13.935 -24.679  0.00  0.00    +0.150 HD
ENDBRANCH  30  34
ENDBRANCH  25  27
ENDBRANCH   7  25
TORSDOF 6
ENDMDL
MODEL 6
REMARK VINA RESULT:     -12.2      6.899     11.148
REMARK  Name = 11167118
REMARK  6 active torsions:
REMARK  status: ('A' for Active; 'I' for Inactive)
REMARK    1  A    between atoms: N_2  and  C_6
REMARK    2  A    between atoms: N_2  and  C_15
REMARK    3  A    between atoms: C_8  and  O_25
REMARK    4  A    between atoms: C_17  and  C_24
REMARK    5  A    between atoms: O_25  and  C_27
REMARK    6  A    between atoms: C_30  and  C_34
REMARK                            x       y       z     vdW  Elec       q    Type
REMARK                         _______ _______ _______ _____ _____    ______ ____
ROOT
ATOM      1  N   UNL     1      34.475 -19.476 -21.215  0.00  0.00    -0.302 N 
ATOM      2  N   UNL     1      36.623 -19.447 -20.645  0.00  0.00    -0.302 N 
ATOM      3  C   UNL     1      34.644 -20.544 -20.372  0.00  0.00    +0.063 C 
ATOM      4  C   UNL     1      35.993 -20.504 -20.030  0.00  0.00    +0.060 C 
ATOM      5  C   UNL     1      35.684 -18.852 -21.348  0.00  0.00    +0.225 C 
ATOM      6  C   UNL     1      33.760 -21.512 -19.892  0.00  0.00    +0.053 C 
ATOM      7  C   UNL     1      34.290 -22.475 -19.027  0.00  0.00    +0.147 C 
ATOM      8  C   UNL     1      36.508 -21.479 -19.159  0.00  0.00    +0.019 C 
ATOM      9  C   UNL     1      35.639 -22.460 -18.666  0.00  0.00    +0.039 C 
ATOM     10  H   UNL     1      33.633 -19.208 -21.648  0.00  0.00    +0.150 HD
ATOM     11  H   UNL     1      37.571 -19.190 -20.575  0.00  0.00    +0.150 HD
ENDROOT
BRANCH   5  12
ATOM     12  N   UNL     1      35.758 -17.761 -22.141  0.00  0.00    -0.303 N 
ATOM     13  H   UNL     1      36.475 -17.788 -22.815  0.00  0.00    +0.150 HD
BRANCH  12  15
ATOM     14 CL   UNL     1      32.452 -12.843 -22.166  0.00  0.00    -0.082 Cl
ATOM     15  C   UNL     1      34.965 -16.579 -22.157  0.00  0.00    +0.047 C 
ATOM     16  C   UNL     1      34.630 -15.996 -23.371  0.00  0.00    +0.019 C 
ATOM     17  C   UNL     1      33.852 -14.838 -23.386  0.00  0.00    +0.083 C 
ATOM     18  C   UNL     1      34.537 -16.027 -20.957  0.00  0.00    +0.015 C 
ATOM     19  C   UNL     1      33.417 -14.274 -22.186  0.00  0.00    +0.062 C 
ATOM     20  C   UNL     1      33.760 -14.868 -20.972  0.00  0.00    +0.013 C 
BRANCH  17  24
ATOM     21  F   UNL     1      32.168 -14.200 -24.920  0.00  0.00    -0.166 F 
ATOM     22  F   UNL     1      33.949 -12.958 -24.824  0.00  0.00    -0.166 F 
ATOM     23  F   UNL     1      34.054 -14.939 -25.726  0.00  0.00    -0.166 F 
ATOM     24  C   UNL     1      33.506 -14.233 -24.708  0.00  0.00    +0.419 C 
ENDBRANCH  17  24
ENDBRANCH  12  15
ENDBRANCH   5  12
BRANCH   7  25
ATOM     25  O   UNL     1      33.473 -23.446 -18.529  0.00  0.00    -0.453 OA
BRANCH  25  27
ATOM     26  N   UNL     1      32.679 -23.388 -14.450  0.00  0.00    -0.239 NA
ATOM     27  C   UNL     1      33.209 -23.427 -17.171  0.00  0.00    +0.149 C 
ATOM     28  C   UNL     1      31.900 -23.381 -16.739  0.00  0.00    +0.061 C 
ATOM     29  C   UNL     1      34.259 -23.455 -16.278  0.00  0.00    +0.058 C 
ATOM     30  C   UNL     1      31.688 -23.363 -15.370  0.00  0.00    +0.137 C 
ATOM     31  C   UNL     1      33.942 -23.434 -14.929  0.00  0.00    +0.102 C 
BRANCH  30  34
ATOM     32  O   UNL     1      30.127 -23.496 -13.626  0.00  0.00    -0.268 OA
ATOM     33  N   UNL     1      29.306 -23.033 -15.743  0.00  0.00    -0.298 N 
ATOM     34  C   UNL     1      30.336 -23.314 -14.838  0.00  0.00    +0.264 C 
ATOM     35  C   UNL     1      27.915 -22.928 -15.365  0.00  0.00    +0.111 C 
ATOM     36  H   UNL     1      29.542 -22.900 -16.690  0.00  0.00    +0.150 HD
ENDBRANCH  30  34
ENDBRANCH  25  27
ENDBRANCH   7  25
TORSDOF 6
ENDMDL
MODEL 7
REMARK VINA RESULT:     -12.1      1.840      2.263
REMARK  Name = 11167118
REMARK  6 active torsions:
REMARK  status: ('A' for Active; 'I' for Inactive)
REMARK    1  A    between atoms: N_2  and  C_6
REMARK    2  A    between atoms: N_2  and  C_15
REMARK    3  A    between atoms: C_8  and  O_25
REMARK    4  A    between atoms: C_17  and  C_24
REMARK    5  A    between atoms: O_25  and  C_27
REMARK    6  A    between atoms: C_30  and  C_34
REMARK                            x       y       z     vdW  Elec       q    Type
REMARK                         _______ _______ _______ _____ _____    ______ ____
ROOT
ATOM      1  N   UNL     1      35.039 -22.822 -18.289  0.00  0.00    -0.302 N 
ATOM      2  N   UNL     1      32.841 -22.528 -18.445  0.00  0.00    -0.302 N 
ATOM      3  C   UNL     1      34.868 -21.832 -19.221  0.00  0.00    +0.063 C 
ATOM      4  C   UNL     1      33.487 -21.667 -19.301  0.00  0.00    +0.060 C 
ATOM      5  C   UNL     1      33.801 -23.206 -17.854  0.00  0.00    +0.225 C 
ATOM      6  C   UNL     1      35.773 -21.088 -19.980  0.00  0.00    +0.053 C 
ATOM      7  C   UNL     1      35.233 -20.138 -20.852  0.00  0.00    +0.147 C 
ATOM      8  C   UNL     1      32.962 -20.707 -20.183  0.00  0.00    +0.019 C 
ATOM      9  C   UNL     1      33.853 -19.949 -20.954  0.00  0.00    +0.039 C 
ATOM     10  H   UNL     1      35.900 -23.191 -17.987  0.00  0.00    +0.150 HD
ATOM     11  H   UNL     1      31.871 -22.619 -18.304  0.00  0.00    +0.150 HD
ENDROOT
BRANCH   5  12
ATOM     12  N   UNL     1      33.723 -24.181 -16.922  0.00  0.00    -0.303 N 
ATOM     13  H   UNL     1      33.298 -25.014 -17.229  0.00  0.00    +0.150 HD
BRANCH  12  15
ATOM     14 CL   UNL     1      35.491 -24.245 -11.267  0.00  0.00    -0.082 Cl
ATOM     15  C   UNL     1      34.158 -24.195 -15.567  0.00  0.00    +0.047 C 
ATOM     16  C   UNL     1      35.500 -23.994 -15.276  0.00  0.00    +0.019 C 
ATOM     17  C   UNL     1      35.925 -24.008 -13.947  0.00  0.00    +0.083 C 
ATOM     18  C   UNL     1      33.232 -24.409 -14.555  0.00  0.00    +0.015 C 
ATOM     19  C   UNL     1      35.003 -24.222 -12.922  0.00  0.00    +0.062 C 
ATOM     20  C   UNL     1      33.657 -24.424 -13.226  0.00  0.00    +0.013 C 
BRANCH  17  24
ATOM     21  F   UNL     1      37.571 -22.876 -12.681  0.00  0.00    -0.166 F 
ATOM     22  F   UNL     1      38.003 -24.923 -13.272  0.00  0.00    -0.166 F 
ATOM     23  F   UNL     1      38.023 -23.334 -14.764  0.00  0.00    -0.166 F 
ATOM     24  C   UNL     1      37.376 -23.788 -13.664  0.00  0.00    +0.419 C 
ENDBRANCH  17  24
ENDBRANCH  12  15
ENDBRANCH   5  12
BRANCH   7  25
ATOM     25  O   UNL     1      36.071 -19.383 -21.618  0.00  0.00    -0.453 OA
BRANCH  25  27
ATOM     26  N   UNL     1      34.349 -16.715 -24.300  0.00  0.00    -0.239 NA
ATOM     27  C   UNL     1      35.498 -18.495 -22.511  0.00  0.00    +0.149 C 
ATOM     28  C   UNL     1      35.348 -17.173 -22.146  0.00  0.00    +0.061 C 
ATOM     29  C   UNL     1      35.089 -18.949 -23.746  0.00  0.00    +0.058 C 
ATOM     30  C   UNL     1      34.769 -16.324 -23.075  0.00  0.00    +0.137 C 
ATOM     31  C   UNL     1      34.521 -18.021 -24.605  0.00  0.00    +0.102 C 
BRANCH  30  34
ATOM     32  O   UNL     1      34.915 -14.465 -21.654  0.00  0.00    -0.268 OA
ATOM     33  N   UNL     1      34.028 -14.112 -23.767  0.00  0.00    -0.298 N 
ATOM     34  C   UNL     1      34.578 -14.918 -22.763  0.00  0.00    +0.264 C 
ATOM     35  C   UNL     1      33.797 -12.693 -23.617  0.00  0.00    +0.111 C 
ATOM     36  H   UNL     1      33.783 -14.536 -24.622  0.00  0.00    +0.150 HD
ENDBRANCH  30  34
ENDBRANCH  25  27
ENDBRANCH   7  25
TORSDOF 6
ENDMDL
MODEL 8
REMARK VINA RESULT:     -11.9      5.592      8.232
REMARK  Name = 11167118
REMARK  6 active torsions:
REMARK  status: ('A' for Active; 'I' for Inactive)
REMARK    1  A    between atoms: N_2  and  C_6
REMARK    2  A    between atoms: N_2  and  C_15
REMARK    3  A    between atoms: C_8  and  O_25
REMARK    4  A    between atoms: C_17  and  C_24
REMARK    5  A    between atoms: O_25  and  C_27
REMARK    6  A    between atoms: C_30  and  C_34
REMARK                            x       y       z     vdW  Elec       q    Type
REMARK                         _______ _______ _______ _____ _____    ______ ____
ROOT
ATOM      1  N   UNL     1      34.314 -16.516 -21.447  0.00  0.00    -0.302 N 
ATOM      2  N   UNL     1      35.317 -15.794 -23.294  0.00  0.00    -0.302 N 
ATOM      3  C   UNL     1      33.702 -15.328 -21.756  0.00  0.00    +0.063 C 
ATOM      4  C   UNL     1      34.347 -14.898 -22.912  0.00  0.00    +0.060 C 
ATOM      5  C   UNL     1      35.271 -16.752 -22.394  0.00  0.00    +0.225 C 
ATOM      6  C   UNL     1      32.672 -14.614 -21.142  0.00  0.00    +0.053 C 
ATOM      7  C   UNL     1      32.293 -13.411 -21.745  0.00  0.00    +0.147 C 
ATOM      8  C   UNL     1      33.954 -13.686 -23.505  0.00  0.00    +0.019 C 
ATOM      9  C   UNL     1      32.921 -12.953 -22.906  0.00  0.00    +0.039 C 
ATOM     10  H   UNL     1      34.100 -17.095 -20.680  0.00  0.00    +0.150 HD
ATOM     11  H   UNL     1      35.918 -15.734 -24.072  0.00  0.00    +0.150 HD
ENDROOT
BRANCH   5  12
ATOM     12  N   UNL     1      36.008 -17.879 -22.292  0.00  0.00    -0.303 N 
ATOM     13  H   UNL     1      36.736 -17.959 -22.950  0.00  0.00    +0.150 HD
BRANCH  12  15
ATOM     14 CL   UNL     1      35.602 -22.423 -18.509  0.00  0.00    -0.082 Cl
ATOM     15  C   UNL     1      35.900 -18.971 -21.384  0.00  0.00    +0.047 C 
ATOM     16  C   UNL     1      34.659 -19.543 -21.146  0.00  0.00    +0.019 C 
ATOM     17  C   UNL     1      34.554 -20.613 -20.257  0.00  0.00    +0.083 C 
ATOM     18  C   UNL     1      37.040 -19.447 -20.751  0.00  0.00    +0.015 C 
ATOM     19  C   UNL     1      35.693 -21.100 -19.614  0.00  0.00    +0.062 C 
ATOM     20  C   UNL     1      36.936 -20.517 -19.861  0.00  0.00    +0.013 C 
BRANCH  17  24
ATOM     21  F   UNL     1      32.709 -20.885 -18.803  0.00  0.00    -0.166 F 
ATOM     22  F   UNL     1      32.292 -20.800 -20.935  0.00  0.00    -0.166 F 
ATOM     23  F   UNL     1      33.252 -22.563 -20.085  0.00  0.00    -0.166 F 
ATOM     24  C   UNL     1      33.204 -21.210 -20.021  0.00  0.00    +0.419 C 
ENDBRANCH  17  24
ENDBRANCH  12  15
ENDBRANCH   5  12
BRANCH   7  25
ATOM     25  O   UNL     1      31.292 -12.671 -21.189  0.00  0.00    -0.453 OA
BRANCH  25  27
ATOM     26  N   UNL     1      32.329  -9.071 -19.392  0.00  0.00    -0.239 NA
ATOM     27  C   UNL     1      31.637 -11.473 -20.590  0.00  0.00    +0.149 C 
ATOM     28  C   UNL     1      31.777 -10.344 -21.371  0.00  0.00    +0.061 C 
ATOM     29  C   UNL     1      31.833 -11.431 -19.227  0.00  0.00    +0.058 C 
ATOM     30  C   UNL     1      32.124  -9.169 -20.724  0.00  0.00    +0.137 C 
ATOM     31  C   UNL     1      32.178 -10.207 -18.675  0.00  0.00    +0.102 C 
BRANCH  30  34
ATOM     32  O   UNL     1      33.403  -7.385 -21.550  0.00  0.00    -0.268 OA
ATOM     33  N   UNL     1      31.159  -7.435 -22.132  0.00  0.00    -0.298 N 
ATOM     34  C   UNL     1      32.291  -7.939 -21.480  0.00  0.00    +0.264 C 
ATOM     35  C   UNL     1      31.169  -6.235 -22.940  0.00  0.00    +0.111 C 
ATOM     36  H   UNL     1      30.310  -7.923 -22.035  0.00  0.00    +0.150 HD
ENDBRANCH  30  34
ENDBRANCH  25  27
ENDBRANCH   7  25
TORSDOF 6
ENDMDL
MODEL 9
REMARK VINA RESULT:     -11.8      2.170      2.977
REMARK  Name = 11167118
REMARK  6 active torsions:
REMARK  status: ('A' for Active; 'I' for Inactive)
REMARK    1  A    between atoms: N_2  and  C_6
REMARK    2  A    between atoms: N_2  and  C_15
REMARK    3  A    between atoms: C_8  and  O_25
REMARK    4  A    between atoms: C_17  and  C_24
REMARK    5  A    between atoms: O_25  and  C_27
REMARK    6  A    between atoms: C_30  and  C_34
REMARK                            x       y       z     vdW  Elec       q    Type
REMARK                         _______ _______ _______ _____ _____    ______ ____
ROOT
ATOM      1  N   UNL     1      33.338 -21.095 -20.058  0.00  0.00    -0.302 N 
ATOM      2  N   UNL     1      35.164 -21.868 -19.055  0.00  0.00    -0.302 N 
ATOM      3  C   UNL     1      34.375 -20.359 -20.570  0.00  0.00    +0.063 C 
ATOM      4  C   UNL     1      35.504 -20.861 -19.927  0.00  0.00    +0.060 C 
ATOM      5  C   UNL     1      33.858 -21.982 -19.158  0.00  0.00    +0.225 C 
ATOM      6  C   UNL     1      34.423 -19.329 -21.511  0.00  0.00    +0.053 C 
ATOM      7  C   UNL     1      35.684 -18.797 -21.799  0.00  0.00    +0.147 C 
ATOM      8  C   UNL     1      36.763 -20.314 -20.229  0.00  0.00    +0.019 C 
ATOM      9  C   UNL     1      36.835 -19.280 -21.170  0.00  0.00    +0.039 C 
ATOM     10  H   UNL     1      32.387 -21.000 -20.298  0.00  0.00    +0.150 HD
ATOM     11  H   UNL     1      35.766 -22.390 -18.477  0.00  0.00    +0.150 HD
ENDROOT
BRANCH   5  12
ATOM     12  N   UNL     1      33.011 -22.821 -18.523  0.00  0.00    -0.303 N 
ATOM     13  H   UNL     1      32.289 -23.185 -19.085  0.00  0.00    +0.150 HD
BRANCH  12  15
ATOM     14 CL   UNL     1      32.901 -24.649 -12.887  0.00  0.00    -0.082 Cl
ATOM     15  C   UNL     1      32.994 -23.262 -17.169  0.00  0.00    +0.047 C 
ATOM     16  C   UNL     1      34.181 -23.643 -16.560  0.00  0.00    +0.019 C 
ATOM     17  C   UNL     1      34.165 -24.075 -15.233  0.00  0.00    +0.083 C 
ATOM     18  C   UNL     1      31.791 -23.304 -16.479  0.00  0.00    +0.015 C 
ATOM     19  C   UNL     1      32.961 -24.121 -14.529  0.00  0.00    +0.062 C 
ATOM     20  C   UNL     1      31.774 -23.736 -15.152  0.00  0.00    +0.013 C 
BRANCH  17  24
ATOM     21  F   UNL     1      36.510 -24.305 -15.438  0.00  0.00    -0.166 F 
ATOM     22  F   UNL     1      35.730 -23.766 -13.482  0.00  0.00    -0.166 F 
ATOM     23  F   UNL     1      35.440 -25.786 -14.248  0.00  0.00    -0.166 F 
ATOM     24  C   UNL     1      35.458 -24.479 -14.602  0.00  0.00    +0.419 C 
ENDBRANCH  17  24
ENDBRANCH  12  15
ENDBRANCH   5  12
BRANCH   7  25
ATOM     25  O   UNL     1      35.791 -17.788 -22.710  0.00  0.00    -0.453 OA
BRANCH  25  27
ATOM     26  N   UNL     1      33.779 -14.243 -21.905  0.00  0.00    -0.239 NA
ATOM     27  C   UNL     1      35.121 -16.608 -22.441  0.00  0.00    +0.149 C 
ATOM     28  C   UNL     1      34.811 -15.757 -23.481  0.00  0.00    +0.061 C 
ATOM     29  C   UNL     1      34.777 -16.308 -21.141  0.00  0.00    +0.058 C 
ATOM     30  C   UNL     1      34.139 -14.588 -23.161  0.00  0.00    +0.137 C 
ATOM     31  C   UNL     1      34.108 -15.114 -20.924  0.00  0.00    +0.102 C 
BRANCH  30  34
ATOM     32  O   UNL     1      33.807 -12.418 -23.983  0.00  0.00    -0.268 OA
ATOM     33  N   UNL     1      33.428 -14.172 -25.450  0.00  0.00    -0.298 N 
ATOM     34  C   UNL     1      33.778 -13.642 -24.203  0.00  0.00    +0.264 C 
ATOM     35  C   UNL     1      33.067 -13.361 -26.591  0.00  0.00    +0.111 C 
ATOM     36  H   UNL     1      33.426 -15.151 -25.556  0.00  0.00    +0.150 HD
ENDBRANCH  30  34
ENDBRANCH  25  27
ENDBRANCH   7  25
TORSDOF 6
ENDMDL
