MODEL 1
REMARK VINA RESULT:     -11.2      0.000      0.000
REMARK  Name = 491941
REMARK  5 active torsions:
REMARK  status: ('A' for Active; 'I' for Inactive)
REMARK    1  A    between atoms: C_5  and  C_17
REMARK    2  A    between atoms: C_7  and  S_11
REMARK    3  A    between atoms: S_11  and  N_14
REMARK    4  A    between atoms: C_17  and  C_18
REMARK    5  A    between atoms: C_21  and  C_25
REMARK                            x       y       z     vdW  Elec       q    Type
REMARK                         _______ _______ _______ _____ _____    ______ ____
ROOT
ATOM      1  S   UNL     1      34.643 -24.934 -13.542  0.00  0.00    -0.035 S 
ATOM      2  O   UNL     1      35.959 -22.787 -17.152  0.00  0.00    -0.274 OA
ATOM      3  N   UNL     1      34.242 -23.613 -15.770  0.00  0.00    -0.227 N 
ATOM      4  N   UNL     1      36.085 -22.952 -14.365  0.00  0.00    -0.386 NA
ATOM      5  C   UNL     1      34.788 -23.140 -16.989  0.00  0.00    +0.236 C 
ATOM      6  C   UNL     1      35.080 -23.704 -14.618  0.00  0.00    +0.217 C 
ATOM      7  C   UNL     1      35.962 -24.440 -12.564  0.00  0.00    +0.247 C 
ATOM      8  C   UNL     1      36.608 -23.377 -13.161  0.00  0.00    +0.123 C 
ATOM      9  C   UNL     1      32.829 -24.014 -15.667  0.00  0.00    +0.123 C 
ATOM     10  C   UNL     1      37.790 -22.673 -12.625  0.00  0.00    +0.064 C 
ENDROOT
BRANCH   7  11
ATOM     11  S   UNL     1      36.188 -25.351 -11.084  0.00  0.00    +0.052 S 
ATOM     12  O   UNL     1      37.160 -24.603 -10.292  0.00  0.00    -0.157 OA
ATOM     13  O   UNL     1      34.844 -25.590 -10.571  0.00  0.00    -0.157 OA
BRANCH  11  14
ATOM     14  N   UNL     1      36.894 -26.871 -11.471  0.00  0.00    -0.206 NA
ATOM     15  H   UNL     1      37.890 -26.848 -11.255  0.00  0.00    +0.144 HD
ATOM     16  H   UNL     1      36.766 -27.063 -12.465  0.00  0.00    +0.144 HD
ENDBRANCH  11  14
ENDBRANCH   7  11
BRANCH   5  17
ATOM     17  C   UNL     1      33.835 -23.113 -18.191  0.00  0.00    +0.112 C 
BRANCH  17  18
ATOM     18  C   UNL     1      34.066 -21.974 -19.124  0.00  0.00    -0.013 C 
ATOM     19  C   UNL     1      35.363 -21.659 -19.533  0.00  0.00    -0.004 C 
ATOM     20  C   UNL     1      32.987 -21.222 -19.589  0.00  0.00    -0.004 C 
ATOM     21  C   UNL     1      34.500 -19.841 -20.869  0.00  0.00    +0.018 C 
ATOM     22  C   UNL     1      35.580 -20.593 -20.406  0.00  0.00    +0.001 C 
ATOM     23  C   UNL     1      33.204 -20.156 -20.462  0.00  0.00    +0.001 C 
BRANCH  21  25
ATOM     24  N   UNL     1      34.905 -17.538 -21.176  0.00  0.00    -0.244 NA
ATOM     25  C   UNL     1      34.724 -18.735 -21.775  0.00  0.00    +0.081 C 
ATOM     26  C   UNL     1      34.744 -18.932 -23.145  0.00  0.00    +0.019 C 
ATOM     27  C   UNL     1      34.965 -17.825 -23.956  0.00  0.00    +0.003 C 
ATOM     28  C   UNL     1      35.117 -16.484 -21.997  0.00  0.00    +0.099 C 
ATOM     29  C   UNL     1      35.156 -16.574 -23.379  0.00  0.00    +0.021 C 
ENDBRANCH  21  25
ENDBRANCH  17  18
ENDBRANCH   5  17
TORSDOF 5
ENDMDL
MODEL 2
REMARK VINA RESULT:     -10.2      8.777     13.424
REMARK  Name = 491941
REMARK  5 active torsions:
REMARK  status: ('A' for Active; 'I' for Inactive)
REMARK    1  A    between atoms: C_5  and  C_17
REMARK    2  A    between atoms: C_7  and  S_11
REMARK    3  A    between atoms: S_11  and  N_14
REMARK    4  A    between atoms: C_17  and  C_18
REMARK    5  A    between atoms: C_21  and  C_25
REMARK                            x       y       z     vdW  Elec       q    Type
REMARK                         _______ _______ _______ _____ _____    ______ ____
ROOT
ATOM      1  S   UNL     1      32.943  -9.078 -23.322  0.00  0.00    -0.035 S 
ATOM      2  O   UNL     1      32.228 -13.293 -22.277  0.00  0.00    -0.274 OA
ATOM      3  N   UNL     1      33.535 -11.631 -23.310  0.00  0.00    -0.227 N 
ATOM      4  N   UNL     1      32.536 -10.681 -21.334  0.00  0.00    -0.386 NA
ATOM      5  C   UNL     1      33.084 -12.958 -23.100  0.00  0.00    +0.236 C 
ATOM      6  C   UNL     1      32.980 -10.572 -22.530  0.00  0.00    +0.217 C 
ATOM      7  C   UNL     1      32.232  -8.432 -21.902  0.00  0.00    +0.247 C 
ATOM      8  C   UNL     1      32.095  -9.428 -20.958  0.00  0.00    +0.123 C 
ATOM      9  C   UNL     1      34.564 -11.321 -24.317  0.00  0.00    +0.123 C 
ATOM     10  C   UNL     1      31.525  -9.264 -19.605  0.00  0.00    +0.064 C 
ENDROOT
BRANCH   7  11
ATOM     11  S   UNL     1      31.856  -6.721 -21.957  0.00  0.00    +0.052 S 
ATOM     12  O   UNL     1      32.730  -6.145 -22.975  0.00  0.00    -0.157 OA
ATOM     13  O   UNL     1      30.407  -6.650 -22.102  0.00  0.00    -0.157 OA
BRANCH  11  14
ATOM     14  N   UNL     1      32.280  -6.011 -20.448  0.00  0.00    -0.206 NA
ATOM     15  H   UNL     1      31.916  -6.585 -19.689  0.00  0.00    +0.144 HD
ATOM     16  H   UNL     1      31.880  -5.074 -20.389  0.00  0.00    +0.144 HD
ENDBRANCH  11  14
ENDBRANCH   7  11
BRANCH   5  17
ATOM     17  C   UNL     1      33.697 -14.032 -24.007  0.00  0.00    +0.112 C 
BRANCH  17  18
ATOM     18  C   UNL     1      34.153 -15.252 -23.281  0.00  0.00    -0.013 C 
ATOM     19  C   UNL     1      34.565 -16.377 -23.996  0.00  0.00    -0.004 C 
ATOM     20  C   UNL     1      34.170 -15.268 -21.886  0.00  0.00    -0.004 C 
ATOM     21  C   UNL     1      35.007 -17.534 -21.923  0.00  0.00    +0.018 C 
ATOM     22  C   UNL     1      34.992 -17.518 -23.317  0.00  0.00    +0.001 C 
ATOM     23  C   UNL     1      34.597 -16.409 -21.207  0.00  0.00    +0.001 C 
BRANCH  21  25
ATOM     24  N   UNL     1      36.755 -18.715 -20.869  0.00  0.00    -0.244 NA
ATOM     25  C   UNL     1      35.451 -18.717 -21.218  0.00  0.00    +0.081 C 
ATOM     26  C   UNL     1      34.571 -19.749 -20.941  0.00  0.00    +0.019 C 
ATOM     27  C   UNL     1      35.065 -20.856 -20.259  0.00  0.00    +0.003 C 
ATOM     28  C   UNL     1      37.199 -19.808 -20.208  0.00  0.00    +0.099 C 
ATOM     29  C   UNL     1      36.403 -20.894 -19.882  0.00  0.00    +0.021 C 
ENDBRANCH  21  25
ENDBRANCH  17  18
ENDBRANCH   5  17
TORSDOF 5
ENDMDL
MODEL 3
REMARK VINA RESULT:     -10.2      3.070      5.283
REMARK  Name = 491941
REMARK  5 active torsions:
REMARK  status: ('A' for Active; 'I' for Inactive)
REMARK    1  A    between atoms: C_5  and  C_17
REMARK    2  A    between atoms: C_7  and  S_11
REMARK    3  A    between atoms: S_11  and  N_14
REMARK    4  A    between atoms: C_17  and  C_18
REMARK    5  A    between atoms: C_21  and  C_25
REMARK                            x       y       z     vdW  Elec       q    Type
REMARK                         _______ _______ _______ _____ _____    ______ ____
ROOT
ATOM      1  S   UNL     1      36.726 -21.858 -17.658  0.00  0.00    -0.035 S 
ATOM      2  O   UNL     1      33.964 -20.105 -20.602  0.00  0.00    -0.274 OA
ATOM      3  N   UNL     1      36.103 -20.890 -20.013  0.00  0.00    -0.227 N 
ATOM      4  N   UNL     1      34.466 -22.229 -18.858  0.00  0.00    -0.386 NA
ATOM      5  C   UNL     1      35.184 -20.140 -20.787  0.00  0.00    +0.236 C 
ATOM      6  C   UNL     1      35.621 -21.679 -18.925  0.00  0.00    +0.217 C 
ATOM      7  C   UNL     1      35.541 -22.806 -16.861  0.00  0.00    +0.247 C 
ATOM      8  C   UNL     1      34.412 -22.893 -17.649  0.00  0.00    +0.123 C 
ATOM      9  C   UNL     1      37.546 -20.872 -20.305  0.00  0.00    +0.123 C 
ATOM     10  C   UNL     1      33.175 -23.625 -17.308  0.00  0.00    +0.064 C 
ENDROOT
BRANCH   7  11
ATOM     11  S   UNL     1      36.004 -23.433 -15.292  0.00  0.00    +0.052 S 
ATOM     12  O   UNL     1      37.288 -22.815 -14.971  0.00  0.00    -0.157 OA
ATOM     13  O   UNL     1      34.845 -23.215 -14.434  0.00  0.00    -0.157 OA
BRANCH  11  14
ATOM     14  N   UNL     1      36.263 -25.128 -15.425  0.00  0.00    -0.206 NA
ATOM     15  H   UNL     1      35.496 -25.548 -15.948  0.00  0.00    +0.144 HD
ATOM     16  H   UNL     1      36.306 -25.539 -14.492  0.00  0.00    +0.144 HD
ENDBRANCH  11  14
ENDBRANCH   7  11
BRANCH   5  17
ATOM     17  C   UNL     1      35.785 -19.284 -21.909  0.00  0.00    +0.112 C 
BRANCH  17  18
ATOM     18  C   UNL     1      35.212 -17.911 -21.999  0.00  0.00    -0.013 C 
ATOM     19  C   UNL     1      34.890 -17.211 -20.836  0.00  0.00    -0.004 C 
ATOM     20  C   UNL     1      34.997 -17.325 -23.247  0.00  0.00    -0.004 C 
ATOM     21  C   UNL     1      34.139 -15.341 -22.168  0.00  0.00    +0.018 C 
ATOM     22  C   UNL     1      34.354 -15.926 -20.920  0.00  0.00    +0.001 C 
ATOM     23  C   UNL     1      34.461 -16.040 -23.331  0.00  0.00    +0.001 C 
BRANCH  21  25
ATOM     24  N   UNL     1      34.132 -13.226 -23.210  0.00  0.00    -0.244 NA
ATOM     25  C   UNL     1      33.583 -14.008 -22.256  0.00  0.00    +0.081 C 
ATOM     26  C   UNL     1      32.566 -13.606 -21.408  0.00  0.00    +0.019 C 
ATOM     27  C   UNL     1      32.079 -12.311 -21.548  0.00  0.00    +0.003 C 
ATOM     28  C   UNL     1      33.633 -11.973 -23.317  0.00  0.00    +0.099 C 
ATOM     29  C   UNL     1      32.617 -11.473 -22.519  0.00  0.00    +0.021 C 
ENDBRANCH  21  25
ENDBRANCH  17  18
ENDBRANCH   5  17
TORSDOF 5
ENDMDL
MODEL 4
REMARK VINA RESULT:     -10.0      2.342      3.259
REMARK  Name = 491941
REMARK  5 active torsions:
REMARK  status: ('A' for Active; 'I' for Inactive)
REMARK    1  A    between atoms: C_5  and  C_17
REMARK    2  A    between atoms: C_7  and  S_11
REMARK    3  A    between atoms: S_11  and  N_14
REMARK    4  A    between atoms: C_17  and  C_18
REMARK    5  A    between atoms: C_21  and  C_25
REMARK                            x       y       z     vdW  Elec       q    Type
REMARK                         _______ _______ _______ _____ _____    ______ ____
ROOT
ATOM      1  S   UNL     1      34.896 -23.211 -14.804  0.00  0.00    -0.035 S 
ATOM      2  O   UNL     1      34.086 -21.860 -18.915  0.00  0.00    -0.274 OA
ATOM      3  N   UNL     1      35.565 -22.698 -17.287  0.00  0.00    -0.227 N 
ATOM      4  N   UNL     1      33.377 -23.614 -16.858  0.00  0.00    -0.386 NA
ATOM      5  C   UNL     1      35.234 -22.044 -18.499  0.00  0.00    +0.236 C 
ATOM      6  C   UNL     1      34.519 -23.198 -16.453  0.00  0.00    +0.217 C 
ATOM      7  C   UNL     1      33.333 -23.861 -14.532  0.00  0.00    +0.247 C 
ATOM      8  C   UNL     1      32.675 -24.005 -15.736  0.00  0.00    +0.123 C 
ATOM      9  C   UNL     1      36.965 -22.875 -16.867  0.00  0.00    +0.123 C 
ATOM     10  C   UNL     1      31.308 -24.534 -15.916  0.00  0.00    +0.064 C 
ENDROOT
BRANCH   7  11
ATOM     11  S   UNL     1      32.932 -24.188 -12.858  0.00  0.00    +0.052 S 
ATOM     12  O   UNL     1      34.202 -24.237 -12.139  0.00  0.00    -0.157 OA
ATOM     13  O   UNL     1      31.921 -23.199 -12.504  0.00  0.00    -0.157 OA
BRANCH  11  14
ATOM     14  N   UNL     1      32.217 -25.749 -12.753  0.00  0.00    -0.206 NA
ATOM     15  H   UNL     1      31.205 -25.654 -12.675  0.00  0.00    +0.144 HD
ATOM     16  H   UNL     1      32.578 -26.234 -11.932  0.00  0.00    +0.144 HD
ENDBRANCH  11  14
ENDBRANCH   7  11
BRANCH   5  17
ATOM     17  C   UNL     1      36.411 -21.498 -19.316  0.00  0.00    +0.112 C 
BRANCH  17  18
ATOM     18  C   UNL     1      36.041 -20.405 -20.259  0.00  0.00    -0.013 C 
ATOM     19  C   UNL     1      37.007 -19.490 -20.681  0.00  0.00    -0.004 C 
ATOM     20  C   UNL     1      34.729 -20.296 -20.720  0.00  0.00    -0.004 C 
ATOM     21  C   UNL     1      35.349 -18.357 -22.023  0.00  0.00    +0.018 C 
ATOM     22  C   UNL     1      36.661 -18.467 -21.563  0.00  0.00    +0.001 C 
ATOM     23  C   UNL     1      34.383 -19.272 -21.603  0.00  0.00    +0.001 C 
BRANCH  21  25
ATOM     24  N   UNL     1      34.932 -16.065 -22.388  0.00  0.00    -0.244 NA
ATOM     25  C   UNL     1      34.989 -17.296 -22.939  0.00  0.00    +0.081 C 
ATOM     26  C   UNL     1      34.731 -17.566 -24.272  0.00  0.00    +0.019 C 
ATOM     27  C   UNL     1      34.391 -16.498 -25.095  0.00  0.00    +0.003 C 
ATOM     28  C   UNL     1      34.598 -15.052 -23.218  0.00  0.00    +0.099 C 
ATOM     29  C   UNL     1      34.322 -15.214 -24.566  0.00  0.00    +0.021 C 
ENDBRANCH  21  25
ENDBRANCH  17  18
ENDBRANCH   5  17
TORSDOF 5
ENDMDL
MODEL 5
REMARK VINA RESULT:      -9.9      2.766      4.613
REMARK  Name = 491941
REMARK  5 active torsions:
REMARK  status: ('A' for Active; 'I' for Inactive)
REMARK    1  A    between atoms: C_5  and  C_17
REMARK    2  A    between atoms: C_7  and  S_11
REMARK    3  A    between atoms: S_11  and  N_14
REMARK    4  A    between atoms: C_17  and  C_18
REMARK    5  A    between atoms: C_21  and  C_25
REMARK                            x       y       z     vdW  Elec       q    Type
REMARK                         _______ _______ _______ _____ _____    ______ ____
ROOT
ATOM      1  S   UNL     1      35.592 -22.801 -16.834  0.00  0.00    -0.035 S 
ATOM      2  O   UNL     1      33.809 -20.447 -20.098  0.00  0.00    -0.274 OA
ATOM      3  N   UNL     1      35.527 -21.825 -19.266  0.00  0.00    -0.227 N 
ATOM      4  N   UNL     1      33.451 -22.517 -18.256  0.00  0.00    -0.386 NA
ATOM      5  C   UNL     1      34.967 -20.871 -20.152  0.00  0.00    +0.236 C 
ATOM      6  C   UNL     1      34.722 -22.360 -18.215  0.00  0.00    +0.217 C 
ATOM      7  C   UNL     1      34.100 -23.284 -16.143  0.00  0.00    +0.247 C 
ATOM      8  C   UNL     1      33.079 -23.060 -17.042  0.00  0.00    +0.123 C 
ATOM      9  C   UNL     1      36.921 -22.275 -19.405  0.00  0.00    +0.123 C 
ATOM     10  C   UNL     1      31.648 -23.348 -16.815  0.00  0.00    +0.064 C 
ENDROOT
BRANCH   7  11
ATOM     11  S   UNL     1      34.195 -23.931 -14.517  0.00  0.00    +0.052 S 
ATOM     12  O   UNL     1      32.951 -23.550 -13.855  0.00  0.00    -0.157 OA
ATOM     13  O   UNL     1      34.542 -25.338 -14.683  0.00  0.00    -0.157 OA
BRANCH  11  14
ATOM     14  N   UNL     1      35.484 -23.155 -13.685  0.00  0.00    -0.206 NA
ATOM     15  H   UNL     1      36.036 -23.852 -13.186  0.00  0.00    +0.144 HD
ATOM     16  H   UNL     1      35.103 -22.482 -13.019  0.00  0.00    +0.144 HD
ENDBRANCH  11  14
ENDBRANCH   7  11
BRANCH   5  17
ATOM     17  C   UNL     1      35.909 -20.313 -21.227  0.00  0.00    +0.112 C 
BRANCH  17  18
ATOM     18  C   UNL     1      35.481 -18.998 -21.785  0.00  0.00    -0.013 C 
ATOM     19  C   UNL     1      35.313 -17.901 -20.939  0.00  0.00    -0.004 C 
ATOM     20  C   UNL     1      35.249 -18.865 -23.154  0.00  0.00    -0.004 C 
ATOM     21  C   UNL     1      34.680 -16.539 -22.830  0.00  0.00    +0.018 C 
ATOM     22  C   UNL     1      34.913 -16.672 -21.461  0.00  0.00    +0.001 C 
ATOM     23  C   UNL     1      34.848 -17.634 -23.676  0.00  0.00    +0.001 C 
BRANCH  21  25
ATOM     24  N   UNL     1      33.772 -15.314 -24.628  0.00  0.00    -0.244 NA
ATOM     25  C   UNL     1      34.265 -15.263 -23.372  0.00  0.00    +0.081 C 
ATOM     26  C   UNL     1      34.381 -14.103 -22.627  0.00  0.00    +0.019 C 
ATOM     27  C   UNL     1      33.963 -12.912 -23.210  0.00  0.00    +0.003 C 
ATOM     28  C   UNL     1      33.375 -14.137 -25.163  0.00  0.00    +0.099 C 
ATOM     29  C   UNL     1      33.449 -12.921 -24.503  0.00  0.00    +0.021 C 
ENDBRANCH  21  25
ENDBRANCH  17  18
ENDBRANCH   5  17
TORSDOF 5
ENDMDL
MODEL 6
REMARK VINA RESULT:      -9.8      1.530      2.164
REMARK  Name = 491941
REMARK  5 active torsions:
REMARK  status: ('A' for Active; 'I' for Inactive)
REMARK    1  A    between atoms: C_5  and  C_17
REMARK    2  A    between atoms: C_7  and  S_11
REMARK    3  A    between atoms: S_11  and  N_14
REMARK    4  A    between atoms: C_17  and  C_18
REMARK    5  A    between atoms: C_21  and  C_25
REMARK                            x       y       z     vdW  Elec       q    Type
REMARK                         _______ _______ _______ _____ _____    ______ ____
ROOT
ATOM      1  S   UNL     1      34.337 -24.157 -15.305  0.00  0.00    -0.035 S 
ATOM      2  O   UNL     1      37.122 -22.329 -18.182  0.00  0.00    -0.274 OA
ATOM      3  N   UNL     1      34.930 -22.828 -17.485  0.00  0.00    -0.227 N 
ATOM      4  N   UNL     1      36.278 -22.463 -15.522  0.00  0.00    -0.386 NA
ATOM      5  C   UNL     1      35.922 -22.476 -18.433  0.00  0.00    +0.236 C 
ATOM      6  C   UNL     1      35.306 -23.039 -16.124  0.00  0.00    +0.217 C 
ATOM      7  C   UNL     1      35.315 -23.877 -13.926  0.00  0.00    +0.247 C 
ATOM      8  C   UNL     1      36.290 -22.950 -14.230  0.00  0.00    +0.123 C 
ATOM      9  C   UNL     1      33.518 -22.981 -17.874  0.00  0.00    +0.123 C 
ATOM     10  C   UNL     1      37.324 -22.447 -13.303  0.00  0.00    +0.064 C 
ENDROOT
BRANCH   7  11
ATOM     11  S   UNL     1      34.879 -24.787 -12.493  0.00  0.00    +0.052 S 
ATOM     12  O   UNL     1      35.079 -23.885 -11.362  0.00  0.00    -0.157 OA
ATOM     13  O   UNL     1      33.558 -25.336 -12.774  0.00  0.00    -0.157 OA
BRANCH  11  14
ATOM     14  N   UNL     1      35.978 -26.097 -12.312  0.00  0.00    -0.206 NA
ATOM     15  H   UNL     1      36.258 -26.436 -13.232  0.00  0.00    +0.144 HD
ATOM     16  H   UNL     1      35.526 -26.851 -11.794  0.00  0.00    +0.144 HD
ENDBRANCH  11  14
ENDBRANCH   7  11
BRANCH   5  17
ATOM     17  C   UNL     1      35.445 -22.309 -19.881  0.00  0.00    +0.112 C 
BRANCH  17  18
ATOM     18  C   UNL     1      35.272 -20.890 -20.304  0.00  0.00    -0.013 C 
ATOM     19  C   UNL     1      36.391 -20.084 -20.518  0.00  0.00    -0.004 C 
ATOM     20  C   UNL     1      33.992 -20.368 -20.487  0.00  0.00    -0.004 C 
ATOM     21  C   UNL     1      34.949 -18.234 -21.095  0.00  0.00    +0.018 C 
ATOM     22  C   UNL     1      36.229 -18.756 -20.913  0.00  0.00    +0.001 C 
ATOM     23  C   UNL     1      33.830 -19.040 -20.883  0.00  0.00    +0.001 C 
BRANCH  21  25
ATOM     24  N   UNL     1      34.992 -16.626 -22.819  0.00  0.00    -0.244 NA
ATOM     25  C   UNL     1      34.780 -16.857 -21.506  0.00  0.00    +0.081 C 
ATOM     26  C   UNL     1      34.427 -15.882 -20.590  0.00  0.00    +0.019 C 
ATOM     27  C   UNL     1      34.281 -14.579 -21.054  0.00  0.00    +0.003 C 
ATOM     28  C   UNL     1      34.842 -15.347 -23.234  0.00  0.00    +0.099 C 
ATOM     29  C   UNL     1      34.491 -14.298 -22.400  0.00  0.00    +0.021 C 
ENDBRANCH  21  25
ENDBRANCH  17  18
ENDBRANCH   5  17
TORSDOF 5
ENDMDL
MODEL 7
REMARK VINA RESULT:      -9.7      5.338     10.676
REMARK  Name = 491941
REMARK  5 active torsions:
REMARK  status: ('A' for Active; 'I' for Inactive)
REMARK    1  A    between atoms: C_5  and  C_17
REMARK    2  A    between atoms: C_7  and  S_11
REMARK    3  A    between atoms: S_11  and  N_14
REMARK    4  A    between atoms: C_17  and  C_18
REMARK    5  A    between atoms: C_21  and  C_25
REMARK                            x       y       z     vdW  Elec       q    Type
REMARK                         _______ _______ _______ _____ _____    ______ ____
ROOT
ATOM      1  S   UNL     1      34.912 -16.477 -23.269  0.00  0.00    -0.035 S 
ATOM      2  O   UNL     1      33.937 -19.355 -20.084  0.00  0.00    -0.274 OA
ATOM      3  N   UNL     1      35.445 -18.483 -21.668  0.00  0.00    -0.227 N 
ATOM      4  N   UNL     1      34.112 -16.665 -20.817  0.00  0.00    -0.386 NA
ATOM      5  C   UNL     1      34.938 -19.479 -20.796  0.00  0.00    +0.236 C 
ATOM      6  C   UNL     1      34.774 -17.226 -21.759  0.00  0.00    +0.217 C 
ATOM      7  C   UNL     1      33.961 -15.200 -22.635  0.00  0.00    +0.247 C 
ATOM      8  C   UNL     1      33.632 -15.474 -21.324  0.00  0.00    +0.123 C 
ATOM      9  C   UNL     1      36.649 -18.717 -22.482  0.00  0.00    +0.123 C 
ATOM     10  C   UNL     1      32.823 -14.612 -20.438  0.00  0.00    +0.064 C 
ENDROOT
BRANCH   7  11
ATOM     11  S   UNL     1      33.633 -13.881 -23.742  0.00  0.00    +0.052 S 
ATOM     12  O   UNL     1      34.072 -14.337 -25.058  0.00  0.00    -0.157 OA
ATOM     13  O   UNL     1      32.238 -13.524 -23.512  0.00  0.00    -0.157 OA
BRANCH  11  14
ATOM     14  N   UNL     1      34.612 -12.535 -23.308  0.00  0.00    -0.206 NA
ATOM     15  H   UNL     1      34.951 -12.075 -24.152  0.00  0.00    +0.144 HD
ATOM     16  H   UNL     1      35.405 -12.857 -22.752  0.00  0.00    +0.144 HD
ENDBRANCH  11  14
ENDBRANCH   7  11
BRANCH   5  17
ATOM     17  C   UNL     1      35.689 -20.816 -20.787  0.00  0.00    +0.112 C 
BRANCH  17  18
ATOM     18  C   UNL     1      35.685 -21.506 -19.466  0.00  0.00    -0.013 C 
ATOM     19  C   UNL     1      36.819 -21.467 -18.654  0.00  0.00    -0.004 C 
ATOM     20  C   UNL     1      34.547 -22.192 -19.041  0.00  0.00    -0.004 C 
ATOM     21  C   UNL     1      35.678 -22.799 -16.994  0.00  0.00    +0.018 C 
ATOM     22  C   UNL     1      36.816 -22.112 -17.418  0.00  0.00    +0.001 C 
ATOM     23  C   UNL     1      34.543 -22.838 -17.805  0.00  0.00    +0.001 C 
BRANCH  21  25
ATOM     24  N   UNL     1      36.881 -23.563 -15.115  0.00  0.00    -0.244 NA
ATOM     25  C   UNL     1      35.673 -23.469 -15.712  0.00  0.00    +0.081 C 
ATOM     26  C   UNL     1      34.497 -23.960 -15.172  0.00  0.00    +0.019 C 
ATOM     27  C   UNL     1      34.565 -24.593 -13.936  0.00  0.00    +0.003 C 
ATOM     28  C   UNL     1      36.909 -24.185 -13.915  0.00  0.00    +0.099 C 
ATOM     29  C   UNL     1      35.790 -24.711 -13.288  0.00  0.00    +0.021 C 
ENDBRANCH  21  25
ENDBRANCH  17  18
ENDBRANCH   5  17
TORSDOF 5
ENDMDL
MODEL 8
REMARK VINA RESULT:      -9.5      1.938      2.445
REMARK  Name = 491941
REMARK  5 active torsions:
REMARK  status: ('A' for Active; 'I' for Inactive)
REMARK    1  A    between atoms: C_5  and  C_17
REMARK    2  A    between atoms: C_7  and  S_11
REMARK    3  A    between atoms: S_11  and  N_14
REMARK    4  A    between atoms: C_17  and  C_18
REMARK    5  A    between atoms: C_21  and  C_25
REMARK                            x       y       z     vdW  Elec       q    Type
REMARK                         _______ _______ _______ _____ _____    ______ ____
ROOT
ATOM      1  S   UNL     1      36.685 -24.905 -14.307  0.00  0.00    -0.035 S 
ATOM      2  O   UNL     1      32.855 -22.774 -14.724  0.00  0.00    -0.274 OA
ATOM      3  N   UNL     1      34.354 -24.451 -15.418  0.00  0.00    -0.227 N 
ATOM      4  N   UNL     1      34.546 -24.214 -13.028  0.00  0.00    -0.386 NA
ATOM      5  C   UNL     1      33.268 -23.558 -15.584  0.00  0.00    +0.236 C 
ATOM      6  C   UNL     1      35.053 -24.478 -14.174  0.00  0.00    +0.217 C 
ATOM      7  C   UNL     1      36.789 -24.727 -12.605  0.00  0.00    +0.247 C 
ATOM      8  C   UNL     1      35.559 -24.358 -12.101  0.00  0.00    +0.123 C 
ATOM      9  C   UNL     1      34.778 -25.353 -16.501  0.00  0.00    +0.123 C 
ATOM     10  C   UNL     1      35.247 -24.110 -10.679  0.00  0.00    +0.064 C 
ENDROOT
BRANCH   7  11
ATOM     11  S   UNL     1      38.366 -25.042 -11.908  0.00  0.00    +0.052 S 
ATOM     12  O   UNL     1      38.731 -23.838 -11.168  0.00  0.00    -0.157 OA
ATOM     13  O   UNL     1      38.233 -26.320 -11.219  0.00  0.00    -0.157 OA
BRANCH  11  14
ATOM     14  N   UNL     1      39.507 -25.234 -13.181  0.00  0.00    -0.206 NA
ATOM     15  H   UNL     1      39.174 -25.945 -13.831  0.00  0.00    +0.144 HD
ATOM     16  H   UNL     1      40.405 -25.523 -12.792  0.00  0.00    +0.144 HD
ENDBRANCH  11  14
ENDBRANCH   7  11
BRANCH   5  17
ATOM     17  C   UNL     1      32.596 -23.558 -16.963  0.00  0.00    +0.112 C 
BRANCH  17  18
ATOM     18  C   UNL     1      33.266 -22.682 -17.966  0.00  0.00    -0.013 C 
ATOM     19  C   UNL     1      32.506 -21.825 -18.762  0.00  0.00    -0.004 C 
ATOM     20  C   UNL     1      34.654 -22.719 -18.107  0.00  0.00    -0.004 C 
ATOM     21  C   UNL     1      34.520 -21.042 -19.842  0.00  0.00    +0.018 C 
ATOM     22  C   UNL     1      33.133 -21.005 -19.700  0.00  0.00    +0.001 C 
ATOM     23  C   UNL     1      35.281 -21.899 -19.046  0.00  0.00    +0.001 C 
BRANCH  21  25
ATOM     24  N   UNL     1      36.383 -19.727 -20.443  0.00  0.00    -0.244 NA
ATOM     25  C   UNL     1      35.172 -20.192 -20.815  0.00  0.00    +0.081 C 
ATOM     26  C   UNL     1      34.564 -19.902 -22.024  0.00  0.00    +0.019 C 
ATOM     27  C   UNL     1      35.247 -19.078 -22.912  0.00  0.00    +0.003 C 
ATOM     28  C   UNL     1      37.018 -18.929 -21.331  0.00  0.00    +0.099 C 
ATOM     29  C   UNL     1      36.498 -18.578 -22.567  0.00  0.00    +0.021 C 
ENDBRANCH  21  25
ENDBRANCH  17  18
ENDBRANCH   5  17
TORSDOF 5
ENDMDL
MODEL 9
REMARK VINA RESULT:      -9.3      8.079     11.964
REMARK  Name = 491941
REMARK  5 active torsions:
REMARK  status: ('A' for Active; 'I' for Inactive)
REMARK    1  A    between atoms: C_5  and  C_17
REMARK    2  A    between atoms: C_7  and  S_11
REMARK    3  A    between atoms: S_11  and  N_14
REMARK    4  A    between atoms: C_17  and  C_18
REMARK    5  A    between atoms: C_21  and  C_25
REMARK                            x       y       z     vdW  Elec       q    Type
REMARK                         _______ _______ _______ _____ _____    ______ ____
ROOT
ATOM      1  S   UNL     1      34.632 -16.663 -21.021  0.00  0.00    -0.035 S 
ATOM      2  O   UNL     1      32.020 -13.703 -22.967  0.00  0.00    -0.274 OA
ATOM      3  N   UNL     1      33.539 -14.293 -21.269  0.00  0.00    -0.227 N 
ATOM      4  N   UNL     1      34.149 -15.487 -23.272  0.00  0.00    -0.386 NA
ATOM      5  C   UNL     1      32.512 -13.511 -21.852  0.00  0.00    +0.236 C 
ATOM      6  C   UNL     1      34.073 -15.400 -21.997  0.00  0.00    +0.217 C 
ATOM      7  C   UNL     1      35.054 -17.487 -22.464  0.00  0.00    +0.247 C 
ATOM      8  C   UNL     1      34.724 -16.710 -23.554  0.00  0.00    +0.123 C 
ATOM      9  C   UNL     1      34.069 -13.990 -19.930  0.00  0.00    +0.123 C 
ATOM     10  C   UNL     1      34.934 -17.074 -24.970  0.00  0.00    +0.064 C 
ENDROOT
BRANCH   7  11
ATOM     11  S   UNL     1      35.783 -19.066 -22.246  0.00  0.00    +0.052 S 
ATOM     12  O   UNL     1      35.126 -19.951 -23.203  0.00  0.00    -0.157 OA
ATOM     13  O   UNL     1      37.222 -18.837 -22.318  0.00  0.00    -0.157 OA
BRANCH  11  14
ATOM     14  N   UNL     1      35.408 -19.638 -20.668  0.00  0.00    -0.206 NA
ATOM     15  H   UNL     1      36.269 -19.747 -20.133  0.00  0.00    +0.144 HD
ATOM     16  H   UNL     1      34.933 -20.538 -20.737  0.00  0.00    +0.144 HD
ENDBRANCH  11  14
ENDBRANCH   7  11
BRANCH   5  17
ATOM     17  C   UNL     1      31.962 -12.367 -20.990  0.00  0.00    +0.112 C 
BRANCH  17  18
ATOM     18  C   UNL     1      32.112 -11.017 -21.605  0.00  0.00    -0.013 C 
ATOM     19  C   UNL     1      32.844 -10.864 -22.783  0.00  0.00    -0.004 C 
ATOM     20  C   UNL     1      31.520  -9.907 -21.002  0.00  0.00    -0.004 C 
ATOM     21  C   UNL     1      32.393  -8.491 -22.755  0.00  0.00    +0.018 C 
ATOM     22  C   UNL     1      32.984  -9.601 -23.358  0.00  0.00    +0.001 C 
ATOM     23  C   UNL     1      31.661  -8.643 -21.577  0.00  0.00    +0.001 C 
BRANCH  21  25
ATOM     24  N   UNL     1      31.528  -6.323 -23.090  0.00  0.00    -0.244 NA
ATOM     25  C   UNL     1      32.538  -7.181 -23.351  0.00  0.00    +0.081 C 
ATOM     26  C   UNL     1      33.643  -6.871 -24.123  0.00  0.00    +0.019 C 
ATOM     27  C   UNL     1      33.718  -5.592 -24.665  0.00  0.00    +0.003 C 
ATOM     28  C   UNL     1      31.635  -5.089 -23.633  0.00  0.00    +0.099 C 
ATOM     29  C   UNL     1      32.699  -4.679 -24.420  0.00  0.00    +0.021 C 
ENDBRANCH  21  25
ENDBRANCH  17  18
ENDBRANCH   5  17
TORSDOF 5
ENDMDL
