MODEL 1
REMARK VINA RESULT:     -11.9      0.000      0.000
REMARK  Name = 448890
REMARK  6 active torsions:
REMARK  status: ('A' for Active; 'I' for Inactive)
REMARK    1  A    between atoms: C_1  and  C_2
REMARK    2  A    between atoms: C_1  and  C_17
REMARK    3  A    between atoms: C_2  and  C_3
REMARK    4  A    between atoms: C_3  and  N_4
REMARK    5  A    between atoms: C_8  and  C_11
REMARK    6  A    between atoms: C_17  and  N_21
REMARK                            x       y       z     vdW  Elec       q    Type
REMARK                         _______ _______ _______ _____ _____    ______ ____
ROOT
ATOM      1  C   UNL     1      33.318 -14.699 -24.618  0.00  0.00    +0.022 C 
ENDROOT
BRANCH   1   2
ATOM      2  C   UNL     1      33.783 -16.140 -24.853  0.00  0.00    -0.021 C 
BRANCH   2   3
ATOM      3  C   UNL     1      35.257 -16.308 -24.485  0.00  0.00    -0.077 C 
BRANCH   3   4
ATOM      4  N   UNL     1      35.414 -17.376 -23.499  0.00  0.00    +0.390 N 
ATOM      5  C   UNL     1      34.987 -16.933 -22.169  0.00  0.00    -0.072 C 
ATOM      6  C   UNL     1      34.671 -18.577 -23.910  0.00  0.00    -0.051 C 
ATOM      7  C   UNL     1      35.319 -18.014 -21.128  0.00  0.00    +0.003 C 
ATOM      8  C   UNL     1      34.878 -19.397 -21.552  0.00  0.00    -0.031 C 
ATOM      9  C   UNL     1      34.581 -19.637 -22.844  0.00  0.00    -0.053 C 
ATOM     10  H   UNL     1      36.406 -17.612 -23.449  0.00  0.00    -0.079 HD
BRANCH   8  11
ATOM     11  C   UNL     1      34.793 -20.456 -20.519  0.00  0.00    -0.004 C 
ATOM     12  C   UNL     1      33.548 -20.887 -20.057  0.00  0.00    -0.000 C 
ATOM     13  C   UNL     1      35.959 -21.028 -20.005  0.00  0.00    -0.000 C 
ATOM     14  C   UNL     1      33.469 -21.884 -19.085  0.00  0.00    -0.000 C 
ATOM     15  C   UNL     1      35.880 -22.025 -19.033  0.00  0.00    -0.000 C 
ATOM     16  C   UNL     1      34.635 -22.454 -18.572  0.00  0.00    -0.000 C 
ENDBRANCH   8  11
ENDBRANCH   3   4
ENDBRANCH   2   3
ENDBRANCH   1   2
BRANCH   1  17
ATOM     17  C   UNL     1      34.216 -13.943 -23.644  0.00  0.00    +0.110 C 
BRANCH  17  21
ATOM     18  F   UNL     1      31.090  -9.978 -20.150  0.00  0.00    -0.204 F 
ATOM     19  O   UNL     1      34.546 -11.588 -25.150  0.00  0.00    -0.246 OA
ATOM     20  O   UNL     1      32.128  -9.010 -22.246  0.00  0.00    -0.267 OA
ATOM     21  N   UNL     1      33.663 -12.644 -23.270  0.00  0.00    -0.281 N 
ATOM     22  N   UNL     1      33.335 -10.338 -23.679  0.00  0.00    -0.274 N 
ATOM     23  C   UNL     1      32.899 -12.532 -22.067  0.00  0.00    +0.071 A 
ATOM     24  C   UNL     1      33.895 -11.541 -24.102  0.00  0.00    +0.330 A 
ATOM     25  C   UNL     1      32.361 -11.295 -21.692  0.00  0.00    +0.099 A 
ATOM     26  C   UNL     1      32.663 -13.635 -21.228  0.00  0.00    +0.018 C 
ATOM     27  C   UNL     1      32.582 -10.111 -22.540  0.00  0.00    +0.265 A 
ATOM     28  C   UNL     1      31.609 -11.158 -20.516  0.00  0.00    +0.146 C 
ATOM     29  C   UNL     1      31.913 -13.501 -20.056  0.00  0.00    +0.004 C 
ATOM     30  C   UNL     1      31.386 -12.264 -19.701  0.00  0.00    +0.030 C 
ATOM     31  H   UNL     1      33.494  -9.557 -24.258  0.00  0.00    +0.173 HD
ENDBRANCH  17  21
ENDBRANCH   1  17
TORSDOF 6
ENDMDL
MODEL 2
REMARK VINA RESULT:     -11.8      1.459      2.351
REMARK  Name = 448890
REMARK  6 active torsions:
REMARK  status: ('A' for Active; 'I' for Inactive)
REMARK    1  A    between atoms: C_1  and  C_2
REMARK    2  A    between atoms: C_1  and  C_17
REMARK    3  A    between atoms: C_2  and  C_3
REMARK    4  A    between atoms: C_3  and  N_4
REMARK    5  A    between atoms: C_8  and  C_11
REMARK    6  A    between atoms: C_17  and  N_21
REMARK                            x       y       z     vdW  Elec       q    Type
REMARK                         _______ _______ _______ _____ _____    ______ ____
ROOT
ATOM      1  C   UNL     1      33.332 -14.444 -24.649  0.00  0.00    +0.022 C 
ENDROOT
BRANCH   1   2
ATOM      2  C   UNL     1      33.772 -15.903 -24.802  0.00  0.00    -0.021 C 
BRANCH   2   3
ATOM      3  C   UNL     1      35.246 -16.074 -24.438  0.00  0.00    -0.077 C 
BRANCH   3   4
ATOM      4  N   UNL     1      35.408 -17.169 -23.483  0.00  0.00    +0.390 N 
ATOM      5  C   UNL     1      34.967 -16.772 -22.143  0.00  0.00    -0.072 C 
ATOM      6  C   UNL     1      34.682 -18.366 -23.935  0.00  0.00    -0.051 C 
ATOM      7  C   UNL     1      35.303 -17.880 -21.133  0.00  0.00    +0.003 C 
ATOM      8  C   UNL     1      34.881 -19.254 -21.602  0.00  0.00    -0.031 C 
ATOM      9  C   UNL     1      34.597 -19.458 -22.903  0.00  0.00    -0.053 C 
ATOM     10  H   UNL     1      36.402 -17.396 -23.432  0.00  0.00    -0.079 HD
BRANCH   8  11
ATOM     11  C   UNL     1      34.801 -20.345 -20.602  0.00  0.00    -0.004 C 
ATOM     12  C   UNL     1      33.558 -20.805 -20.164  0.00  0.00    -0.000 C 
ATOM     13  C   UNL     1      35.970 -20.918 -20.094  0.00  0.00    -0.000 C 
ATOM     14  C   UNL     1      33.483 -21.832 -19.223  0.00  0.00    -0.000 C 
ATOM     15  C   UNL     1      35.895 -21.945 -19.153  0.00  0.00    -0.000 C 
ATOM     16  C   UNL     1      34.651 -22.402 -18.717  0.00  0.00    -0.000 C 
ENDBRANCH   8  11
ENDBRANCH   3   4
ENDBRANCH   2   3
ENDBRANCH   1   2
BRANCH   1  17
ATOM     17  C   UNL     1      34.093 -13.714 -23.546  0.00  0.00    +0.110 C 
BRANCH  17  21
ATOM     18  F   UNL     1      31.553  -8.614 -21.255  0.00  0.00    -0.204 F 
ATOM     19  O   UNL     1      32.344 -14.839 -21.649  0.00  0.00    -0.246 OA
ATOM     20  O   UNL     1      30.735 -10.791 -20.255  0.00  0.00    -0.267 OA
ATOM     21  N   UNL     1      33.209 -12.937 -22.680  0.00  0.00    -0.281 N 
ATOM     22  N   UNL     1      31.569 -12.803 -20.982  0.00  0.00    -0.274 N 
ATOM     23  C   UNL     1      33.212 -11.511 -22.780  0.00  0.00    +0.071 A 
ATOM     24  C   UNL     1      32.382 -13.612 -21.773  0.00  0.00    +0.330 A 
ATOM     25  C   UNL     1      32.371 -10.750 -21.959  0.00  0.00    +0.099 A 
ATOM     26  C   UNL     1      34.039 -10.829 -23.689  0.00  0.00    +0.018 C 
ATOM     27  C   UNL     1      31.486 -11.422 -20.991  0.00  0.00    +0.265 A 
ATOM     28  C   UNL     1      32.354  -9.350 -22.038  0.00  0.00    +0.146 C 
ATOM     29  C   UNL     1      34.024  -9.434 -23.769  0.00  0.00    +0.004 C 
ATOM     30  C   UNL     1      33.182  -8.695 -22.944  0.00  0.00    +0.030 C 
ATOM     31  H   UNL     1      30.983 -13.269 -20.341  0.00  0.00    +0.173 HD
ENDBRANCH  17  21
ENDBRANCH   1  17
TORSDOF 6
ENDMDL
MODEL 3
REMARK VINA RESULT:     -11.5      7.971     12.640
REMARK  Name = 448890
REMARK  6 active torsions:
REMARK  status: ('A' for Active; 'I' for Inactive)
REMARK    1  A    between atoms: C_1  and  C_2
REMARK    2  A    between atoms: C_1  and  C_17
REMARK    3  A    between atoms: C_2  and  C_3
REMARK    4  A    between atoms: C_3  and  N_4
REMARK    5  A    between atoms: C_8  and  C_11
REMARK    6  A    between atoms: C_17  and  N_21
REMARK                            x       y       z     vdW  Elec       q    Type
REMARK                         _______ _______ _______ _____ _____    ______ ____
ROOT
ATOM      1  C   UNL     1      33.818 -23.870 -16.003  0.00  0.00    +0.022 C 
ENDROOT
BRANCH   1   2
ATOM      2  C   UNL     1      33.807 -23.150 -17.355  0.00  0.00    -0.021 C 
BRANCH   2   3
ATOM      3  C   UNL     1      35.220 -22.748 -17.776  0.00  0.00    -0.077 C 
BRANCH   3   4
ATOM      4  N   UNL     1      35.172 -21.594 -18.672  0.00  0.00    +0.390 N 
ATOM      5  C   UNL     1      36.332 -21.572 -19.568  0.00  0.00    -0.072 C 
ATOM      6  C   UNL     1      33.920 -21.585 -19.445  0.00  0.00    -0.051 C 
ATOM      7  C   UNL     1      36.342 -20.267 -20.378  0.00  0.00    +0.003 C 
ATOM      8  C   UNL     1      35.002 -19.950 -21.003  0.00  0.00    -0.031 C 
ATOM      9  C   UNL     1      33.893 -20.573 -20.558  0.00  0.00    -0.053 C 
ATOM     10  H   UNL     1      35.202 -20.750 -18.099  0.00  0.00    -0.079 HD
BRANCH   8  11
ATOM     11  C   UNL     1      34.953 -18.948 -22.094  0.00  0.00    -0.004 C 
ATOM     12  C   UNL     1      34.613 -19.339 -23.391  0.00  0.00    -0.000 C 
ATOM     13  C   UNL     1      35.247 -17.608 -21.828  0.00  0.00    -0.000 C 
ATOM     14  C   UNL     1      34.567 -18.395 -24.417  0.00  0.00    -0.000 C 
ATOM     15  C   UNL     1      35.201 -16.665 -22.855  0.00  0.00    -0.000 C 
ATOM     16  C   UNL     1      34.861 -17.058 -24.149  0.00  0.00    -0.000 C 
ENDBRANCH   8  11
ENDBRANCH   3   4
ENDBRANCH   2   3
ENDBRANCH   1   2
BRANCH   1  17
ATOM     17  C   UNL     1      34.616 -23.116 -14.943  0.00  0.00    +0.110 C 
BRANCH  17  21
ATOM     18  F   UNL     1      39.146 -26.429 -12.450  0.00  0.00    -0.204 F 
ATOM     19  O   UNL     1      33.271 -24.205 -12.724  0.00  0.00    -0.246 OA
ATOM     20  O   UNL     1      36.928 -26.513 -11.233  0.00  0.00    -0.267 OA
ATOM     21  N   UNL     1      35.232 -24.012 -13.968  0.00  0.00    -0.281 N 
ATOM     22  N   UNL     1      35.115 -25.340 -12.014  0.00  0.00    -0.274 N 
ATOM     23  C   UNL     1      36.604 -24.377 -14.125  0.00  0.00    +0.071 A 
ATOM     24  C   UNL     1      34.458 -24.491 -12.902  0.00  0.00    +0.330 A 
ATOM     25  C   UNL     1      37.212 -25.235 -13.200  0.00  0.00    +0.099 A 
ATOM     26  C   UNL     1      37.385 -23.900 -15.192  0.00  0.00    +0.018 C 
ATOM     27  C   UNL     1      36.433 -25.760 -12.065  0.00  0.00    +0.265 A 
ATOM     28  C   UNL     1      38.557 -25.608 -13.331  0.00  0.00    +0.146 C 
ATOM     29  C   UNL     1      38.726 -24.270 -15.325  0.00  0.00    +0.004 C 
ATOM     30  C   UNL     1      39.312 -25.124 -14.396  0.00  0.00    +0.030 C 
ATOM     31  H   UNL     1      34.579 -25.682 -11.261  0.00  0.00    +0.173 HD
ENDBRANCH  17  21
ENDBRANCH   1  17
TORSDOF 6
ENDMDL
MODEL 4
REMARK VINA RESULT:     -11.3      7.297     12.224
REMARK  Name = 448890
REMARK  6 active torsions:
REMARK  status: ('A' for Active; 'I' for Inactive)
REMARK    1  A    between atoms: C_1  and  C_2
REMARK    2  A    between atoms: C_1  and  C_17
REMARK    3  A    between atoms: C_2  and  C_3
REMARK    4  A    between atoms: C_3  and  N_4
REMARK    5  A    between atoms: C_8  and  C_11
REMARK    6  A    between atoms: C_17  and  N_21
REMARK                            x       y       z     vdW  Elec       q    Type
REMARK                         _______ _______ _______ _____ _____    ______ ____
ROOT
ATOM      1  C   UNL     1      33.926 -23.895 -15.440  0.00  0.00    +0.022 C 
ENDROOT
BRANCH   1   2
ATOM      2  C   UNL     1      33.232 -23.200 -16.617  0.00  0.00    -0.021 C 
BRANCH   2   3
ATOM      3  C   UNL     1      33.970 -23.470 -17.927  0.00  0.00    -0.077 C 
BRANCH   3   4
ATOM      4  N   UNL     1      34.237 -22.214 -18.627  0.00  0.00    +0.390 N 
ATOM      5  C   UNL     1      35.360 -22.357 -19.558  0.00  0.00    -0.072 C 
ATOM      6  C   UNL     1      33.034 -21.746 -19.332  0.00  0.00    -0.051 C 
ATOM      7  C   UNL     1      35.722 -20.987 -20.151  0.00  0.00    +0.003 C 
ATOM      8  C   UNL     1      34.518 -20.226 -20.659  0.00  0.00    -0.031 C 
ATOM      9  C   UNL     1      33.282 -20.594 -20.269  0.00  0.00    -0.053 C 
ATOM     10  H   UNL     1      34.493 -21.515 -17.929  0.00  0.00    -0.079 HD
BRANCH   8  11
ATOM     11  C   UNL     1      34.743 -19.082 -21.574  0.00  0.00    -0.004 C 
ATOM     12  C   UNL     1      34.894 -17.792 -21.061  0.00  0.00    -0.000 C 
ATOM     13  C   UNL     1      34.805 -19.290 -22.954  0.00  0.00    -0.000 C 
ATOM     14  C   UNL     1      35.106 -16.716 -21.923  0.00  0.00    -0.000 C 
ATOM     15  C   UNL     1      35.017 -18.214 -23.816  0.00  0.00    -0.000 C 
ATOM     16  C   UNL     1      35.167 -16.927 -23.300  0.00  0.00    -0.000 C 
ENDBRANCH   8  11
ENDBRANCH   3   4
ENDBRANCH   2   3
ENDBRANCH   1   2
BRANCH   1  17
ATOM     17  C   UNL     1      34.912 -22.982 -14.718  0.00  0.00    +0.110 C 
BRANCH  17  21
ATOM     18  F   UNL     1      39.767 -26.307 -12.960  0.00  0.00    -0.204 F 
ATOM     19  O   UNL     1      36.780 -22.207 -16.676  0.00  0.00    -0.246 OA
ATOM     20  O   UNL     1      40.115 -24.854 -15.004  0.00  0.00    -0.267 OA
ATOM     21  N   UNL     1      36.284 -23.479 -14.788  0.00  0.00    -0.281 N 
ATOM     22  N   UNL     1      38.415 -23.538 -15.812  0.00  0.00    -0.274 N 
ATOM     23  C   UNL     1      36.735 -24.421 -13.812  0.00  0.00    +0.071 A 
ATOM     24  C   UNL     1      37.122 -23.019 -15.812  0.00  0.00    +0.330 A 
ATOM     25  C   UNL     1      38.046 -24.910 -13.863  0.00  0.00    +0.099 A 
ATOM     26  C   UNL     1      35.898 -24.887 -12.784  0.00  0.00    +0.018 C 
ATOM     27  C   UNL     1      38.959 -24.450 -14.924  0.00  0.00    +0.265 A 
ATOM     28  C   UNL     1      38.513 -25.835 -12.919  0.00  0.00    +0.146 C 
ATOM     29  C   UNL     1      36.361 -25.809 -11.840  0.00  0.00    +0.004 C 
ATOM     30  C   UNL     1      37.667 -26.282 -11.908  0.00  0.00    +0.030 C 
ATOM     31  H   UNL     1      39.012 -23.221 -16.529  0.00  0.00    +0.173 HD
ENDBRANCH  17  21
ENDBRANCH   1  17
TORSDOF 6
ENDMDL
MODEL 5
REMARK VINA RESULT:     -11.2      3.393      9.875
REMARK  Name = 448890
REMARK  6 active torsions:
REMARK  status: ('A' for Active; 'I' for Inactive)
REMARK    1  A    between atoms: C_1  and  C_2
REMARK    2  A    between atoms: C_1  and  C_17
REMARK    3  A    between atoms: C_2  and  C_3
REMARK    4  A    between atoms: C_3  and  N_4
REMARK    5  A    between atoms: C_8  and  C_11
REMARK    6  A    between atoms: C_17  and  N_21
REMARK                            x       y       z     vdW  Elec       q    Type
REMARK                         _______ _______ _______ _____ _____    ______ ____
ROOT
ATOM      1  C   UNL     1      32.895 -14.172 -20.213  0.00  0.00    +0.022 C 
ENDROOT
BRANCH   1   2
ATOM      2  C   UNL     1      31.863 -13.133 -20.663  0.00  0.00    -0.021 C 
BRANCH   2   3
ATOM      3  C   UNL     1      31.622 -12.089 -19.573  0.00  0.00    -0.077 C 
BRANCH   3   4
ATOM      4  N   UNL     1      31.399 -10.774 -20.172  0.00  0.00    +0.390 N 
ATOM      5  C   UNL     1      32.270  -9.763 -19.565  0.00  0.00    -0.072 C 
ATOM      6  C   UNL     1      31.599 -10.824 -21.628  0.00  0.00    -0.051 C 
ATOM      7  C   UNL     1      31.897  -8.369 -20.094  0.00  0.00    +0.003 C 
ATOM      8  C   UNL     1      31.760  -8.325 -21.599  0.00  0.00    -0.031 C 
ATOM      9  C   UNL     1      31.625  -9.473 -22.291  0.00  0.00    -0.053 C 
ATOM     10  H   UNL     1      30.432 -10.506 -19.989  0.00  0.00    -0.079 HD
BRANCH   8  11
ATOM     11  C   UNL     1      31.773  -7.003 -22.269  0.00  0.00    -0.004 C 
ATOM     12  C   UNL     1      32.709  -6.733 -23.269  0.00  0.00    -0.000 C 
ATOM     13  C   UNL     1      30.848  -6.023 -21.902  0.00  0.00    -0.000 C 
ATOM     14  C   UNL     1      32.721  -5.489 -23.899  0.00  0.00    -0.000 C 
ATOM     15  C   UNL     1      30.860  -4.779 -22.533  0.00  0.00    -0.000 C 
ATOM     16  C   UNL     1      31.797  -4.511 -23.532  0.00  0.00    -0.000 C 
ENDBRANCH   8  11
ENDBRANCH   3   4
ENDBRANCH   2   3
ENDBRANCH   1   2
BRANCH   1  17
ATOM     17  C   UNL     1      34.239 -14.007 -20.916  0.00  0.00    +0.110 C 
BRANCH  17  21
ATOM     18  F   UNL     1      35.013 -18.910 -24.531  0.00  0.00    -0.204 F 
ATOM     19  O   UNL     1      33.795 -12.839 -23.438  0.00  0.00    -0.246 OA
ATOM     20  O   UNL     1      34.457 -16.747 -25.722  0.00  0.00    -0.267 OA
ATOM     21  N   UNL     1      34.298 -14.735 -22.180  0.00  0.00    -0.281 N 
ATOM     22  N   UNL     1      34.132 -14.805 -24.539  0.00  0.00    -0.274 N 
ATOM     23  C   UNL     1      34.599 -16.132 -22.168  0.00  0.00    +0.071 A 
ATOM     24  C   UNL     1      34.058 -14.043 -23.375  0.00  0.00    +0.330 A 
ATOM     25  C   UNL     1      34.660 -16.847 -23.370  0.00  0.00    +0.099 A 
ATOM     26  C   UNL     1      34.840 -16.831 -20.972  0.00  0.00    +0.018 C 
ATOM     27  C   UNL     1      34.414 -16.156 -24.648  0.00  0.00    +0.265 A 
ATOM     28  C   UNL     1      34.952 -18.218 -23.384  0.00  0.00    +0.146 C 
ATOM     29  C   UNL     1      35.133 -18.198 -20.984  0.00  0.00    +0.004 C 
ATOM     30  C   UNL     1      35.189 -18.891 -22.189  0.00  0.00    +0.030 C 
ATOM     31  H   UNL     1      33.965 -14.327 -25.384  0.00  0.00    +0.173 HD
ENDBRANCH  17  21
ENDBRANCH   1  17
TORSDOF 6
ENDMDL
MODEL 6
REMARK VINA RESULT:     -11.2      4.098      6.905
REMARK  Name = 448890
REMARK  6 active torsions:
REMARK  status: ('A' for Active; 'I' for Inactive)
REMARK    1  A    between atoms: C_1  and  C_2
REMARK    2  A    between atoms: C_1  and  C_17
REMARK    3  A    between atoms: C_2  and  C_3
REMARK    4  A    between atoms: C_3  and  N_4
REMARK    5  A    between atoms: C_8  and  C_11
REMARK    6  A    between atoms: C_17  and  N_21
REMARK                            x       y       z     vdW  Elec       q    Type
REMARK                         _______ _______ _______ _____ _____    ______ ____
ROOT
ATOM      1  C   UNL     1      33.834 -20.146 -20.657  0.00  0.00    +0.022 C 
ENDROOT
BRANCH   1   2
ATOM      2  C   UNL     1      34.093 -21.292 -19.673  0.00  0.00    -0.021 C 
BRANCH   2   3
ATOM      3  C   UNL     1      35.582 -21.626 -19.597  0.00  0.00    -0.077 C 
BRANCH   3   4
ATOM      4  N   UNL     1      35.863 -22.421 -18.403  0.00  0.00    +0.390 N 
ATOM      5  C   UNL     1      36.841 -21.751 -17.540  0.00  0.00    -0.072 C 
ATOM      6  C   UNL     1      34.624 -22.703 -17.662  0.00  0.00    -0.051 C 
ATOM      7  C   UNL     1      37.239 -22.682 -16.384  0.00  0.00    +0.003 C 
ATOM      8  C   UNL     1      36.049 -23.309 -15.694  0.00  0.00    -0.031 C 
ATOM      9  C   UNL     1      34.847 -23.307 -16.302  0.00  0.00    -0.053 C 
ATOM     10  H   UNL     1      36.266 -23.308 -18.705  0.00  0.00    -0.079 HD
BRANCH   8  11
ATOM     11  C   UNL     1      36.251 -23.919 -14.358  0.00  0.00    -0.004 C 
ATOM     12  C   UNL     1      37.537 -24.249 -13.925  0.00  0.00    -0.000 C 
ATOM     13  C   UNL     1      35.155 -24.164 -13.527  0.00  0.00    -0.000 C 
ATOM     14  C   UNL     1      37.726 -24.823 -12.668  0.00  0.00    -0.000 C 
ATOM     15  C   UNL     1      35.345 -24.738 -12.270  0.00  0.00    -0.000 C 
ATOM     16  C   UNL     1      36.631 -25.067 -11.840  0.00  0.00    -0.000 C 
ENDBRANCH   8  11
ENDBRANCH   3   4
ENDBRANCH   2   3
ENDBRANCH   1   2
BRANCH   1  17
ATOM     17  C   UNL     1      35.107 -19.391 -21.026  0.00  0.00    +0.110 C 
BRANCH  17  21
ATOM     18  F   UNL     1      34.201 -14.176 -24.138  0.00  0.00    -0.204 F 
ATOM     19  O   UNL     1      35.152 -20.373 -23.664  0.00  0.00    -0.246 OA
ATOM     20  O   UNL     1      34.461 -16.262 -25.548  0.00  0.00    -0.267 OA
ATOM     21  N   UNL     1      34.936 -18.561 -22.215  0.00  0.00    -0.281 N 
ATOM     22  N   UNL     1      34.806 -18.308 -24.564  0.00  0.00    -0.274 N 
ATOM     23  C   UNL     1      34.729 -17.155 -22.061  0.00  0.00    +0.071 A 
ATOM     24  C   UNL     1      34.978 -19.165 -23.479  0.00  0.00    +0.330 A 
ATOM     25  C   UNL     1      34.564 -16.342 -23.189  0.00  0.00    +0.099 A 
ATOM     26  C   UNL     1      34.687 -16.543 -20.796  0.00  0.00    +0.018 C 
ATOM     27  C   UNL     1      34.601 -16.939 -24.535  0.00  0.00    +0.265 A 
ATOM     28  C   UNL     1      34.361 -14.961 -23.064  0.00  0.00    +0.146 C 
ATOM     29  C   UNL     1      34.484 -15.166 -20.669  0.00  0.00    +0.004 C 
ATOM     30  C   UNL     1      34.321 -14.375 -21.801  0.00  0.00    +0.030 C 
ATOM     31  H   UNL     1      34.835 -18.724 -25.456  0.00  0.00    +0.173 HD
ENDBRANCH  17  21
ENDBRANCH   1  17
TORSDOF 6
ENDMDL
MODEL 7
REMARK VINA RESULT:     -11.1      7.089     11.368
REMARK  Name = 448890
REMARK  6 active torsions:
REMARK  status: ('A' for Active; 'I' for Inactive)
REMARK    1  A    between atoms: C_1  and  C_2
REMARK    2  A    between atoms: C_1  and  C_17
REMARK    3  A    between atoms: C_2  and  C_3
REMARK    4  A    between atoms: C_3  and  N_4
REMARK    5  A    between atoms: C_8  and  C_11
REMARK    6  A    between atoms: C_17  and  N_21
REMARK                            x       y       z     vdW  Elec       q    Type
REMARK                         _______ _______ _______ _____ _____    ______ ____
ROOT
ATOM      1  C   UNL     1      36.787 -22.201 -15.643  0.00  0.00    +0.022 C 
ENDROOT
BRANCH   1   2
ATOM      2  C   UNL     1      37.323 -21.585 -16.939  0.00  0.00    -0.021 C 
BRANCH   2   3
ATOM      3  C   UNL     1      36.551 -22.099 -18.153  0.00  0.00    -0.077 C 
BRANCH   3   4
ATOM      4  N   UNL     1      36.189 -20.989 -19.032  0.00  0.00    +0.390 N 
ATOM      5  C   UNL     1      37.271 -20.686 -19.973  0.00  0.00    -0.072 C 
ATOM      6  C   UNL     1      34.941 -21.280 -19.753  0.00  0.00    -0.051 C 
ATOM      7  C   UNL     1      36.932 -19.415 -20.767  0.00  0.00    +0.003 C 
ATOM      8  C   UNL     1      35.530 -19.428 -21.333  0.00  0.00    -0.031 C 
ATOM      9  C   UNL     1      34.623 -20.301 -20.851  0.00  0.00    -0.053 C 
ATOM     10  H   UNL     1      36.040 -20.164 -18.450  0.00  0.00    -0.079 HD
BRANCH   8  11
ATOM     11  C   UNL     1      35.196 -18.464 -22.408  0.00  0.00    -0.004 C 
ATOM     12  C   UNL     1      34.731 -18.923 -23.641  0.00  0.00    -0.000 C 
ATOM     13  C   UNL     1      35.344 -17.092 -22.190  0.00  0.00    -0.000 C 
ATOM     14  C   UNL     1      34.416 -18.016 -24.653  0.00  0.00    -0.000 C 
ATOM     15  C   UNL     1      35.029 -16.185 -23.201  0.00  0.00    -0.000 C 
ATOM     16  C   UNL     1      34.565 -16.646 -24.433  0.00  0.00    -0.000 C 
ENDBRANCH   8  11
ENDBRANCH   3   4
ENDBRANCH   2   3
ENDBRANCH   1   2
BRANCH   1  17
ATOM     17  C   UNL     1      36.407 -23.670 -15.805  0.00  0.00    +0.110 C 
BRANCH  17  21
ATOM     18  F   UNL     1      30.473 -24.269 -14.340  0.00  0.00    -0.204 F 
ATOM     19  O   UNL     1      36.640 -24.864 -13.267  0.00  0.00    -0.246 OA
ATOM     20  O   UNL     1      32.120 -25.106 -12.610  0.00  0.00    -0.267 OA
ATOM     21  N   UNL     1      35.271 -24.046 -14.967  0.00  0.00    -0.281 N 
ATOM     22  N   UNL     1      34.382 -24.967 -12.977  0.00  0.00    -0.274 N 
ATOM     23  C   UNL     1      33.944 -23.804 -15.439  0.00  0.00    +0.071 A 
ATOM     24  C   UNL     1      35.514 -24.636 -13.719  0.00  0.00    +0.330 A 
ATOM     25  C   UNL     1      32.844 -24.159 -14.649  0.00  0.00    +0.099 A 
ATOM     26  C   UNL     1      33.695 -23.214 -16.690  0.00  0.00    +0.018 C 
ATOM     27  C   UNL     1      33.057 -24.781 -13.331  0.00  0.00    +0.265 A 
ATOM     28  C   UNL     1      31.532 -23.933 -15.090  0.00  0.00    +0.146 C 
ATOM     29  C   UNL     1      32.388 -22.987 -17.131  0.00  0.00    +0.004 C 
ATOM     30  C   UNL     1      31.308 -23.346 -16.332  0.00  0.00    +0.030 C 
ATOM     31  H   UNL     1      34.543 -25.382 -12.099  0.00  0.00    +0.173 HD
ENDBRANCH  17  21
ENDBRANCH   1  17
TORSDOF 6
ENDMDL
MODEL 8
REMARK VINA RESULT:     -11.0      3.680      6.461
REMARK  Name = 448890
REMARK  6 active torsions:
REMARK  status: ('A' for Active; 'I' for Inactive)
REMARK    1  A    between atoms: C_1  and  C_2
REMARK    2  A    between atoms: C_1  and  C_17
REMARK    3  A    between atoms: C_2  and  C_3
REMARK    4  A    between atoms: C_3  and  N_4
REMARK    5  A    between atoms: C_8  and  C_11
REMARK    6  A    between atoms: C_17  and  N_21
REMARK                            x       y       z     vdW  Elec       q    Type
REMARK                         _______ _______ _______ _____ _____    ______ ____
ROOT
ATOM      1  C   UNL     1      36.341 -19.696 -20.833  0.00  0.00    +0.022 C 
ENDROOT
BRANCH   1   2
ATOM      2  C   UNL     1      36.457 -20.611 -19.609  0.00  0.00    -0.021 C 
BRANCH   2   3
ATOM      3  C   UNL     1      36.173 -22.066 -19.980  0.00  0.00    -0.077 C 
BRANCH   3   4
ATOM      4  N   UNL     1      35.370 -22.706 -18.940  0.00  0.00    +0.390 N 
ATOM      5  C   UNL     1      35.860 -22.356 -17.604  0.00  0.00    -0.072 C 
ATOM      6  C   UNL     1      33.951 -22.348 -19.083  0.00  0.00    -0.051 C 
ATOM      7  C   UNL     1      35.106 -23.171 -16.542  0.00  0.00    +0.003 C 
ATOM      8  C   UNL     1      33.607 -23.152 -16.737  0.00  0.00    -0.031 C 
ATOM      9  C   UNL     1      33.092 -22.766 -17.920  0.00  0.00    -0.053 C 
ATOM     10  H   UNL     1      35.459 -23.716 -19.053  0.00  0.00    -0.079 HD
BRANCH   8  11
ATOM     11  C   UNL     1      32.745 -23.571 -15.606  0.00  0.00    -0.004 C 
ATOM     12  C   UNL     1      31.371 -23.327 -15.644  0.00  0.00    -0.000 C 
ATOM     13  C   UNL     1      33.304 -24.212 -14.498  0.00  0.00    -0.000 C 
ATOM     14  C   UNL     1      30.559 -23.721 -14.580  0.00  0.00    -0.000 C 
ATOM     15  C   UNL     1      32.493 -24.607 -13.434  0.00  0.00    -0.000 C 
ATOM     16  C   UNL     1      31.120 -24.361 -13.475  0.00  0.00    -0.000 C 
ENDBRANCH   8  11
ENDBRANCH   3   4
ENDBRANCH   2   3
ENDBRANCH   1   2
BRANCH   1  17
ATOM     17  C   UNL     1      34.911 -19.224 -21.078  0.00  0.00    +0.110 C 
BRANCH  17  21
ATOM     18  F   UNL     1      34.273 -14.016 -24.268  0.00  0.00    -0.204 F 
ATOM     19  O   UNL     1      34.966 -20.239 -23.703  0.00  0.00    -0.246 OA
ATOM     20  O   UNL     1      34.475 -16.128 -25.647  0.00  0.00    -0.267 OA
ATOM     21  N   UNL     1      34.796 -18.402 -22.280  0.00  0.00    -0.281 N 
ATOM     22  N   UNL     1      34.720 -18.174 -24.633  0.00  0.00    -0.274 N 
ATOM     23  C   UNL     1      34.643 -16.987 -22.145  0.00  0.00    +0.071 A 
ATOM     24  C   UNL     1      34.837 -19.024 -23.535  0.00  0.00    +0.330 A 
ATOM     25  C   UNL     1      34.531 -16.183 -23.286  0.00  0.00    +0.099 A 
ATOM     26  C   UNL     1      34.602 -16.358 -20.889  0.00  0.00    +0.018 C 
ATOM     27  C   UNL     1      34.570 -16.798 -24.624  0.00  0.00    +0.265 A 
ATOM     28  C   UNL     1      34.382 -14.793 -23.181  0.00  0.00    +0.146 C 
ATOM     29  C   UNL     1      34.452 -14.973 -20.782  0.00  0.00    +0.004 C 
ATOM     30  C   UNL     1      34.342 -14.191 -21.927  0.00  0.00    +0.030 C 
ATOM     31  H   UNL     1      34.748 -18.602 -25.520  0.00  0.00    +0.173 HD
ENDBRANCH  17  21
ENDBRANCH   1  17
TORSDOF 6
ENDMDL
MODEL 9
REMARK VINA RESULT:     -10.9      5.175     10.063
REMARK  Name = 448890
REMARK  6 active torsions:
REMARK  status: ('A' for Active; 'I' for Inactive)
REMARK    1  A    between atoms: C_1  and  C_2
REMARK    2  A    between atoms: C_1  and  C_17
REMARK    3  A    between atoms: C_2  and  C_3
REMARK    4  A    between atoms: C_3  and  N_4
REMARK    5  A    between atoms: C_8  and  C_11
REMARK    6  A    between atoms: C_17  and  N_21
REMARK                            x       y       z     vdW  Elec       q    Type
REMARK                         _______ _______ _______ _____ _____    ______ ____
ROOT
ATOM      1  C   UNL     1      34.666 -19.931 -20.600  0.00  0.00    +0.022 C 
ENDROOT
BRANCH   1   2
ATOM      2  C   UNL     1      34.953 -19.560 -22.058  0.00  0.00    -0.021 C 
BRANCH   2   3
ATOM      3  C   UNL     1      35.654 -18.205 -22.153  0.00  0.00    -0.077 C 
BRANCH   3   4
ATOM      4  N   UNL     1      34.689 -17.122 -21.974  0.00  0.00    +0.390 N 
ATOM      5  C   UNL     1      34.753 -16.577 -20.614  0.00  0.00    -0.072 C 
ATOM      6  C   UNL     1      34.906 -16.061 -22.969  0.00  0.00    -0.051 C 
ATOM      7  C   UNL     1      33.620 -15.561 -20.406  0.00  0.00    +0.003 C 
ATOM      8  C   UNL     1      33.514 -14.556 -21.530  0.00  0.00    -0.031 C 
ATOM      9  C   UNL     1      34.117 -14.806 -22.709  0.00  0.00    -0.053 C 
ATOM     10  H   UNL     1      33.755 -17.508 -22.114  0.00  0.00    -0.079 HD
BRANCH   8  11
ATOM     11  C   UNL     1      32.733 -13.318 -21.296  0.00  0.00    -0.004 C 
ATOM     12  C   UNL     1      32.688 -12.322 -22.274  0.00  0.00    -0.000 C 
ATOM     13  C   UNL     1      32.038 -13.144 -20.097  0.00  0.00    -0.000 C 
ATOM     14  C   UNL     1      31.953 -11.157 -22.054  0.00  0.00    -0.000 C 
ATOM     15  C   UNL     1      31.302 -11.979 -19.877  0.00  0.00    -0.000 C 
ATOM     16  C   UNL     1      31.260 -10.986 -20.855  0.00  0.00    -0.000 C 
ENDBRANCH   8  11
ENDBRANCH   3   4
ENDBRANCH   2   3
ENDBRANCH   1   2
BRANCH   1  17
ATOM     17  C   UNL     1      35.386 -21.205 -20.166  0.00  0.00    +0.110 C 
BRANCH  17  21
ATOM     18  F   UNL     1      34.889 -23.935 -14.688  0.00  0.00    -0.204 F 
ATOM     19  O   UNL     1      32.645 -21.847 -20.178  0.00  0.00    -0.246 OA
ATOM     20  O   UNL     1      32.754 -23.794 -16.040  0.00  0.00    -0.267 OA
ATOM     21  N   UNL     1      34.697 -21.888 -19.074  0.00  0.00    -0.281 N 
ATOM     22  N   UNL     1      32.741 -22.809 -18.114  0.00  0.00    -0.274 N 
ATOM     23  C   UNL     1      35.437 -22.269 -17.912  0.00  0.00    +0.071 A 
ATOM     24  C   UNL     1      33.326 -22.154 -19.196  0.00  0.00    +0.330 A 
ATOM     25  C   UNL     1      34.794 -22.924 -16.855  0.00  0.00    +0.099 A 
ATOM     26  C   UNL     1      36.812 -22.004 -17.785  0.00  0.00    +0.018 C 
ATOM     27  C   UNL     1      33.354 -23.222 -16.944  0.00  0.00    +0.265 A 
ATOM     28  C   UNL     1      35.497 -23.307 -15.704  0.00  0.00    +0.146 C 
ATOM     29  C   UNL     1      37.515 -22.385 -16.639  0.00  0.00    +0.004 C 
ATOM     30  C   UNL     1      36.859 -23.036 -15.599  0.00  0.00    +0.030 C 
ATOM     31  H   UNL     1      31.777 -22.999 -18.191  0.00  0.00    +0.173 HD
ENDBRANCH  17  21
ENDBRANCH   1  17
TORSDOF 6
ENDMDL
