MODEL 1
REMARK VINA RESULT:     -12.7      0.000      0.000
REMARK  Name = 25171648
REMARK  8 active torsions:
REMARK  status: ('A' for Active; 'I' for Inactive)
REMARK    1  A    between atoms: C_1  and  C_12
REMARK    2  A    between atoms: C_2  and  C_23
REMARK    3  A    between atoms: C_9  and  O_13
REMARK    4  A    between atoms: O_13  and  C_14
REMARK    5  A    between atoms: C_14  and  C_16
REMARK    6  A    between atoms: C_23  and  N_25
REMARK    7  A    between atoms: C_27  and  C_31
REMARK    8  A    between atoms: C_34  and  C_38
REMARK                            x       y       z     vdW  Elec       q    Type
REMARK                         _______ _______ _______ _____ _____    ______ ____
ROOT
ATOM      1  C   UNL     1      35.539 -21.097 -19.548  0.00  0.00    +0.062 C 
ATOM      2  C   UNL     1      34.530 -22.816 -18.183  0.00  0.00    +0.000 C 
ATOM      3  C   UNL     1      34.452 -21.918 -19.248  0.00  0.00    +0.007 C 
ATOM      4  C   UNL     1      36.703 -21.174 -18.783  0.00  0.00    +0.010 C 
ATOM      5  C   UNL     1      35.694 -22.893 -17.419  0.00  0.00    -0.003 C 
ATOM      6  C   UNL     1      36.781 -22.073 -17.720  0.00  0.00    +0.000 C 
ENDROOT
BRANCH   1  12
ATOM      7  N   UNL     1      34.342 -20.221 -21.396  0.00  0.00    -0.212 NA
ATOM      8  N   UNL     1      36.510 -19.344 -20.815  0.00  0.00    -0.190 NA
ATOM      9  C   UNL     1      35.311 -18.441 -22.696  0.00  0.00    +0.161 C 
ATOM     10  C   UNL     1      34.301 -19.339 -22.416  0.00  0.00    +0.201 C 
ATOM     11  C   UNL     1      36.402 -18.489 -21.852  0.00  0.00    +0.144 C 
ATOM     12  C   UNL     1      35.459 -20.170 -20.647  0.00  0.00    +0.031 C 
BRANCH   9  13
ATOM     13  O   UNL     1      35.234 -17.556 -23.743  0.00  0.00    -0.476 OA
BRANCH  13  14
ATOM     14  C   UNL     1      35.458 -16.190 -23.450  0.00  0.00    +0.205 C 
BRANCH  14  16
ATOM     15  N   UNL     1      32.909 -13.501 -21.231  0.00  0.00    +0.386 N 
ATOM     16  C   UNL     1      34.212 -15.626 -22.775  0.00  0.00    +0.040 C 
ATOM     17  C   UNL     1      33.809 -14.284 -23.398  0.00  0.00    -0.019 C 
ATOM     18  C   UNL     1      34.431 -15.451 -21.269  0.00  0.00    -0.019 C 
ATOM     19  C   UNL     1      32.620 -13.663 -22.663  0.00  0.00    -0.077 C 
ATOM     20  C   UNL     1      33.221 -14.792 -20.603  0.00  0.00    -0.077 C 
ATOM     21  C   UNL     1      31.783 -12.859 -20.552  0.00  0.00    -0.101 C 
ATOM     22  H   UNL     1      33.729 -12.901 -21.143  0.00  0.00    -0.080 HD
ENDBRANCH  14  16
ENDBRANCH  13  14
ENDBRANCH   9  13
ENDBRANCH   1  12
BRANCH   2  23
ATOM     23  C   UNL     1      33.367 -23.694 -17.861  0.00  0.00    +0.146 C 
BRANCH  23  25
ATOM     24  O   UNL     1      30.936 -22.827 -16.616  0.00  0.00    -0.268 OA
ATOM     25  N   UNL     1      33.074 -23.722 -16.438  0.00  0.00    -0.173 N 
ATOM     26  N   UNL     1      34.083 -24.205 -15.655  0.00  0.00    -0.175 NA
ATOM     27  C   UNL     1      33.896 -24.252 -14.375  0.00  0.00    +0.099 C 
ATOM     28  C   UNL     1      31.859 -23.278 -15.937  0.00  0.00    +0.268 C 
ATOM     29  C   UNL     1      32.652 -23.842 -13.697  0.00  0.00    +0.025 C 
ATOM     30  C   UNL     1      31.678 -23.371 -14.473  0.00  0.00    +0.061 C 
BRANCH  27  31
ATOM     31  C   UNL     1      34.990 -24.772 -13.511  0.00  0.00    +0.020 C 
ATOM     32  C   UNL     1      36.110 -25.370 -14.087  0.00  0.00    +0.012 C 
ATOM     33  C   UNL     1      34.895 -24.659 -12.124  0.00  0.00    +0.002 C 
ATOM     34  C   UNL     1      37.136 -25.856 -13.276  0.00  0.00    +0.068 C 
ATOM     35  C   UNL     1      35.920 -25.145 -11.312  0.00  0.00    +0.001 C 
ATOM     36  C   UNL     1      37.041 -25.743 -11.888  0.00  0.00    +0.010 C 
BRANCH  34  38
ATOM     37  N   UNL     1      39.216 -26.969 -14.344  0.00  0.00    -0.191 NA
ATOM     38  C   UNL     1      38.284 -26.470 -13.865  0.00  0.00    +0.100 C 
ENDBRANCH  34  38
ENDBRANCH  27  31
ENDBRANCH  23  25
ENDBRANCH   2  23
TORSDOF 8
ENDMDL
MODEL 2
REMARK VINA RESULT:     -12.7      4.830      9.590
REMARK  Name = 25171648
REMARK  8 active torsions:
REMARK  status: ('A' for Active; 'I' for Inactive)
REMARK    1  A    between atoms: C_1  and  C_12
REMARK    2  A    between atoms: C_2  and  C_23
REMARK    3  A    between atoms: C_9  and  O_13
REMARK    4  A    between atoms: O_13  and  C_14
REMARK    5  A    between atoms: C_14  and  C_16
REMARK    6  A    between atoms: C_23  and  N_25
REMARK    7  A    between atoms: C_27  and  C_31
REMARK    8  A    between atoms: C_34  and  C_38
REMARK                            x       y       z     vdW  Elec       q    Type
REMARK                         _______ _______ _______ _____ _____    ______ ____
ROOT
ATOM      1  C   UNL     1      32.876 -13.113 -21.741  0.00  0.00    +0.062 C 
ATOM      2  C   UNL     1      34.274 -15.032 -22.189  0.00  0.00    +0.000 C 
ATOM      3  C   UNL     1      33.860 -13.738 -22.507  0.00  0.00    +0.007 C 
ATOM      4  C   UNL     1      32.307 -13.782 -20.657  0.00  0.00    +0.010 C 
ATOM      5  C   UNL     1      33.704 -15.700 -21.105  0.00  0.00    -0.003 C 
ATOM      6  C   UNL     1      32.722 -15.075 -20.339  0.00  0.00    +0.000 C 
ENDROOT
BRANCH   1  12
ATOM      7  N   UNL     1      31.356 -11.322 -21.429  0.00  0.00    -0.212 NA
ATOM      8  N   UNL     1      33.186 -11.118 -22.983  0.00  0.00    -0.190 NA
ATOM      9  C   UNL     1      31.652  -9.288 -22.682  0.00  0.00    +0.161 C 
ATOM     10  C   UNL     1      30.984 -10.068 -21.761  0.00  0.00    +0.201 C 
ATOM     11  C   UNL     1      32.758  -9.871 -23.267  0.00  0.00    +0.144 C 
ATOM     12  C   UNL     1      32.448 -11.778 -22.069  0.00  0.00    +0.031 C 
BRANCH   9  13
ATOM     13  O   UNL     1      31.245  -8.014 -22.994  0.00  0.00    -0.476 OA
BRANCH  13  14
ATOM     14  C   UNL     1      31.369  -7.033 -21.982  0.00  0.00    +0.205 C 
BRANCH  14  16
ATOM     15  N   UNL     1      31.844  -3.694 -24.681  0.00  0.00    +0.386 N 
ATOM     16  C   UNL     1      31.940  -5.762 -22.605  0.00  0.00    +0.040 C 
ATOM     17  C   UNL     1      30.906  -4.631 -22.592  0.00  0.00    -0.019 C 
ATOM     18  C   UNL     1      32.413  -6.015 -24.040  0.00  0.00    -0.019 C 
ATOM     19  C   UNL     1      31.435  -3.384 -23.304  0.00  0.00    -0.077 C 
ATOM     20  C   UNL     1      32.893  -4.722 -24.704  0.00  0.00    -0.077 C 
ATOM     21  C   UNL     1      32.299  -2.483 -25.364  0.00  0.00    -0.101 C 
ATOM     22  H   UNL     1      31.031  -4.062 -25.175  0.00  0.00    -0.080 HD
ENDBRANCH  14  16
ENDBRANCH  13  14
ENDBRANCH   9  13
ENDBRANCH   1  12
BRANCH   2  23
ATOM     23  C   UNL     1      35.326 -15.702 -23.008  0.00  0.00    +0.146 C 
BRANCH  23  25
ATOM     24  O   UNL     1      34.322 -16.889 -25.416  0.00  0.00    -0.268 OA
ATOM     25  N   UNL     1      35.047 -17.112 -23.219  0.00  0.00    -0.173 N 
ATOM     26  N   UNL     1      35.290 -17.911 -22.138  0.00  0.00    -0.175 NA
ATOM     27  C   UNL     1      35.058 -19.179 -22.250  0.00  0.00    +0.099 C 
ATOM     28  C   UNL     1      34.563 -17.585 -24.430  0.00  0.00    +0.268 C 
ATOM     29  C   UNL     1      34.567 -19.834 -23.477  0.00  0.00    +0.025 C 
ATOM     30  C   UNL     1      34.332 -19.042 -24.521  0.00  0.00    +0.061 C 
BRANCH  27  31
ATOM     31  C   UNL     1      35.314 -20.059 -21.078  0.00  0.00    +0.020 C 
ATOM     32  C   UNL     1      34.252 -20.703 -20.443  0.00  0.00    +0.012 C 
ATOM     33  C   UNL     1      36.618 -20.242 -20.616  0.00  0.00    +0.002 C 
ATOM     34  C   UNL     1      34.495 -21.529 -19.345  0.00  0.00    +0.068 C 
ATOM     35  C   UNL     1      36.860 -21.067 -19.518  0.00  0.00    +0.001 C 
ATOM     36  C   UNL     1      35.798 -21.711 -18.882  0.00  0.00    +0.010 C 
BRANCH  34  38
ATOM     37  N   UNL     1      32.524 -22.724 -18.162  0.00  0.00    -0.191 NA
ATOM     38  C   UNL     1      33.407 -22.188 -18.692  0.00  0.00    +0.100 C 
ENDBRANCH  34  38
ENDBRANCH  27  31
ENDBRANCH  23  25
ENDBRANCH   2  23
TORSDOF 8
ENDMDL
MODEL 3
REMARK VINA RESULT:     -12.6      1.573      2.236
REMARK  Name = 25171648
REMARK  8 active torsions:
REMARK  status: ('A' for Active; 'I' for Inactive)
REMARK    1  A    between atoms: C_1  and  C_12
REMARK    2  A    between atoms: C_2  and  C_23
REMARK    3  A    between atoms: C_9  and  O_13
REMARK    4  A    between atoms: O_13  and  C_14
REMARK    5  A    between atoms: C_14  and  C_16
REMARK    6  A    between atoms: C_23  and  N_25
REMARK    7  A    between atoms: C_27  and  C_31
REMARK    8  A    between atoms: C_34  and  C_38
REMARK                            x       y       z     vdW  Elec       q    Type
REMARK                         _______ _______ _______ _____ _____    ______ ____
ROOT
ATOM      1  C   UNL     1      35.201 -20.260 -20.418  0.00  0.00    +0.062 C 
ATOM      2  C   UNL     1      34.045 -21.967 -19.157  0.00  0.00    +0.000 C 
ATOM      3  C   UNL     1      34.010 -20.847 -19.988  0.00  0.00    +0.007 C 
ATOM      4  C   UNL     1      36.425 -20.794 -20.015  0.00  0.00    +0.010 C 
ATOM      5  C   UNL     1      35.269 -22.499 -18.755  0.00  0.00    -0.003 C 
ATOM      6  C   UNL     1      36.460 -21.913 -19.185  0.00  0.00    +0.000 C 
ENDROOT
BRANCH   1  12
ATOM      7  N   UNL     1      35.288 -17.906 -20.675  0.00  0.00    -0.212 NA
ATOM      8  N   UNL     1      35.014 -19.339 -22.593  0.00  0.00    -0.190 NA
ATOM      9  C   UNL     1      35.099 -16.950 -22.877  0.00  0.00    +0.161 C 
ATOM     10  C   UNL     1      35.251 -16.846 -21.509  0.00  0.00    +0.201 C 
ATOM     11  C   UNL     1      34.985 -18.235 -23.368  0.00  0.00    +0.144 C 
ATOM     12  C   UNL     1      35.165 -19.105 -21.276  0.00  0.00    +0.031 C 
BRANCH   9  13
ATOM     13  O   UNL     1      35.067 -15.848 -23.695  0.00  0.00    -0.476 OA
BRANCH  13  14
ATOM     14  C   UNL     1      33.803 -15.254 -23.925  0.00  0.00    +0.205 C 
BRANCH  14  16
ATOM     15  N   UNL     1      32.436 -11.341 -22.711  0.00  0.00    +0.386 N 
ATOM     16  C   UNL     1      33.757 -13.913 -23.200  0.00  0.00    +0.040 C 
ATOM     17  C   UNL     1      32.487 -13.788 -22.352  0.00  0.00    -0.019 C 
ATOM     18  C   UNL     1      33.833 -12.747 -24.192  0.00  0.00    -0.019 C 
ATOM     19  C   UNL     1      32.384 -12.407 -21.701  0.00  0.00    -0.077 C 
ATOM     20  C   UNL     1      33.686 -11.400 -23.481  0.00  0.00    -0.077 C 
ATOM     21  C   UNL     1      32.285 -10.030 -22.079  0.00  0.00    -0.101 C 
ATOM     22  H   UNL     1      31.661 -11.483 -23.358  0.00  0.00    -0.080 HD
ENDBRANCH  14  16
ENDBRANCH  13  14
ENDBRANCH   9  13
ENDBRANCH   1  12
BRANCH   2  23
ATOM     23  C   UNL     1      32.772 -22.594 -18.697  0.00  0.00    +0.146 C 
BRANCH  23  25
ATOM     24  O   UNL     1      30.544 -22.645 -16.895  0.00  0.00    -0.268 OA
ATOM     25  N   UNL     1      32.813 -22.959 -17.290  0.00  0.00    -0.173 N 
ATOM     26  N   UNL     1      34.051 -23.291 -16.821  0.00  0.00    -0.175 NA
ATOM     27  C   UNL     1      34.166 -23.620 -15.575  0.00  0.00    +0.099 C 
ATOM     28  C   UNL     1      31.670 -22.952 -16.504  0.00  0.00    +0.268 C 
ATOM     29  C   UNL     1      33.042 -23.685 -14.621  0.00  0.00    +0.025 C 
ATOM     30  C   UNL     1      31.841 -23.355 -15.092  0.00  0.00    +0.061 C 
BRANCH  27  31
ATOM     31  C   UNL     1      35.510 -23.980 -15.050  0.00  0.00    +0.020 C 
ATOM     32  C   UNL     1      35.627 -24.854 -13.970  0.00  0.00    +0.012 C 
ATOM     33  C   UNL     1      36.655 -23.443 -15.641  0.00  0.00    +0.002 C 
ATOM     34  C   UNL     1      36.889 -25.191 -13.480  0.00  0.00    +0.068 C 
ATOM     35  C   UNL     1      37.917 -23.780 -15.151  0.00  0.00    +0.001 C 
ATOM     36  C   UNL     1      38.034 -24.655 -14.070  0.00  0.00    +0.010 C 
BRANCH  34  38
ATOM     37  N   UNL     1      37.108 -26.813 -11.472  0.00  0.00    -0.191 NA
ATOM     38  C   UNL     1      37.010 -26.086 -12.372  0.00  0.00    +0.100 C 
ENDBRANCH  34  38
ENDBRANCH  27  31
ENDBRANCH  23  25
ENDBRANCH   2  23
TORSDOF 8
ENDMDL
MODEL 4
REMARK VINA RESULT:     -12.6      1.179      1.781
REMARK  Name = 25171648
REMARK  8 active torsions:
REMARK  status: ('A' for Active; 'I' for Inactive)
REMARK    1  A    between atoms: C_1  and  C_12
REMARK    2  A    between atoms: C_2  and  C_23
REMARK    3  A    between atoms: C_9  and  O_13
REMARK    4  A    between atoms: O_13  and  C_14
REMARK    5  A    between atoms: C_14  and  C_16
REMARK    6  A    between atoms: C_23  and  N_25
REMARK    7  A    between atoms: C_27  and  C_31
REMARK    8  A    between atoms: C_34  and  C_38
REMARK                            x       y       z     vdW  Elec       q    Type
REMARK                         _______ _______ _______ _____ _____    ______ ____
ROOT
ATOM      1  C   UNL     1      35.373 -20.954 -19.830  0.00  0.00    +0.062 C 
ATOM      2  C   UNL     1      34.303 -22.671 -18.508  0.00  0.00    +0.000 C 
ATOM      3  C   UNL     1      34.249 -21.724 -19.532  0.00  0.00    +0.007 C 
ATOM      4  C   UNL     1      36.551 -21.130 -19.104  0.00  0.00    +0.010 C 
ATOM      5  C   UNL     1      35.481 -22.846 -17.782  0.00  0.00    -0.003 C 
ATOM      6  C   UNL     1      36.605 -22.077 -18.081  0.00  0.00    +0.000 C 
ENDROOT
BRANCH   1  12
ATOM      7  N   UNL     1      36.211 -18.974 -20.825  0.00  0.00    -0.212 NA
ATOM      8  N   UNL     1      34.376 -20.168 -21.831  0.00  0.00    -0.190 NA
ATOM      9  C   UNL     1      35.212 -18.158 -22.857  0.00  0.00    +0.161 C 
ATOM     10  C   UNL     1      36.130 -18.077 -21.830  0.00  0.00    +0.201 C 
ATOM     11  C   UNL     1      34.352 -19.235 -22.806  0.00  0.00    +0.144 C 
ATOM     12  C   UNL     1      35.317 -19.978 -20.886  0.00  0.00    +0.031 C 
BRANCH   9  13
ATOM     13  O   UNL     1      35.159 -17.227 -23.866  0.00  0.00    -0.476 OA
BRANCH  13  14
ATOM     14  C   UNL     1      35.357 -15.873 -23.503  0.00  0.00    +0.205 C 
BRANCH  14  16
ATOM     15  N   UNL     1      32.754 -13.307 -21.202  0.00  0.00    +0.386 N 
ATOM     16  C   UNL     1      34.119 -15.384 -22.758  0.00  0.00    +0.040 C 
ATOM     17  C   UNL     1      33.558 -14.110 -23.400  0.00  0.00    -0.019 C 
ATOM     18  C   UNL     1      34.431 -15.125 -21.280  0.00  0.00    -0.019 C 
ATOM     19  C   UNL     1      32.377 -13.557 -22.600  0.00  0.00    -0.077 C 
ATOM     20  C   UNL     1      33.220 -14.538 -20.550  0.00  0.00    -0.077 C 
ATOM     21  C   UNL     1      31.630 -12.730 -20.464  0.00  0.00    -0.101 C 
ATOM     22  H   UNL     1      33.524 -12.638 -21.199  0.00  0.00    -0.080 HD
ENDBRANCH  14  16
ENDBRANCH  13  14
ENDBRANCH   9  13
ENDBRANCH   1  12
BRANCH   2  23
ATOM     23  C   UNL     1      33.101 -23.494 -18.188  0.00  0.00    +0.146 C 
BRANCH  23  25
ATOM     24  O   UNL     1      30.706 -22.593 -16.899  0.00  0.00    -0.268 OA
ATOM     25  N   UNL     1      32.825 -23.538 -16.762  0.00  0.00    -0.173 N 
ATOM     26  N   UNL     1      33.833 -24.056 -16.000  0.00  0.00    -0.175 NA
ATOM     27  C   UNL     1      33.661 -24.119 -14.719  0.00  0.00    +0.099 C 
ATOM     28  C   UNL     1      31.627 -23.076 -16.239  0.00  0.00    +0.268 C 
ATOM     29  C   UNL     1      32.435 -23.692 -14.019  0.00  0.00    +0.025 C 
ATOM     30  C   UNL     1      31.462 -23.187 -14.774  0.00  0.00    +0.061 C 
BRANCH  27  31
ATOM     31  C   UNL     1      34.753 -24.677 -13.877  0.00  0.00    +0.020 C 
ATOM     32  C   UNL     1      34.705 -24.539 -12.490  0.00  0.00    +0.012 C 
ATOM     33  C   UNL     1      35.826 -25.339 -14.476  0.00  0.00    +0.002 C 
ATOM     34  C   UNL     1      35.730 -25.063 -11.702  0.00  0.00    +0.068 C 
ATOM     35  C   UNL     1      36.851 -25.862 -13.688  0.00  0.00    +0.001 C 
ATOM     36  C   UNL     1      36.803 -25.725 -12.300  0.00  0.00    +0.010 C 
BRANCH  34  38
ATOM     37  N   UNL     1      35.643 -24.807  -9.126  0.00  0.00    -0.191 NA
ATOM     38  C   UNL     1      35.682 -24.921 -10.280  0.00  0.00    +0.100 C 
ENDBRANCH  34  38
ENDBRANCH  27  31
ENDBRANCH  23  25
ENDBRANCH   2  23
TORSDOF 8
ENDMDL
MODEL 5
REMARK VINA RESULT:     -12.6      4.896     14.514
REMARK  Name = 25171648
REMARK  8 active torsions:
REMARK  status: ('A' for Active; 'I' for Inactive)
REMARK    1  A    between atoms: C_1  and  C_12
REMARK    2  A    between atoms: C_2  and  C_23
REMARK    3  A    between atoms: C_9  and  O_13
REMARK    4  A    between atoms: O_13  and  C_14
REMARK    5  A    between atoms: C_14  and  C_16
REMARK    6  A    between atoms: C_23  and  N_25
REMARK    7  A    between atoms: C_27  and  C_31
REMARK    8  A    between atoms: C_34  and  C_38
REMARK                            x       y       z     vdW  Elec       q    Type
REMARK                         _______ _______ _______ _____ _____    ______ ____
ROOT
ATOM      1  C   UNL     1      33.809 -13.747 -22.628  0.00  0.00    +0.062 C 
ATOM      2  C   UNL     1      32.360 -11.866 -22.179  0.00  0.00    +0.000 C 
ATOM      3  C   UNL     1      32.843 -13.129 -21.834  0.00  0.00    +0.007 C 
ATOM      4  C   UNL     1      34.292 -13.103 -23.767  0.00  0.00    +0.010 C 
ATOM      5  C   UNL     1      32.844 -11.222 -23.318  0.00  0.00    -0.003 C 
ATOM      6  C   UNL     1      33.810 -11.840 -24.111  0.00  0.00    +0.000 C 
ENDROOT
BRANCH   1  12
ATOM      7  N   UNL     1      34.899 -15.756 -23.253  0.00  0.00    -0.212 NA
ATOM      8  N   UNL     1      34.130 -15.432 -20.992  0.00  0.00    -0.190 NA
ATOM      9  C   UNL     1      35.235 -17.480 -21.606  0.00  0.00    +0.161 C 
ATOM     10  C   UNL     1      35.353 -16.972 -22.884  0.00  0.00    +0.201 C 
ATOM     11  C   UNL     1      34.609 -16.657 -20.692  0.00  0.00    +0.144 C 
ATOM     12  C   UNL     1      34.307 -15.050 -22.272  0.00  0.00    +0.031 C 
BRANCH   9  13
ATOM     13  O   UNL     1      35.711 -18.722 -21.266  0.00  0.00    -0.476 OA
BRANCH  13  14
ATOM     14  C   UNL     1      34.859 -19.826 -21.508  0.00  0.00    +0.205 C 
BRANCH  14  16
ATOM     15  N   UNL     1      33.753 -22.890 -18.672  0.00  0.00    +0.386 N 
ATOM     16  C   UNL     1      34.549 -20.502 -20.176  0.00  0.00    +0.040 C 
ATOM     17  C   UNL     1      35.510 -21.668 -19.914  0.00  0.00    -0.019 C 
ATOM     18  C   UNL     1      33.102 -21.005 -20.136  0.00  0.00    -0.019 C 
ATOM     19  C   UNL     1      35.143 -22.414 -18.629  0.00  0.00    -0.077 C 
ATOM     20  C   UNL     1      32.815 -21.773 -18.844  0.00  0.00    -0.077 C 
ATOM     21  C   UNL     1      33.434 -23.645 -17.459  0.00  0.00    -0.101 C 
ATOM     22  H   UNL     1      33.658 -23.509 -19.477  0.00  0.00    -0.080 HD
ENDBRANCH  14  16
ENDBRANCH  13  14
ENDBRANCH   9  13
ENDBRANCH   1  12
BRANCH   2  23
ATOM     23  C   UNL     1      31.327 -11.204 -21.331  0.00  0.00    +0.146 C 
BRANCH  23  25
ATOM     24  O   UNL     1      31.789 -10.413 -18.616  0.00  0.00    -0.268 OA
ATOM     25  N   UNL     1      31.744  -9.887 -20.879  0.00  0.00    -0.173 N 
ATOM     26  N   UNL     1      31.911  -8.967 -21.874  0.00  0.00    -0.175 NA
ATOM     27  C   UNL     1      32.275  -7.769 -21.546  0.00  0.00    +0.099 C 
ATOM     28  C   UNL     1      31.943  -9.609 -19.535  0.00  0.00    +0.268 C 
ATOM     29  C   UNL     1      32.549  -7.329 -20.165  0.00  0.00    +0.025 C 
ATOM     30  C   UNL     1      32.380  -8.236 -19.205  0.00  0.00    +0.061 C 
BRANCH  27  31
ATOM     31  C   UNL     1      32.455  -6.756 -22.620  0.00  0.00    +0.020 C 
ATOM     32  C   UNL     1      31.586  -5.669 -22.707  0.00  0.00    +0.012 C 
ATOM     33  C   UNL     1      33.495  -6.894 -23.540  0.00  0.00    +0.002 C 
ATOM     34  C   UNL     1      31.756  -4.719 -23.715  0.00  0.00    +0.068 C 
ATOM     35  C   UNL     1      33.665  -5.945 -24.548  0.00  0.00    +0.001 C 
ATOM     36  C   UNL     1      32.796  -4.857 -24.635  0.00  0.00    +0.010 C 
BRANCH  34  38
ATOM     37  N   UNL     1      30.143  -2.700 -23.879  0.00  0.00    -0.191 NA
ATOM     38  C   UNL     1      30.866  -3.605 -23.805  0.00  0.00    +0.100 C 
ENDBRANCH  34  38
ENDBRANCH  27  31
ENDBRANCH  23  25
ENDBRANCH   2  23
TORSDOF 8
ENDMDL
MODEL 6
REMARK VINA RESULT:     -12.3      1.643      2.053
REMARK  Name = 25171648
REMARK  8 active torsions:
REMARK  status: ('A' for Active; 'I' for Inactive)
REMARK    1  A    between atoms: C_1  and  C_12
REMARK    2  A    between atoms: C_2  and  C_23
REMARK    3  A    between atoms: C_9  and  O_13
REMARK    4  A    between atoms: O_13  and  C_14
REMARK    5  A    between atoms: C_14  and  C_16
REMARK    6  A    between atoms: C_23  and  N_25
REMARK    7  A    between atoms: C_27  and  C_31
REMARK    8  A    between atoms: C_34  and  C_38
REMARK                            x       y       z     vdW  Elec       q    Type
REMARK                         _______ _______ _______ _____ _____    ______ ____
ROOT
ATOM      1  C   UNL     1      35.495 -20.537 -20.235  0.00  0.00    +0.062 C 
ATOM      2  C   UNL     1      34.490 -22.298 -18.921  0.00  0.00    +0.000 C 
ATOM      3  C   UNL     1      34.397 -21.343 -19.935  0.00  0.00    +0.007 C 
ATOM      4  C   UNL     1      36.684 -20.685 -19.522  0.00  0.00    +0.010 C 
ATOM      5  C   UNL     1      35.679 -22.445 -18.208  0.00  0.00    -0.003 C 
ATOM      6  C   UNL     1      36.777 -21.639 -18.509  0.00  0.00    +0.000 C 
ENDROOT
BRANCH   1  12
ATOM      7  N   UNL     1      34.944 -19.982 -22.472  0.00  0.00    -0.212 NA
ATOM      8  N   UNL     1      35.776 -18.298 -20.963  0.00  0.00    -0.190 NA
ATOM      9  C   UNL     1      35.222 -17.715 -23.231  0.00  0.00    +0.161 C 
ATOM     10  C   UNL     1      34.868 -19.034 -23.429  0.00  0.00    +0.201 C 
ATOM     11  C   UNL     1      35.673 -17.401 -21.965  0.00  0.00    +0.144 C 
ATOM     12  C   UNL     1      35.400 -19.552 -21.281  0.00  0.00    +0.031 C 
BRANCH   9  13
ATOM     13  O   UNL     1      35.130 -16.775 -24.228  0.00  0.00    -0.476 OA
BRANCH  13  14
ATOM     14  C   UNL     1      33.848 -16.549 -24.783  0.00  0.00    +0.205 C 
BRANCH  14  16
ATOM     15  N   UNL     1      34.194 -12.277 -24.242  0.00  0.00    +0.386 N 
ATOM     16  C   UNL     1      33.450 -15.101 -24.513  0.00  0.00    +0.040 C 
ATOM     17  C   UNL     1      33.758 -14.211 -25.723  0.00  0.00    -0.019 C 
ATOM     18  C   UNL     1      34.166 -14.554 -23.273  0.00  0.00    -0.019 C 
ATOM     19  C   UNL     1      33.455 -12.741 -25.425  0.00  0.00    -0.077 C 
ATOM     20  C   UNL     1      33.848 -13.073 -23.056  0.00  0.00    -0.077 C 
ATOM     21  C   UNL     1      33.933 -10.858 -24.000  0.00  0.00    -0.101 C 
ATOM     22  H   UNL     1      35.189 -12.401 -24.425  0.00  0.00    -0.080 HD
ENDBRANCH  14  16
ENDBRANCH  13  14
ENDBRANCH   9  13
ENDBRANCH   1  12
BRANCH   2  23
ATOM     23  C   UNL     1      33.316 -23.161 -18.600  0.00  0.00    +0.146 C 
BRANCH  23  25
ATOM     24  O   UNL     1      31.002 -22.629 -16.994  0.00  0.00    -0.268 OA
ATOM     25  N   UNL     1      33.185 -23.405 -17.173  0.00  0.00    -0.173 N 
ATOM     26  N   UNL     1      34.297 -23.930 -16.579  0.00  0.00    -0.175 NA
ATOM     27  C   UNL     1      34.257 -24.168 -15.307  0.00  0.00    +0.099 C 
ATOM     28  C   UNL     1      32.015 -23.113 -16.489  0.00  0.00    +0.268 C 
ATOM     29  C   UNL     1      33.080 -23.934 -14.450  0.00  0.00    +0.025 C 
ATOM     30  C   UNL     1      32.004 -23.421 -15.043  0.00  0.00    +0.061 C 
BRANCH  27  31
ATOM     31  C   UNL     1      35.464 -24.734 -14.647  0.00  0.00    +0.020 C 
ATOM     32  C   UNL     1      36.139 -23.996 -13.674  0.00  0.00    +0.012 C 
ATOM     33  C   UNL     1      35.920 -26.004 -15.000  0.00  0.00    +0.002 C 
ATOM     34  C   UNL     1      37.270 -24.529 -13.055  0.00  0.00    +0.068 C 
ATOM     35  C   UNL     1      37.051 -26.537 -14.381  0.00  0.00    +0.001 C 
ATOM     36  C   UNL     1      37.726 -25.799 -13.409  0.00  0.00    +0.010 C 
BRANCH  34  38
ATOM     37  N   UNL     1      38.525 -23.160 -11.250  0.00  0.00    -0.191 NA
ATOM     38  C   UNL     1      37.962 -23.773 -12.059  0.00  0.00    +0.100 C 
ENDBRANCH  34  38
ENDBRANCH  27  31
ENDBRANCH  23  25
ENDBRANCH   2  23
TORSDOF 8
ENDMDL
MODEL 7
REMARK VINA RESULT:     -11.5      4.965     14.819
REMARK  Name = 25171648
REMARK  8 active torsions:
REMARK  status: ('A' for Active; 'I' for Inactive)
REMARK    1  A    between atoms: C_1  and  C_12
REMARK    2  A    between atoms: C_2  and  C_23
REMARK    3  A    between atoms: C_9  and  O_13
REMARK    4  A    between atoms: O_13  and  C_14
REMARK    5  A    between atoms: C_14  and  C_16
REMARK    6  A    between atoms: C_23  and  N_25
REMARK    7  A    between atoms: C_27  and  C_31
REMARK    8  A    between atoms: C_34  and  C_38
REMARK                            x       y       z     vdW  Elec       q    Type
REMARK                         _______ _______ _______ _____ _____    ______ ____
ROOT
ATOM      1  C   UNL     1      34.160 -14.571 -23.844  0.00  0.00    +0.062 C 
ATOM      2  C   UNL     1      34.143 -12.166 -24.082  0.00  0.00    +0.000 C 
ATOM      3  C   UNL     1      34.506 -13.307 -23.365  0.00  0.00    +0.007 C 
ATOM      4  C   UNL     1      33.451 -14.693 -25.039  0.00  0.00    +0.010 C 
ATOM      5  C   UNL     1      33.435 -12.289 -25.277  0.00  0.00    -0.003 C 
ATOM      6  C   UNL     1      33.090 -13.553 -25.756  0.00  0.00    +0.000 C 
ENDROOT
BRANCH   1  12
ATOM      7  N   UNL     1      34.892 -16.824 -23.829  0.00  0.00    -0.212 NA
ATOM      8  N   UNL     1      34.488 -15.654 -21.761  0.00  0.00    -0.190 NA
ATOM      9  C   UNL     1      35.232 -17.943 -21.724  0.00  0.00    +0.161 C 
ATOM     10  C   UNL     1      35.236 -17.909 -23.103  0.00  0.00    +0.201 C 
ATOM     11  C   UNL     1      34.846 -16.774 -21.100  0.00  0.00    +0.144 C 
ATOM     12  C   UNL     1      34.534 -15.748 -23.104  0.00  0.00    +0.031 C 
BRANCH   9  13
ATOM     13  O   UNL     1      35.589 -19.065 -21.019  0.00  0.00    -0.476 OA
BRANCH  13  14
ATOM     14  C   UNL     1      34.765 -20.206 -21.163  0.00  0.00    +0.205 C 
BRANCH  14  16
ATOM     15  N   UNL     1      34.117 -23.186 -18.104  0.00  0.00    +0.386 N 
ATOM     16  C   UNL     1      34.539 -20.821 -19.785  0.00  0.00    +0.040 C 
ATOM     17  C   UNL     1      35.675 -21.783 -19.419  0.00  0.00    -0.019 C 
ATOM     18  C   UNL     1      33.197 -21.557 -19.723  0.00  0.00    -0.019 C 
ATOM     19  C   UNL     1      35.406 -22.480 -18.083  0.00  0.00    -0.077 C 
ATOM     20  C   UNL     1      33.010 -22.260 -18.377  0.00  0.00    -0.077 C 
ATOM     21  C   UNL     1      33.899 -23.888 -16.839  0.00  0.00    -0.101 C 
ATOM     22  H   UNL     1      34.147 -23.872 -18.858  0.00  0.00    -0.080 HD
ENDBRANCH  14  16
ENDBRANCH  13  14
ENDBRANCH   9  13
ENDBRANCH   1  12
BRANCH   2  23
ATOM     23  C   UNL     1      34.513 -10.815 -23.570  0.00  0.00    +0.146 C 
BRANCH  23  25
ATOM     24  O   UNL     1      32.304 -11.766 -22.012  0.00  0.00    -0.268 OA
ATOM     25  N   UNL     1      33.351 -10.041 -23.165  0.00  0.00    -0.173 N 
ATOM     26  N   UNL     1      33.347  -8.746 -23.597  0.00  0.00    -0.175 NA
ATOM     27  C   UNL     1      32.340  -7.998 -23.281  0.00  0.00    +0.099 C 
ATOM     28  C   UNL     1      32.334 -10.600 -22.405  0.00  0.00    +0.268 C 
ATOM     29  C   UNL     1      31.197  -8.439 -22.459  0.00  0.00    +0.025 C 
ATOM     30  C   UNL     1      31.213  -9.705 -22.047  0.00  0.00    +0.061 C 
BRANCH  27  31
ATOM     31  C   UNL     1      32.321  -6.586 -23.750  0.00  0.00    +0.020 C 
ATOM     32  C   UNL     1      31.495  -5.653 -23.124  0.00  0.00    +0.012 C 
ATOM     33  C   UNL     1      33.133  -6.196 -24.816  0.00  0.00    +0.002 C 
ATOM     34  C   UNL     1      31.479  -4.330 -23.565  0.00  0.00    +0.068 C 
ATOM     35  C   UNL     1      33.117  -4.872 -25.257  0.00  0.00    +0.001 C 
ATOM     36  C   UNL     1      32.290  -3.939 -24.631  0.00  0.00    +0.010 C 
BRANCH  34  38
ATOM     37  N   UNL     1      29.943  -2.597 -22.405  0.00  0.00    -0.191 NA
ATOM     38  C   UNL     1      30.631  -3.373 -22.925  0.00  0.00    +0.100 C 
ENDBRANCH  34  38
ENDBRANCH  27  31
ENDBRANCH  23  25
ENDBRANCH   2  23
TORSDOF 8
ENDMDL
MODEL 8
REMARK VINA RESULT:     -11.1      2.117     12.037
REMARK  Name = 25171648
REMARK  8 active torsions:
REMARK  status: ('A' for Active; 'I' for Inactive)
REMARK    1  A    between atoms: C_1  and  C_12
REMARK    2  A    between atoms: C_2  and  C_23
REMARK    3  A    between atoms: C_9  and  O_13
REMARK    4  A    between atoms: O_13  and  C_14
REMARK    5  A    between atoms: C_14  and  C_16
REMARK    6  A    between atoms: C_23  and  N_25
REMARK    7  A    between atoms: C_27  and  C_31
REMARK    8  A    between atoms: C_34  and  C_38
REMARK                            x       y       z     vdW  Elec       q    Type
REMARK                         _______ _______ _______ _____ _____    ______ ____
ROOT
ATOM      1  C   UNL     1      35.095 -19.847 -21.664  0.00  0.00    +0.062 C 
ATOM      2  C   UNL     1      35.286 -17.756 -22.861  0.00  0.00    +0.000 C 
ATOM      3  C   UNL     1      35.466 -18.503 -21.696  0.00  0.00    +0.007 C 
ATOM      4  C   UNL     1      34.544 -20.445 -22.798  0.00  0.00    +0.010 C 
ATOM      5  C   UNL     1      34.735 -18.355 -23.994  0.00  0.00    -0.003 C 
ATOM      6  C   UNL     1      34.365 -19.699 -23.963  0.00  0.00    +0.000 C 
ENDROOT
BRANCH   1  12
ATOM      7  N   UNL     1      36.510 -20.590 -19.915  0.00  0.00    -0.212 NA
ATOM      8  N   UNL     1      34.205 -21.287 -20.005  0.00  0.00    -0.190 NA
ATOM      9  C   UNL     1      35.626 -22.052 -18.219  0.00  0.00    +0.161 C 
ATOM     10  C   UNL     1      36.648 -21.321 -18.789  0.00  0.00    +0.201 C 
ATOM     11  C   UNL     1      34.413 -21.996 -18.877  0.00  0.00    +0.144 C 
ATOM     12  C   UNL     1      35.280 -20.617 -20.462  0.00  0.00    +0.031 C 
BRANCH   9  13
ATOM     13  O   UNL     1      35.802 -22.785 -17.072  0.00  0.00    -0.476 OA
BRANCH  13  14
ATOM     14  C   UNL     1      34.638 -23.278 -16.437  0.00  0.00    +0.205 C 
BRANCH  14  16
ATOM     15  N   UNL     1      35.428 -23.856 -12.230  0.00  0.00    +0.386 N 
ATOM     16  C   UNL     1      35.046 -23.962 -15.135  0.00  0.00    +0.040 C 
ATOM     17  C   UNL     1      33.874 -24.010 -14.148  0.00  0.00    -0.019 C 
ATOM     18  C   UNL     1      36.238 -23.249 -14.488  0.00  0.00    -0.019 C 
ATOM     19  C   UNL     1      34.301 -24.603 -12.805  0.00  0.00    -0.077 C 
ATOM     20  C   UNL     1      36.587 -23.868 -13.133  0.00  0.00    -0.077 C 
ATOM     21  C   UNL     1      35.791 -24.403 -10.923  0.00  0.00    -0.101 C 
ATOM     22  H   UNL     1      35.134 -22.887 -12.109  0.00  0.00    -0.080 HD
ENDBRANCH  14  16
ENDBRANCH  13  14
ENDBRANCH   9  13
ENDBRANCH   1  12
BRANCH   2  23
ATOM     23  C   UNL     1      35.682 -16.319 -22.895  0.00  0.00    +0.146 C 
BRANCH  23  25
ATOM     24  O   UNL     1      34.702 -16.266 -25.588  0.00  0.00    -0.268 OA
ATOM     25  N   UNL     1      34.622 -15.466 -23.407  0.00  0.00    -0.173 N 
ATOM     26  N   UNL     1      34.076 -14.618 -22.487  0.00  0.00    -0.175 NA
ATOM     27  C   UNL     1      33.130 -13.822 -22.873  0.00  0.00    +0.099 C 
ATOM     28  C   UNL     1      34.221 -15.522 -24.734  0.00  0.00    +0.268 C 
ATOM     29  C   UNL     1      32.579 -13.782 -24.241  0.00  0.00    +0.025 C 
ATOM     30  C   UNL     1      33.124 -14.613 -25.127  0.00  0.00    +0.061 C 
BRANCH  27  31
ATOM     31  C   UNL     1      32.531 -12.890 -21.882  0.00  0.00    +0.020 C 
ATOM     32  C   UNL     1      32.385 -11.538 -22.193  0.00  0.00    +0.012 C 
ATOM     33  C   UNL     1      32.112 -13.369 -20.639  0.00  0.00    +0.002 C 
ATOM     34  C   UNL     1      31.821 -10.665 -21.262  0.00  0.00    +0.068 C 
ATOM     35  C   UNL     1      31.549 -12.496 -19.709  0.00  0.00    +0.001 C 
ATOM     36  C   UNL     1      31.403 -11.144 -20.020  0.00  0.00    +0.010 C 
BRANCH  34  38
ATOM     37  N   UNL     1      31.552  -8.155 -21.839  0.00  0.00    -0.191 NA
ATOM     38  C   UNL     1      31.673  -9.280 -21.580  0.00  0.00    +0.100 C 
ENDBRANCH  34  38
ENDBRANCH  27  31
ENDBRANCH  23  25
ENDBRANCH   2  23
TORSDOF 8
ENDMDL
MODEL 9
REMARK VINA RESULT:     -10.7      2.520     11.857
REMARK  Name = 25171648
REMARK  8 active torsions:
REMARK  status: ('A' for Active; 'I' for Inactive)
REMARK    1  A    between atoms: C_1  and  C_12
REMARK    2  A    between atoms: C_2  and  C_23
REMARK    3  A    between atoms: C_9  and  O_13
REMARK    4  A    between atoms: O_13  and  C_14
REMARK    5  A    between atoms: C_14  and  C_16
REMARK    6  A    between atoms: C_23  and  N_25
REMARK    7  A    between atoms: C_27  and  C_31
REMARK    8  A    between atoms: C_34  and  C_38
REMARK                            x       y       z     vdW  Elec       q    Type
REMARK                         _______ _______ _______ _____ _____    ______ ____
ROOT
ATOM      1  C   UNL     1      34.960 -19.823 -21.705  0.00  0.00    +0.062 C 
ATOM      2  C   UNL     1      35.228 -17.729 -22.882  0.00  0.00    +0.000 C 
ATOM      3  C   UNL     1      35.342 -18.481 -21.712  0.00  0.00    +0.007 C 
ATOM      4  C   UNL     1      34.463 -20.412 -22.868  0.00  0.00    +0.010 C 
ATOM      5  C   UNL     1      34.731 -18.319 -24.044  0.00  0.00    -0.003 C 
ATOM      6  C   UNL     1      34.349 -19.660 -24.037  0.00  0.00    +0.000 C 
ENDROOT
BRANCH   1  12
ATOM      7  N   UNL     1      33.942 -21.129 -20.011  0.00  0.00    -0.212 NA
ATOM      8  N   UNL     1      36.315 -20.715 -19.978  0.00  0.00    -0.190 NA
ATOM      9  C   UNL     1      35.300 -22.045 -18.247  0.00  0.00    +0.161 C 
ATOM     10  C   UNL     1      34.089 -21.850 -18.880  0.00  0.00    +0.201 C 
ATOM     11  C   UNL     1      36.390 -21.449 -18.848  0.00  0.00    +0.144 C 
ATOM     12  C   UNL     1      35.078 -20.598 -20.498  0.00  0.00    +0.031 C 
BRANCH   9  13
ATOM     13  O   UNL     1      35.413 -22.786 -17.097  0.00  0.00    -0.476 OA
BRANCH  13  14
ATOM     14  C   UNL     1      34.500 -23.854 -16.926  0.00  0.00    +0.205 C 
BRANCH  14  16
ATOM     15  N   UNL     1      31.466 -24.331 -13.890  0.00  0.00    +0.386 N 
ATOM     16  C   UNL     1      33.581 -23.525 -15.754  0.00  0.00    +0.040 C 
ATOM     17  C   UNL     1      33.840 -24.466 -14.571  0.00  0.00    -0.019 C 
ATOM     18  C   UNL     1      32.108 -23.608 -16.167  0.00  0.00    -0.019 C 
ATOM     19  C   UNL     1      32.856 -24.210 -13.429  0.00  0.00    -0.077 C 
ATOM     20  C   UNL     1      31.181 -23.379 -14.971  0.00  0.00    -0.077 C 
ATOM     21  C   UNL     1      30.538 -24.134 -12.776  0.00  0.00    -0.101 C 
ATOM     22  H   UNL     1      31.338 -25.274 -14.258  0.00  0.00    -0.080 HD
ENDBRANCH  14  16
ENDBRANCH  13  14
ENDBRANCH   9  13
ENDBRANCH   1  12
BRANCH   2  23
ATOM     23  C   UNL     1      35.636 -16.295 -22.890  0.00  0.00    +0.146 C 
BRANCH  23  25
ATOM     24  O   UNL     1      34.689 -16.210 -25.594  0.00  0.00    -0.268 OA
ATOM     25  N   UNL     1      34.592 -15.426 -23.408  0.00  0.00    -0.173 N 
ATOM     26  N   UNL     1      34.044 -14.579 -22.488  0.00  0.00    -0.175 NA
ATOM     27  C   UNL     1      33.112 -13.770 -22.879  0.00  0.00    +0.099 C 
ATOM     28  C   UNL     1      34.206 -15.467 -24.740  0.00  0.00    +0.268 C 
ATOM     29  C   UNL     1      32.578 -13.713 -24.253  0.00  0.00    +0.025 C 
ATOM     30  C   UNL     1      33.124 -14.543 -25.139  0.00  0.00    +0.061 C 
BRANCH  27  31
ATOM     31  C   UNL     1      32.511 -12.839 -21.887  0.00  0.00    +0.020 C 
ATOM     32  C   UNL     1      32.353 -11.490 -22.203  0.00  0.00    +0.012 C 
ATOM     33  C   UNL     1      32.102 -13.317 -20.641  0.00  0.00    +0.002 C 
ATOM     34  C   UNL     1      31.788 -10.618 -21.272  0.00  0.00    +0.068 C 
ATOM     35  C   UNL     1      31.537 -12.445 -19.710  0.00  0.00    +0.001 C 
ATOM     36  C   UNL     1      31.380 -11.096 -20.026  0.00  0.00    +0.010 C 
BRANCH  34  38
ATOM     37  N   UNL     1      31.497  -8.111 -21.855  0.00  0.00    -0.191 NA
ATOM     38  C   UNL     1      31.628  -9.235 -21.593  0.00  0.00    +0.100 C 
ENDBRANCH  34  38
ENDBRANCH  27  31
ENDBRANCH  23  25
ENDBRANCH   2  23
TORSDOF 8
ENDMDL
