MODEL 1
REMARK VINA RESULT:     -11.8      0.000      0.000
REMARK  Name = 11840906
REMARK  7 active torsions:
REMARK  status: ('A' for Active; 'I' for Inactive)
REMARK    1  A    between atoms: O_1  and  C_3
REMARK    2  A    between atoms: O_1  and  C_18
REMARK    3  A    between atoms: C_5  and  C_9
REMARK    4  A    between atoms: C_18  and  C_19
REMARK    5  A    between atoms: C_19  and  N_20
REMARK    6  A    between atoms: C_19  and  C_24
REMARK    7  A    between atoms: C_24  and  C_26
REMARK                            x       y       z     vdW  Elec       q    Type
REMARK                         _______ _______ _______ _____ _____    ______ ____
ROOT
ATOM      1  O   UNL     1      34.680 -21.800 -19.851  0.00  0.00    -0.476 OA
ENDROOT
BRANCH   1   3
ATOM      2  N   UNL     1      37.502 -19.530 -20.266  0.00  0.00    -0.239 NA
ATOM      3  C   UNL     1      35.426 -20.744 -20.309  0.00  0.00    +0.158 C 
ATOM      4  C   UNL     1      34.899 -19.860 -21.232  0.00  0.00    +0.040 C 
ATOM      5  C   UNL     1      35.680 -18.799 -21.677  0.00  0.00    +0.022 C 
ATOM      6  C   UNL     1      36.713 -20.549 -19.857  0.00  0.00    +0.136 C 
ATOM      7  C   UNL     1      36.962 -18.679 -21.168  0.00  0.00    +0.099 C 
BRANCH   5   9
ATOM      8  N   UNL     1      33.494 -13.752 -25.097  0.00  0.00    -0.242 NA
ATOM      9  C   UNL     1      35.168 -17.852 -22.640  0.00  0.00    +0.002 C 
ATOM     10  C   UNL     1      34.495 -15.580 -23.204  0.00  0.00    +0.003 C 
ATOM     11  C   UNL     1      34.993 -16.513 -22.279  0.00  0.00    +0.000 C 
ATOM     12  C   UNL     1      34.173 -16.011 -24.507  0.00  0.00    +0.019 C 
ATOM     13  C   UNL     1      34.847 -18.272 -23.930  0.00  0.00    +0.000 C 
ATOM     14  C   UNL     1      34.351 -17.359 -24.861  0.00  0.00    +0.002 C 
ATOM     15  C   UNL     1      34.310 -14.233 -22.871  0.00  0.00    +0.021 C 
ATOM     16  C   UNL     1      33.681 -15.057 -25.399  0.00  0.00    +0.099 C 
ATOM     17  C   UNL     1      33.815 -13.375 -23.841  0.00  0.00    +0.099 C 
ENDBRANCH   5   9
ENDBRANCH   1   3
BRANCH   1  18
ATOM     18  C   UNL     1      35.086 -22.384 -18.620  0.00  0.00    +0.184 C 
BRANCH  18  19
ATOM     19  C   UNL     1      33.873 -22.554 -17.700  0.00  0.00    -0.021 C 
BRANCH  19  20
ATOM     20  N   UNL     1      32.690 -22.797 -18.527  0.00  0.00    +0.384 N 
ATOM     21  H   UNL     1      32.793 -22.313 -19.419  0.00  0.00    -0.089 HD
ATOM     22  H   UNL     1      31.861 -22.449 -18.045  0.00  0.00    -0.089 HD
ATOM     23  H   UNL     1      32.591 -23.799 -18.694  0.00  0.00    -0.089 HD
ENDBRANCH  19  20
BRANCH  19  24
ATOM     24  C   UNL     1      34.087 -23.700 -16.689  0.00  0.00    -0.012 C 
BRANCH  24  26
ATOM     25  N   UNL     1      33.857 -24.900 -13.455  0.00  0.00    -0.270 NA
ATOM     26  C   UNL     1      33.667 -23.357 -15.272  0.00  0.00    +0.046 C 
ATOM     27  C   UNL     1      32.323 -23.889 -14.891  0.00  0.00    -0.007 C 
ATOM     28  C   UNL     1      34.513 -24.114 -14.254  0.00  0.00    +0.130 C 
ATOM     29  C   UNL     1      32.505 -24.779 -13.824  0.00  0.00    +0.071 C 
ATOM     30  C   UNL     1      31.070 -23.622 -15.407  0.00  0.00    -0.024 C 
ATOM     31  C   UNL     1      31.425 -25.429 -13.253  0.00  0.00    +0.014 C 
ATOM     32  C   UNL     1      29.976 -24.275 -14.836  0.00  0.00    +0.052 C 
ATOM     33  C   UNL     1      30.152 -25.171 -13.768  0.00  0.00    -0.020 C 
ENDBRANCH  24  26
ENDBRANCH  19  24
ENDBRANCH  18  19
ENDBRANCH   1  18
TORSDOF 7
ENDMDL
MODEL 2
REMARK VINA RESULT:     -11.7      1.900     11.157
REMARK  Name = 11840906
REMARK  7 active torsions:
REMARK  status: ('A' for Active; 'I' for Inactive)
REMARK    1  A    between atoms: O_1  and  C_3
REMARK    2  A    between atoms: O_1  and  C_18
REMARK    3  A    between atoms: C_5  and  C_9
REMARK    4  A    between atoms: C_18  and  C_19
REMARK    5  A    between atoms: C_19  and  N_20
REMARK    6  A    between atoms: C_19  and  C_24
REMARK    7  A    between atoms: C_24  and  C_26
REMARK                            x       y       z     vdW  Elec       q    Type
REMARK                         _______ _______ _______ _____ _____    ______ ____
ROOT
ATOM      1  O   UNL     1      36.186 -21.177 -19.484  0.00  0.00    -0.476 OA
ENDROOT
BRANCH   1   3
ATOM      2  N   UNL     1      33.069 -22.804 -18.522  0.00  0.00    -0.239 NA
ATOM      3  C   UNL     1      35.287 -21.899 -18.742  0.00  0.00    +0.158 C 
ATOM      4  C   UNL     1      35.653 -22.433 -17.520  0.00  0.00    +0.040 C 
ATOM      5  C   UNL     1      34.719 -23.161 -16.790  0.00  0.00    +0.022 C 
ATOM      6  C   UNL     1      34.004 -22.104 -19.202  0.00  0.00    +0.136 C 
ATOM      7  C   UNL     1      33.453 -23.315 -17.330  0.00  0.00    +0.099 C 
BRANCH   5   9
ATOM      8  N   UNL     1      37.369 -25.742 -11.476  0.00  0.00    -0.242 NA
ATOM      9  C   UNL     1      35.058 -23.735 -15.510  0.00  0.00    +0.002 C 
ATOM     10  C   UNL     1      36.731 -24.622 -13.979  0.00  0.00    +0.003 C 
ATOM     11  C   UNL     1      36.386 -24.061 -15.219  0.00  0.00    +0.000 C 
ATOM     12  C   UNL     1      35.720 -24.853 -13.025  0.00  0.00    +0.019 C 
ATOM     13  C   UNL     1      34.062 -23.967 -14.563  0.00  0.00    +0.000 C 
ATOM     14  C   UNL     1      34.388 -24.523 -13.325  0.00  0.00    +0.002 C 
ATOM     15  C   UNL     1      38.053 -24.958 -13.660  0.00  0.00    +0.021 C 
ATOM     16  C   UNL     1      36.100 -25.411 -11.803  0.00  0.00    +0.099 C 
ATOM     17  C   UNL     1      38.312 -25.506 -12.413  0.00  0.00    +0.099 C 
ENDBRANCH   5   9
ENDBRANCH   1   3
BRANCH   1  18
ATOM     18  C   UNL     1      35.681 -20.519 -20.638  0.00  0.00    +0.184 C 
BRANCH  18  19
ATOM     19  C   UNL     1      36.232 -19.091 -20.704  0.00  0.00    -0.021 C 
BRANCH  19  20
ATOM     20  N   UNL     1      37.569 -19.077 -20.109  0.00  0.00    +0.384 N 
ATOM     21  H   UNL     1      37.505 -18.775 -19.136  0.00  0.00    -0.089 HD
ATOM     22  H   UNL     1      38.166 -18.432 -20.627  0.00  0.00    -0.089 HD
ATOM     23  H   UNL     1      37.968 -20.015 -20.147  0.00  0.00    -0.089 HD
ENDBRANCH  19  20
BRANCH  19  24
ATOM     24  C   UNL     1      36.266 -18.566 -22.155  0.00  0.00    -0.012 C 
BRANCH  24  26
ATOM     25  N   UNL     1      34.741 -16.630 -24.578  0.00  0.00    -0.270 NA
ATOM     26  C   UNL     1      34.938 -18.019 -22.643  0.00  0.00    +0.046 C 
ATOM     27  C   UNL     1      34.682 -16.601 -22.249  0.00  0.00    -0.007 C 
ATOM     28  C   UNL     1      34.944 -17.841 -24.157  0.00  0.00    +0.130 C 
ATOM     29  C   UNL     1      34.573 -15.845 -23.423  0.00  0.00    +0.071 C 
ATOM     30  C   UNL     1      34.546 -16.024 -21.001  0.00  0.00    -0.024 C 
ATOM     31  C   UNL     1      34.330 -14.483 -23.369  0.00  0.00    +0.014 C 
ATOM     32  C   UNL     1      34.301 -14.651 -20.939  0.00  0.00    +0.052 C 
ATOM     33  C   UNL     1      34.195 -13.887 -22.113  0.00  0.00    -0.020 C 
ENDBRANCH  24  26
ENDBRANCH  19  24
ENDBRANCH  18  19
ENDBRANCH   1  18
TORSDOF 7
ENDMDL
MODEL 3
REMARK VINA RESULT:     -11.7      2.707      5.519
REMARK  Name = 11840906
REMARK  7 active torsions:
REMARK  status: ('A' for Active; 'I' for Inactive)
REMARK    1  A    between atoms: O_1  and  C_3
REMARK    2  A    between atoms: O_1  and  C_18
REMARK    3  A    between atoms: C_5  and  C_9
REMARK    4  A    between atoms: C_18  and  C_19
REMARK    5  A    between atoms: C_19  and  N_20
REMARK    6  A    between atoms: C_19  and  C_24
REMARK    7  A    between atoms: C_24  and  C_26
REMARK                            x       y       z     vdW  Elec       q    Type
REMARK                         _______ _______ _______ _____ _____    ______ ____
ROOT
ATOM      1  O   UNL     1      35.603 -17.946 -22.702  0.00  0.00    -0.476 OA
ENDROOT
BRANCH   1   3
ATOM      2  N   UNL     1      34.032 -16.533 -25.672  0.00  0.00    -0.239 NA
ATOM      3  C   UNL     1      34.960 -17.047 -23.514  0.00  0.00    +0.158 C 
ATOM      4  C   UNL     1      34.599 -15.801 -23.034  0.00  0.00    +0.040 C 
ATOM      5  C   UNL     1      33.948 -14.911 -23.881  0.00  0.00    +0.022 C 
ATOM      6  C   UNL     1      34.663 -17.371 -24.820  0.00  0.00    +0.136 C 
ATOM      7  C   UNL     1      33.691 -15.321 -25.178  0.00  0.00    +0.099 C 
BRANCH   5   9
ATOM      8  N   UNL     1      31.602  -9.634 -20.951  0.00  0.00    -0.242 NA
ATOM      9  C   UNL     1      33.554 -13.600 -23.421  0.00  0.00    +0.002 C 
ATOM     10  C   UNL     1      32.359 -12.200 -21.827  0.00  0.00    +0.003 C 
ATOM     11  C   UNL     1      32.751 -13.469 -22.285  0.00  0.00    +0.000 C 
ATOM     12  C   UNL     1      32.787 -11.055 -22.529  0.00  0.00    +0.019 C 
ATOM     13  C   UNL     1      33.973 -12.464 -24.112  0.00  0.00    +0.000 C 
ATOM     14  C   UNL     1      33.593 -11.196 -23.670  0.00  0.00    +0.002 C 
ATOM     15  C   UNL     1      31.556 -12.038 -20.691  0.00  0.00    +0.021 C 
ATOM     16  C   UNL     1      32.378  -9.811 -22.044  0.00  0.00    +0.099 C 
ATOM     17  C   UNL     1      31.213 -10.753 -20.303  0.00  0.00    +0.099 C 
ENDBRANCH   5   9
ENDBRANCH   1   3
BRANCH   1  18
ATOM     18  C   UNL     1      34.903 -19.146 -22.396  0.00  0.00    +0.184 C 
BRANCH  18  19
ATOM     19  C   UNL     1      35.593 -19.867 -21.233  0.00  0.00    -0.021 C 
BRANCH  19  20
ATOM     20  N   UNL     1      36.562 -18.954 -20.626  0.00  0.00    +0.384 N 
ATOM     21  H   UNL     1      36.704 -18.151 -21.240  0.00  0.00    -0.089 HD
ATOM     22  H   UNL     1      37.449 -19.440 -20.491  0.00  0.00    -0.089 HD
ATOM     23  H   UNL     1      36.210 -18.634 -19.724  0.00  0.00    -0.089 HD
ENDBRANCH  19  20
BRANCH  19  24
ATOM     24  C   UNL     1      34.569 -20.362 -20.189  0.00  0.00    -0.012 C 
BRANCH  24  26
ATOM     25  N   UNL     1      33.258 -22.939 -18.295  0.00  0.00    -0.270 NA
ATOM     26  C   UNL     1      34.699 -21.835 -19.852  0.00  0.00    +0.046 C 
ATOM     27  C   UNL     1      35.417 -22.105 -18.569  0.00  0.00    -0.007 C 
ATOM     28  C   UNL     1      33.343 -22.432 -19.488  0.00  0.00    +0.130 C 
ATOM     29  C   UNL     1      34.522 -22.753 -17.709  0.00  0.00    +0.071 C 
ATOM     30  C   UNL     1      36.716 -21.827 -18.191  0.00  0.00    -0.024 C 
ATOM     31  C   UNL     1      34.913 -23.133 -16.436  0.00  0.00    +0.014 C 
ATOM     32  C   UNL     1      37.118 -22.208 -16.908  0.00  0.00    +0.052 C 
ATOM     33  C   UNL     1      36.224 -22.855 -16.039  0.00  0.00    -0.020 C 
ENDBRANCH  24  26
ENDBRANCH  19  24
ENDBRANCH  18  19
ENDBRANCH   1  18
TORSDOF 7
ENDMDL
MODEL 4
REMARK VINA RESULT:     -11.7      3.393     10.770
REMARK  Name = 11840906
REMARK  7 active torsions:
REMARK  status: ('A' for Active; 'I' for Inactive)
REMARK    1  A    between atoms: O_1  and  C_3
REMARK    2  A    between atoms: O_1  and  C_18
REMARK    3  A    between atoms: C_5  and  C_9
REMARK    4  A    between atoms: C_18  and  C_19
REMARK    5  A    between atoms: C_19  and  N_20
REMARK    6  A    between atoms: C_19  and  C_24
REMARK    7  A    between atoms: C_24  and  C_26
REMARK                            x       y       z     vdW  Elec       q    Type
REMARK                         _______ _______ _______ _____ _____    ______ ____
ROOT
ATOM      1  O   UNL     1      34.901 -14.649 -23.308  0.00  0.00    -0.476 OA
ENDROOT
BRANCH   1   3
ATOM      2  N   UNL     1      34.419 -17.828 -25.026  0.00  0.00    -0.239 NA
ATOM      3  C   UNL     1      34.833 -16.003 -23.514  0.00  0.00    +0.158 C 
ATOM      4  C   UNL     1      35.096 -16.885 -22.482  0.00  0.00    +0.040 C 
ATOM      5  C   UNL     1      35.019 -18.252 -22.722  0.00  0.00    +0.022 C 
ATOM      6  C   UNL     1      34.503 -16.506 -24.755  0.00  0.00    +0.136 C 
ATOM      7  C   UNL     1      34.680 -18.668 -23.999  0.00  0.00    +0.099 C 
BRANCH   5   9
ATOM      8  N   UNL     1      35.018 -22.722 -18.036  0.00  0.00    -0.242 NA
ATOM      9  C   UNL     1      35.285 -19.208 -21.673  0.00  0.00    +0.002 C 
ATOM     10  C   UNL     1      34.477 -20.866 -20.083  0.00  0.00    +0.003 C 
ATOM     11  C   UNL     1      34.234 -19.934 -21.105  0.00  0.00    +0.000 C 
ATOM     12  C   UNL     1      35.798 -21.062 -19.633  0.00  0.00    +0.019 C 
ATOM     13  C   UNL     1      36.589 -19.406 -21.223  0.00  0.00    +0.000 C 
ATOM     14  C   UNL     1      36.848 -20.328 -20.208  0.00  0.00    +0.002 C 
ATOM     15  C   UNL     1      33.444 -21.608 -19.496  0.00  0.00    +0.021 C 
ATOM     16  C   UNL     1      36.001 -21.996 -18.615  0.00  0.00    +0.099 C 
ATOM     17  C   UNL     1      33.765 -22.508 -18.493  0.00  0.00    +0.099 C 
ENDBRANCH   5   9
ENDBRANCH   1   3
BRANCH   1  18
ATOM     18  C   UNL     1      33.748 -13.891 -23.652  0.00  0.00    +0.184 C 
BRANCH  18  19
ATOM     19  C   UNL     1      34.171 -12.559 -24.280  0.00  0.00    -0.021 C 
BRANCH  19  20
ATOM     20  N   UNL     1      33.357 -12.324 -25.473  0.00  0.00    +0.384 N 
ATOM     21  H   UNL     1      33.529 -11.381 -25.822  0.00  0.00    -0.089 HD
ATOM     22  H   UNL     1      32.369 -12.424 -25.236  0.00  0.00    -0.089 HD
ATOM     23  H   UNL     1      33.604 -13.003 -26.192  0.00  0.00    -0.089 HD
ENDBRANCH  19  20
BRANCH  19  24
ATOM     24  C   UNL     1      34.033 -11.394 -23.277  0.00  0.00    -0.012 C 
BRANCH  24  26
ATOM     25  N   UNL     1      32.006  -9.006 -21.814  0.00  0.00    -0.270 NA
ATOM     26  C   UNL     1      32.596 -11.014 -22.970  0.00  0.00    +0.046 C 
ATOM     27  C   UNL     1      32.173 -11.317 -21.569  0.00  0.00    -0.007 C 
ATOM     28  C   UNL     1      32.427  -9.499 -22.940  0.00  0.00    +0.130 C 
ATOM     29  C   UNL     1      31.839 -10.105 -20.953  0.00  0.00    +0.071 C 
ATOM     30  C   UNL     1      32.077 -12.522 -20.899  0.00  0.00    -0.024 C 
ATOM     31  C   UNL     1      31.403 -10.074 -19.639  0.00  0.00    +0.014 C 
ATOM     32  C   UNL     1      31.639 -12.498 -19.573  0.00  0.00    +0.052 C 
ATOM     33  C   UNL     1      31.305 -11.285 -18.949  0.00  0.00    -0.020 C 
ENDBRANCH  24  26
ENDBRANCH  19  24
ENDBRANCH  18  19
ENDBRANCH   1  18
TORSDOF 7
ENDMDL
MODEL 5
REMARK VINA RESULT:     -11.6      3.210     11.702
REMARK  Name = 11840906
REMARK  7 active torsions:
REMARK  status: ('A' for Active; 'I' for Inactive)
REMARK    1  A    between atoms: O_1  and  C_3
REMARK    2  A    between atoms: O_1  and  C_18
REMARK    3  A    between atoms: C_5  and  C_9
REMARK    4  A    between atoms: C_18  and  C_19
REMARK    5  A    between atoms: C_19  and  N_20
REMARK    6  A    between atoms: C_19  and  C_24
REMARK    7  A    between atoms: C_24  and  C_26
REMARK                            x       y       z     vdW  Elec       q    Type
REMARK                         _______ _______ _______ _____ _____    ______ ____
ROOT
ATOM      1  O   UNL     1      35.326 -15.436 -23.109  0.00  0.00    -0.476 OA
ENDROOT
BRANCH   1   3
ATOM      2  N   UNL     1      34.378 -18.634 -24.580  0.00  0.00    -0.239 NA
ATOM      3  C   UNL     1      35.074 -16.780 -23.215  0.00  0.00    +0.158 C 
ATOM      4  C   UNL     1      35.250 -17.615 -22.126  0.00  0.00    +0.040 C 
ATOM      5  C   UNL     1      34.987 -18.973 -22.265  0.00  0.00    +0.022 C 
ATOM      6  C   UNL     1      34.644 -17.320 -24.408  0.00  0.00    +0.136 C 
ATOM      7  C   UNL     1      34.557 -19.428 -23.500  0.00  0.00    +0.099 C 
BRANCH   5   9
ATOM      8  N   UNL     1      34.545 -23.152 -17.337  0.00  0.00    -0.242 NA
ATOM      9  C   UNL     1      35.155 -19.880 -21.154  0.00  0.00    +0.002 C 
ATOM     10  C   UNL     1      34.191 -21.389 -19.503  0.00  0.00    +0.003 C 
ATOM     11  C   UNL     1      34.042 -20.505 -20.585  0.00  0.00    +0.000 C 
ATOM     12  C   UNL     1      35.482 -21.640 -18.995  0.00  0.00    +0.019 C 
ATOM     13  C   UNL     1      36.429 -20.132 -20.646  0.00  0.00    +0.000 C 
ATOM     14  C   UNL     1      36.595 -21.007 -19.572  0.00  0.00    +0.002 C 
ATOM     15  C   UNL     1      33.094 -22.030 -18.914  0.00  0.00    +0.021 C 
ATOM     16  C   UNL     1      35.591 -22.523 -17.920  0.00  0.00    +0.099 C 
ATOM     17  C   UNL     1      33.324 -22.888 -17.851  0.00  0.00    +0.099 C 
ENDBRANCH   5   9
ENDBRANCH   1   3
BRANCH   1  18
ATOM     18  C   UNL     1      34.263 -14.622 -22.631  0.00  0.00    +0.184 C 
BRANCH  18  19
ATOM     19  C   UNL     1      34.065 -13.424 -23.566  0.00  0.00    -0.021 C 
BRANCH  19  20
ATOM     20  N   UNL     1      33.298 -13.863 -24.732  0.00  0.00    +0.384 N 
ATOM     21  H   UNL     1      32.674 -14.624 -24.462  0.00  0.00    -0.089 HD
ATOM     22  H   UNL     1      33.937 -14.189 -25.457  0.00  0.00    -0.089 HD
ATOM     23  H   UNL     1      32.747 -13.082 -25.090  0.00  0.00    -0.089 HD
ENDBRANCH  19  20
BRANCH  19  24
ATOM     24  C   UNL     1      33.359 -12.256 -22.845  0.00  0.00    -0.012 C 
BRANCH  24  26
ATOM     25  N   UNL     1      35.020  -9.347 -23.699  0.00  0.00    -0.270 NA
ATOM     26  C   UNL     1      33.277 -10.985 -23.669  0.00  0.00    +0.046 C 
ATOM     27  C   UNL     1      32.878  -9.776 -22.885  0.00  0.00    -0.007 C 
ATOM     28  C   UNL     1      34.665 -10.528 -24.106  0.00  0.00    +0.130 C 
ATOM     29  C   UNL     1      33.936  -8.860 -22.946  0.00  0.00    +0.071 C 
ATOM     30  C   UNL     1      31.714  -9.495 -22.197  0.00  0.00    -0.024 C 
ATOM     31  C   UNL     1      33.849  -7.635 -22.308  0.00  0.00    +0.014 C 
ATOM     32  C   UNL     1      31.619  -8.260 -21.551  0.00  0.00    +0.052 C 
ATOM     33  C   UNL     1      32.678  -7.338 -21.606  0.00  0.00    -0.020 C 
ENDBRANCH  24  26
ENDBRANCH  19  24
ENDBRANCH  18  19
ENDBRANCH   1  18
TORSDOF 7
ENDMDL
MODEL 6
REMARK VINA RESULT:     -11.6      4.073     11.432
REMARK  Name = 11840906
REMARK  7 active torsions:
REMARK  status: ('A' for Active; 'I' for Inactive)
REMARK    1  A    between atoms: O_1  and  C_3
REMARK    2  A    between atoms: O_1  and  C_18
REMARK    3  A    between atoms: C_5  and  C_9
REMARK    4  A    between atoms: C_18  and  C_19
REMARK    5  A    between atoms: C_19  and  N_20
REMARK    6  A    between atoms: C_19  and  C_24
REMARK    7  A    between atoms: C_24  and  C_26
REMARK                            x       y       z     vdW  Elec       q    Type
REMARK                         _______ _______ _______ _____ _____    ______ ____
ROOT
ATOM      1  O   UNL     1      34.096 -13.817 -21.818  0.00  0.00    -0.476 OA
ENDROOT
BRANCH   1   3
ATOM      2  N   UNL     1      34.696 -16.288 -24.430  0.00  0.00    -0.239 NA
ATOM      3  C   UNL     1      34.387 -15.019 -22.410  0.00  0.00    +0.158 C 
ATOM      4  C   UNL     1      34.657 -16.135 -21.638  0.00  0.00    +0.040 C 
ATOM      5  C   UNL     1      34.948 -17.340 -22.268  0.00  0.00    +0.022 C 
ATOM      6  C   UNL     1      34.417 -15.134 -23.783  0.00  0.00    +0.136 C 
ATOM      7  C   UNL     1      34.955 -17.364 -23.653  0.00  0.00    +0.099 C 
BRANCH   5   9
ATOM      8  N   UNL     1      35.032 -22.789 -18.768  0.00  0.00    -0.242 NA
ATOM      9  C   UNL     1      35.234 -18.530 -21.501  0.00  0.00    +0.002 C 
ATOM     10  C   UNL     1      34.450 -20.475 -20.263  0.00  0.00    +0.003 C 
ATOM     11  C   UNL     1      34.187 -19.316 -21.012  0.00  0.00    +0.000 C 
ATOM     12  C   UNL     1      35.788 -20.839 -20.009  0.00  0.00    +0.019 C 
ATOM     13  C   UNL     1      36.556 -18.894 -21.245  0.00  0.00    +0.000 C 
ATOM     14  C   UNL     1      36.834 -20.042 -20.503  0.00  0.00    +0.002 C 
ATOM     15  C   UNL     1      33.422 -21.282 -19.762  0.00  0.00    +0.021 C 
ATOM     16  C   UNL     1      36.011 -21.997 -19.262  0.00  0.00    +0.099 C 
ATOM     17  C   UNL     1      33.763 -22.410 -19.033  0.00  0.00    +0.099 C 
ENDBRANCH   5   9
ENDBRANCH   1   3
BRANCH   1  18
ATOM     18  C   UNL     1      33.043 -13.057 -22.397  0.00  0.00    +0.184 C 
BRANCH  18  19
ATOM     19  C   UNL     1      31.840 -13.030 -21.449  0.00  0.00    -0.021 C 
BRANCH  19  20
ATOM     20  N   UNL     1      32.237 -13.628 -20.173  0.00  0.00    +0.384 N 
ATOM     21  H   UNL     1      31.483 -13.512 -19.495  0.00  0.00    -0.089 HD
ATOM     22  H   UNL     1      33.078 -13.166 -19.828  0.00  0.00    -0.089 HD
ATOM     23  H   UNL     1      32.424 -14.621 -20.306  0.00  0.00    -0.089 HD
ENDBRANCH  19  20
BRANCH  19  24
ATOM     24  C   UNL     1      31.313 -11.593 -21.247  0.00  0.00    -0.012 C 
BRANCH  24  26
ATOM     25  N   UNL     1      31.783  -8.930 -19.094  0.00  0.00    -0.270 NA
ATOM     26  C   UNL     1      32.341 -10.636 -20.674  0.00  0.00    +0.046 C 
ATOM     27  C   UNL     1      32.349  -9.291 -21.326  0.00  0.00    -0.007 C 
ATOM     28  C   UNL     1      31.958 -10.206 -19.262  0.00  0.00    +0.130 C 
ATOM     29  C   UNL     1      32.020  -8.343 -20.350  0.00  0.00    +0.071 C 
ATOM     30  C   UNL     1      32.625  -8.925 -22.629  0.00  0.00    -0.024 C 
ATOM     31  C   UNL     1      31.954  -6.996 -20.664  0.00  0.00    +0.014 C 
ATOM     32  C   UNL     1      32.559  -7.568 -22.954  0.00  0.00    +0.052 C 
ATOM     33  C   UNL     1      32.226  -6.612 -21.980  0.00  0.00    -0.020 C 
ENDBRANCH  24  26
ENDBRANCH  19  24
ENDBRANCH  18  19
ENDBRANCH   1  18
TORSDOF 7
ENDMDL
MODEL 7
REMARK VINA RESULT:     -11.5      1.782      3.289
REMARK  Name = 11840906
REMARK  7 active torsions:
REMARK  status: ('A' for Active; 'I' for Inactive)
REMARK    1  A    between atoms: O_1  and  C_3
REMARK    2  A    between atoms: O_1  and  C_18
REMARK    3  A    between atoms: C_5  and  C_9
REMARK    4  A    between atoms: C_18  and  C_19
REMARK    5  A    between atoms: C_19  and  N_20
REMARK    6  A    between atoms: C_19  and  C_24
REMARK    7  A    between atoms: C_24  and  C_26
REMARK                            x       y       z     vdW  Elec       q    Type
REMARK                         _______ _______ _______ _____ _____    ______ ____
ROOT
ATOM      1  O   UNL     1      32.994 -22.755 -18.431  0.00  0.00    -0.476 OA
ENDROOT
BRANCH   1   3
ATOM      2  N   UNL     1      36.486 -21.851 -18.959  0.00  0.00    -0.239 NA
ATOM      3  C   UNL     1      34.095 -22.116 -18.941  0.00  0.00    +0.158 C 
ATOM      4  C   UNL     1      33.954 -21.138 -19.908  0.00  0.00    +0.040 C 
ATOM      5  C   UNL     1      35.090 -20.509 -20.406  0.00  0.00    +0.022 C 
ATOM      6  C   UNL     1      35.360 -22.441 -18.499  0.00  0.00    +0.136 C 
ATOM      7  C   UNL     1      36.320 -20.897 -19.903  0.00  0.00    +0.099 C 
BRANCH   5   9
ATOM      8  N   UNL     1      34.581 -15.144 -23.998  0.00  0.00    -0.242 NA
ATOM      9  C   UNL     1      34.989 -19.481 -21.416  0.00  0.00    +0.002 C 
ATOM     10  C   UNL     1      34.780 -17.129 -22.011  0.00  0.00    +0.003 C 
ATOM     11  C   UNL     1      34.881 -18.139 -21.040  0.00  0.00    +0.000 C 
ATOM     12  C   UNL     1      34.789 -17.485 -23.375  0.00  0.00    +0.019 C 
ATOM     13  C   UNL     1      34.996 -19.827 -22.767  0.00  0.00    +0.000 C 
ATOM     14  C   UNL     1      34.897 -18.836 -23.744  0.00  0.00    +0.002 C 
ATOM     15  C   UNL     1      34.671 -15.777 -21.665  0.00  0.00    +0.021 C 
ATOM     16  C   UNL     1      34.688 -16.455 -24.312  0.00  0.00    +0.099 C 
ATOM     17  C   UNL     1      34.577 -14.840 -22.682  0.00  0.00    +0.099 C 
ENDBRANCH   5   9
ENDBRANCH   1   3
BRANCH   1  18
ATOM     18  C   UNL     1      33.226 -23.708 -17.402  0.00  0.00    +0.184 C 
BRANCH  18  19
ATOM     19  C   UNL     1      32.574 -23.235 -16.099  0.00  0.00    -0.021 C 
BRANCH  19  20
ATOM     20  N   UNL     1      31.477 -24.145 -15.768  0.00  0.00    +0.384 N 
ATOM     21  H   UNL     1      31.758 -24.750 -14.996  0.00  0.00    -0.089 HD
ATOM     22  H   UNL     1      31.251 -24.716 -16.582  0.00  0.00    -0.089 HD
ATOM     23  H   UNL     1      30.657 -23.603 -15.495  0.00  0.00    -0.089 HD
ENDBRANCH  19  20
BRANCH  19  24
ATOM     24  C   UNL     1      33.601 -23.164 -14.948  0.00  0.00    -0.012 C 
BRANCH  24  26
ATOM     25  N   UNL     1      34.399 -24.913 -12.076  0.00  0.00    -0.270 NA
ATOM     26  C   UNL     1      34.006 -24.520 -14.402  0.00  0.00    +0.046 C 
ATOM     27  C   UNL     1      35.470 -24.653 -14.130  0.00  0.00    -0.007 C 
ATOM     28  C   UNL     1      33.489 -24.712 -12.980  0.00  0.00    +0.130 C 
ATOM     29  C   UNL     1      35.629 -24.885 -12.758  0.00  0.00    +0.071 C 
ATOM     30  C   UNL     1      36.553 -24.590 -14.985  0.00  0.00    -0.024 C 
ATOM     31  C   UNL     1      36.889 -25.054 -12.210  0.00  0.00    +0.014 C 
ATOM     32  C   UNL     1      37.827 -24.760 -14.439  0.00  0.00    +0.052 C 
ATOM     33  C   UNL     1      37.994 -24.989 -13.063  0.00  0.00    -0.020 C 
ENDBRANCH  24  26
ENDBRANCH  19  24
ENDBRANCH  18  19
ENDBRANCH   1  18
TORSDOF 7
ENDMDL
MODEL 8
REMARK VINA RESULT:     -11.5      4.064     12.533
REMARK  Name = 11840906
REMARK  7 active torsions:
REMARK  status: ('A' for Active; 'I' for Inactive)
REMARK    1  A    between atoms: O_1  and  C_3
REMARK    2  A    between atoms: O_1  and  C_18
REMARK    3  A    between atoms: C_5  and  C_9
REMARK    4  A    between atoms: C_18  and  C_19
REMARK    5  A    between atoms: C_19  and  N_20
REMARK    6  A    between atoms: C_19  and  C_24
REMARK    7  A    between atoms: C_24  and  C_26
REMARK                            x       y       z     vdW  Elec       q    Type
REMARK                         _______ _______ _______ _____ _____    ______ ____
ROOT
ATOM      1  O   UNL     1      34.514 -13.805 -23.017  0.00  0.00    -0.476 OA
ENDROOT
BRANCH   1   3
ATOM      2  N   UNL     1      34.470 -16.740 -25.178  0.00  0.00    -0.239 NA
ATOM      3  C   UNL     1      34.609 -15.116 -23.410  0.00  0.00    +0.158 C 
ATOM      4  C   UNL     1      34.924 -16.103 -22.494  0.00  0.00    +0.040 C 
ATOM      5  C   UNL     1      35.013 -17.423 -22.923  0.00  0.00    +0.022 C 
ATOM      6  C   UNL     1      34.393 -15.469 -24.725  0.00  0.00    +0.136 C 
ATOM      7  C   UNL     1      34.779 -17.686 -24.263  0.00  0.00    +0.099 C 
BRANCH   5   9
ATOM      8  N   UNL     1      35.279 -22.353 -18.733  0.00  0.00    -0.242 NA
ATOM      9  C   UNL     1      35.338 -18.484 -22.000  0.00  0.00    +0.002 C 
ATOM     10  C   UNL     1      34.621 -20.289 -20.531  0.00  0.00    +0.003 C 
ATOM     11  C   UNL     1      34.319 -19.254 -21.432  0.00  0.00    +0.000 C 
ATOM     12  C   UNL     1      35.968 -20.545 -20.206  0.00  0.00    +0.019 C 
ATOM     13  C   UNL     1      36.669 -18.741 -21.673  0.00  0.00    +0.000 C 
ATOM     14  C   UNL     1      36.985 -19.766 -20.781  0.00  0.00    +0.002 C 
ATOM     15  C   UNL     1      33.621 -21.077 -19.947  0.00  0.00    +0.021 C 
ATOM     16  C   UNL     1      36.229 -21.582 -19.308  0.00  0.00    +0.099 C 
ATOM     17  C   UNL     1      34.000 -22.080 -19.069  0.00  0.00    +0.099 C 
ENDBRANCH   5   9
ENDBRANCH   1   3
BRANCH   1  18
ATOM     18  C   UNL     1      33.756 -12.940 -23.853  0.00  0.00    +0.184 C 
BRANCH  18  19
ATOM     19  C   UNL     1      34.171 -11.486 -23.605  0.00  0.00    -0.021 C 
BRANCH  19  20
ATOM     20  N   UNL     1      34.977 -11.029 -24.738  0.00  0.00    +0.384 N 
ATOM     21  H   UNL     1      35.870 -10.672 -24.398  0.00  0.00    -0.089 HD
ATOM     22  H   UNL     1      34.480 -10.288 -25.232  0.00  0.00    -0.089 HD
ATOM     23  H   UNL     1      35.143 -11.810 -25.373  0.00  0.00    -0.089 HD
ENDBRANCH  19  20
BRANCH  19  24
ATOM     24  C   UNL     1      32.941 -10.576 -23.398  0.00  0.00    -0.012 C 
BRANCH  24  26
ATOM     25  N   UNL     1      31.398  -8.106 -21.536  0.00  0.00    -0.270 NA
ATOM     26  C   UNL     1      33.175  -9.438 -22.422  0.00  0.00    +0.046 C 
ATOM     27  C   UNL     1      33.167  -8.084 -23.054  0.00  0.00    -0.007 C 
ATOM     28  C   UNL     1      31.981  -9.266 -21.489  0.00  0.00    +0.130 C 
ATOM     29  C   UNL     1      32.110  -7.357 -22.490  0.00  0.00    +0.071 C 
ATOM     30  C   UNL     1      33.996  -7.533 -24.011  0.00  0.00    -0.024 C 
ATOM     31  C   UNL     1      31.858  -6.054 -22.883  0.00  0.00    +0.014 C 
ATOM     32  C   UNL     1      33.747  -6.219 -24.413  0.00  0.00    +0.052 C 
ATOM     33  C   UNL     1      32.687  -5.486 -23.854  0.00  0.00    -0.020 C 
ENDBRANCH  24  26
ENDBRANCH  19  24
ENDBRANCH  18  19
ENDBRANCH   1  18
TORSDOF 7
ENDMDL
MODEL 9
REMARK VINA RESULT:     -11.5      2.133     11.261
REMARK  Name = 11840906
REMARK  7 active torsions:
REMARK  status: ('A' for Active; 'I' for Inactive)
REMARK    1  A    between atoms: O_1  and  C_3
REMARK    2  A    between atoms: O_1  and  C_18
REMARK    3  A    between atoms: C_5  and  C_9
REMARK    4  A    between atoms: C_18  and  C_19
REMARK    5  A    between atoms: C_19  and  N_20
REMARK    6  A    between atoms: C_19  and  C_24
REMARK    7  A    between atoms: C_24  and  C_26
REMARK                            x       y       z     vdW  Elec       q    Type
REMARK                         _______ _______ _______ _____ _____    ______ ____
ROOT
ATOM      1  O   UNL     1      35.626 -21.167 -19.961  0.00  0.00    -0.476 OA
ENDROOT
BRANCH   1   3
ATOM      2  N   UNL     1      32.977 -22.926 -18.179  0.00  0.00    -0.239 NA
ATOM      3  C   UNL     1      34.991 -21.880 -18.977  0.00  0.00    +0.158 C 
ATOM      4  C   UNL     1      35.672 -22.264 -17.837  0.00  0.00    +0.040 C 
ATOM      5  C   UNL     1      35.000 -22.987 -16.857  0.00  0.00    +0.022 C 
ATOM      6  C   UNL     1      33.663 -22.225 -19.110  0.00  0.00    +0.136 C 
ATOM      7  C   UNL     1      33.666 -23.289 -17.074  0.00  0.00    +0.099 C 
BRANCH   5   9
ATOM      8  N   UNL     1      36.903 -25.012 -11.008  0.00  0.00    -0.242 NA
ATOM      9  C   UNL     1      35.673 -23.408 -15.650  0.00  0.00    +0.002 C 
ATOM     10  C   UNL     1      35.569 -24.197 -13.349  0.00  0.00    +0.003 C 
ATOM     11  C   UNL     1      34.929 -23.787 -14.530  0.00  0.00    +0.000 C 
ATOM     12  C   UNL     1      36.978 -24.223 -13.306  0.00  0.00    +0.019 C 
ATOM     13  C   UNL     1      37.066 -23.434 -15.601  0.00  0.00    +0.000 C 
ATOM     14  C   UNL     1      37.718 -23.839 -14.436  0.00  0.00    +0.002 C 
ATOM     15  C   UNL     1      34.850 -24.584 -12.212  0.00  0.00    +0.021 C 
ATOM     16  C   UNL     1      37.580 -24.636 -12.116  0.00  0.00    +0.099 C 
ATOM     17  C   UNL     1      35.556 -24.977 -11.086  0.00  0.00    +0.099 C 
ENDBRANCH   5   9
ENDBRANCH   1   3
BRANCH   1  18
ATOM     18  C   UNL     1      34.800 -20.429 -20.853  0.00  0.00    +0.184 C 
BRANCH  18  19
ATOM     19  C   UNL     1      35.326 -18.996 -20.983  0.00  0.00    -0.021 C 
BRANCH  19  20
ATOM     20  N   UNL     1      36.774 -19.008 -20.775  0.00  0.00    +0.384 N 
ATOM     21  H   UNL     1      37.134 -18.055 -20.831  0.00  0.00    -0.089 HD
ATOM     22  H   UNL     1      37.217 -19.581 -21.494  0.00  0.00    -0.089 HD
ATOM     23  H   UNL     1      36.982 -19.396 -19.855  0.00  0.00    -0.089 HD
ENDBRANCH  19  20
BRANCH  19  24
ATOM     24  C   UNL     1      34.969 -18.387 -22.355  0.00  0.00    -0.012 C 
BRANCH  24  26
ATOM     25  N   UNL     1      34.043 -15.147 -21.584  0.00  0.00    -0.270 NA
ATOM     26  C   UNL     1      35.353 -16.926 -22.498  0.00  0.00    +0.046 C 
ATOM     27  C   UNL     1      34.615 -16.206 -23.580  0.00  0.00    -0.007 C 
ATOM     28  C   UNL     1      34.864 -16.114 -21.304  0.00  0.00    +0.130 C 
ATOM     29  C   UNL     1      33.875 -15.179 -22.980  0.00  0.00    +0.071 C 
ATOM     30  C   UNL     1      34.595 -16.412 -24.946  0.00  0.00    -0.024 C 
ATOM     31  C   UNL     1      33.088 -14.334 -23.743  0.00  0.00    +0.014 C 
ATOM     32  C   UNL     1      33.803 -15.563 -25.722  0.00  0.00    +0.052 C 
ATOM     33  C   UNL     1      33.055 -14.534 -25.126  0.00  0.00    -0.020 C 
ENDBRANCH  24  26
ENDBRANCH  19  24
ENDBRANCH  18  19
ENDBRANCH   1  18
TORSDOF 7
ENDMDL
