MODEL 1
REMARK VINA RESULT:     -11.0      0.000      0.000
REMARK  Name = 25113614
REMARK  7 active torsions:
REMARK  status: ('A' for Active; 'I' for Inactive)
REMARK    1  A    between atoms: C_3  and  C_10
REMARK    2  A    between atoms: C_7  and  C_25
REMARK    3  A    between atoms: N_9  and  C_12
REMARK    4  A    between atoms: C_12  and  C_13
REMARK    5  A    between atoms: C_18  and  C_21
REMARK    6  A    between atoms: C_25  and  N_26
REMARK    7  A    between atoms: N_26  and  C_29
REMARK                            x       y       z     vdW  Elec       q    Type
REMARK                         _______ _______ _______ _____ _____    ______ ____
ROOT
ATOM      1  O   UNL     1      35.467 -25.691 -11.515  0.00  0.00    -0.277 OA
ATOM      2  N   UNL     1      36.155 -24.501 -13.372  0.00  0.00    -0.275 N 
ATOM      3  C   UNL     1      36.007 -23.452 -14.378  0.00  0.00    +0.152 C 
ATOM      4  C   UNL     1      37.437 -23.129 -14.805  0.00  0.00    +0.031 C 
ATOM      5  C   UNL     1      37.512 -25.029 -13.360  0.00  0.00    +0.094 C 
ATOM      6  C   UNL     1      38.173 -24.451 -14.601  0.00  0.00    +0.024 C 
ATOM      7  C   UNL     1      35.226 -24.890 -12.420  0.00  0.00    +0.204 C 
ENDROOT
BRANCH   3  10
ATOM      8  O   UNL     1      34.929 -25.206 -15.585  0.00  0.00    -0.273 OA
ATOM      9  N   UNL     1      34.922 -23.055 -16.475  0.00  0.00    -0.299 N 
ATOM     10  C   UNL     1      35.227 -24.016 -15.526  0.00  0.00    +0.241 C 
ATOM     11  H   UNL     1      35.216 -22.129 -16.315  0.00  0.00    +0.150 HD
BRANCH   9  12
ATOM     12  C   UNL     1      34.195 -23.346 -17.690  0.00  0.00    +0.116 C 
BRANCH  12  13
ATOM     13  C   UNL     1      34.386 -22.278 -18.727  0.00  0.00    -0.003 C 
ATOM     14  C   UNL     1      35.672 -21.917 -19.129  0.00  0.00    -0.003 C 
ATOM     15  C   UNL     1      33.277 -21.645 -19.289  0.00  0.00    -0.003 C 
ATOM     16  C   UNL     1      35.850 -20.925 -20.092  0.00  0.00    +0.002 C 
ATOM     17  C   UNL     1      33.454 -20.652 -20.252  0.00  0.00    +0.002 C 
ATOM     18  C   UNL     1      34.741 -20.291 -20.654  0.00  0.00    +0.031 C 
BRANCH  18  21
ATOM     19  N   UNL     1      35.124 -17.925 -21.300  0.00  0.00    -0.343 N 
ATOM     20  N   UNL     1      34.905 -19.574 -22.942  0.00  0.00    -0.285 NA
ATOM     21  C   UNL     1      34.927 -19.257 -21.658  0.00  0.00    +0.117 C 
ATOM     22  H   UNL     1      35.248 -17.240 -21.997  0.00  0.00    +0.144 HD
ATOM     23  H   UNL     1      35.139 -17.668 -20.350  0.00  0.00    +0.144 HD
ATOM     24  H   UNL     1      35.032 -18.875 -23.623  0.00  0.00    +0.188 HD
ENDBRANCH  18  21
ENDBRANCH  12  13
ENDBRANCH   9  12
ENDBRANCH   3  10
BRANCH   7  25
ATOM     25  C   UNL     1      33.856 -24.271 -12.539  0.00  0.00    +0.006 C 
BRANCH  25  26
ATOM     26  N   UNL     1      32.991 -25.264 -13.152  0.00  0.00    +0.391 N 
ATOM     27  H   UNL     1      33.418 -25.590 -14.020  0.00  0.00    -0.084 HD
ATOM     28  H   UNL     1      32.873 -26.044 -12.505  0.00  0.00    -0.084 HD
BRANCH  26  29
ATOM     29  C   UNL     1      31.674 -24.688 -13.448  0.00  0.00    -0.061 C 
ATOM     30  C   UNL     1      30.744 -25.829 -13.873  0.00  0.00    -0.021 C 
ATOM     31  C   UNL     1      31.847 -23.577 -14.494  0.00  0.00    -0.021 C 
ATOM     32  C   UNL     1      29.335 -25.403 -14.288  0.00  0.00    -0.002 C 
ATOM     33  C   UNL     1      30.599 -22.710 -14.650  0.00  0.00    -0.002 C 
ATOM     34  C   UNL     1      29.304 -24.730 -15.656  0.00  0.00    -0.000 C 
ATOM     35  C   UNL     1      29.566 -23.228 -15.644  0.00  0.00    -0.000 C 
ENDBRANCH  26  29
ENDBRANCH  25  26
ENDBRANCH   7  25
TORSDOF 7
ENDMDL
MODEL 2
REMARK VINA RESULT:     -10.9      2.313      6.512
REMARK  Name = 25113614
REMARK  7 active torsions:
REMARK  status: ('A' for Active; 'I' for Inactive)
REMARK    1  A    between atoms: C_3  and  C_10
REMARK    2  A    between atoms: C_7  and  C_25
REMARK    3  A    between atoms: N_9  and  C_12
REMARK    4  A    between atoms: C_12  and  C_13
REMARK    5  A    between atoms: C_18  and  C_21
REMARK    6  A    between atoms: C_25  and  N_26
REMARK    7  A    between atoms: N_26  and  C_29
REMARK                            x       y       z     vdW  Elec       q    Type
REMARK                         _______ _______ _______ _____ _____    ______ ____
ROOT
ATOM      1  O   UNL     1      38.797 -22.982 -15.679  0.00  0.00    -0.277 OA
ATOM      2  N   UNL     1      37.428 -24.668 -14.891  0.00  0.00    -0.275 N 
ATOM      3  C   UNL     1      36.184 -25.434 -14.865  0.00  0.00    +0.152 C 
ATOM      4  C   UNL     1      36.596 -26.814 -14.359  0.00  0.00    +0.031 C 
ATOM      5  C   UNL     1      38.491 -25.372 -14.187  0.00  0.00    +0.094 C 
ATOM      6  C   UNL     1      37.800 -26.519 -13.468  0.00  0.00    +0.024 C 
ATOM      7  C   UNL     1      37.683 -23.502 -15.595  0.00  0.00    +0.204 C 
ENDROOT
BRANCH   3  10
ATOM      8  O   UNL     1      35.624 -23.868 -13.152  0.00  0.00    -0.273 OA
ATOM      9  N   UNL     1      33.978 -25.313 -13.939  0.00  0.00    -0.299 N 
ATOM     10  C   UNL     1      35.251 -24.772 -13.895  0.00  0.00    +0.241 C 
ATOM     11  H   UNL     1      33.800 -26.038 -14.582  0.00  0.00    +0.150 HD
BRANCH   9  12
ATOM     12  C   UNL     1      32.899 -24.866 -13.089  0.00  0.00    +0.116 C 
BRANCH  12  13
ATOM     13  C   UNL     1      31.655 -24.562 -13.873  0.00  0.00    -0.003 C 
ATOM     14  C   UNL     1      30.497 -25.311 -13.662  0.00  0.00    -0.003 C 
ATOM     15  C   UNL     1      31.657 -23.532 -14.814  0.00  0.00    -0.003 C 
ATOM     16  C   UNL     1      29.342 -25.030 -14.391  0.00  0.00    +0.002 C 
ATOM     17  C   UNL     1      30.503 -23.252 -15.543  0.00  0.00    +0.002 C 
ATOM     18  C   UNL     1      29.344 -23.999 -15.332  0.00  0.00    +0.031 C 
BRANCH  18  21
ATOM     19  N   UNL     1      27.241 -22.727 -15.678  0.00  0.00    -0.343 N 
ATOM     20  N   UNL     1      27.879 -24.383 -17.198  0.00  0.00    -0.285 NA
ATOM     21  C   UNL     1      28.140 -23.707 -16.092  0.00  0.00    +0.117 C 
ATOM     22  H   UNL     1      26.431 -22.544 -16.207  0.00  0.00    +0.144 HD
ATOM     23  H   UNL     1      27.415 -22.215 -14.855  0.00  0.00    +0.144 HD
ATOM     24  H   UNL     1      27.065 -24.186 -17.714  0.00  0.00    +0.188 HD
ENDBRANCH  18  21
ENDBRANCH  12  13
ENDBRANCH   9  12
ENDBRANCH   3  10
BRANCH   7  25
ATOM     25  C   UNL     1      36.499 -22.870 -16.282  0.00  0.00    +0.006 C 
BRANCH  25  26
ATOM     26  N   UNL     1      37.014 -22.128 -17.420  0.00  0.00    +0.391 N 
ATOM     27  H   UNL     1      37.157 -21.155 -17.149  0.00  0.00    -0.084 HD
ATOM     28  H   UNL     1      37.898 -22.545 -17.713  0.00  0.00    -0.084 HD
BRANCH  26  29
ATOM     29  C   UNL     1      36.068 -22.183 -18.541  0.00  0.00    -0.061 C 
ATOM     30  C   UNL     1      36.323 -20.964 -19.435  0.00  0.00    -0.021 C 
ATOM     31  C   UNL     1      34.643 -22.279 -17.977  0.00  0.00    -0.021 C 
ATOM     32  C   UNL     1      35.376 -20.817 -20.626  0.00  0.00    -0.002 C 
ATOM     33  C   UNL     1      33.609 -22.646 -19.040  0.00  0.00    -0.002 C 
ATOM     34  C   UNL     1      33.983 -20.355 -20.215  0.00  0.00    -0.000 C 
ATOM     35  C   UNL     1      33.023 -21.469 -19.813  0.00  0.00    -0.000 C 
ENDBRANCH  26  29
ENDBRANCH  25  26
ENDBRANCH   7  25
TORSDOF 7
ENDMDL
MODEL 3
REMARK VINA RESULT:      -9.9      7.175     11.819
REMARK  Name = 25113614
REMARK  7 active torsions:
REMARK  status: ('A' for Active; 'I' for Inactive)
REMARK    1  A    between atoms: C_3  and  C_10
REMARK    2  A    between atoms: C_7  and  C_25
REMARK    3  A    between atoms: N_9  and  C_12
REMARK    4  A    between atoms: C_12  and  C_13
REMARK    5  A    between atoms: C_18  and  C_21
REMARK    6  A    between atoms: C_25  and  N_26
REMARK    7  A    between atoms: N_26  and  C_29
REMARK                            x       y       z     vdW  Elec       q    Type
REMARK                         _______ _______ _______ _____ _____    ______ ____
ROOT
ATOM      1  O   UNL     1      34.482 -18.327 -24.452  0.00  0.00    -0.277 OA
ATOM      2  N   UNL     1      34.201 -16.048 -24.201  0.00  0.00    -0.275 N 
ATOM      3  C   UNL     1      34.499 -14.756 -23.587  0.00  0.00    +0.152 C 
ATOM      4  C   UNL     1      34.149 -13.732 -24.664  0.00  0.00    +0.031 C 
ATOM      5  C   UNL     1      33.445 -15.880 -25.435  0.00  0.00    +0.094 C 
ATOM      6  C   UNL     1      33.035 -14.417 -25.453  0.00  0.00    +0.024 C 
ATOM      7  C   UNL     1      34.665 -17.293 -23.808  0.00  0.00    +0.204 C 
ENDROOT
BRANCH   3  10
ATOM      8  O   UNL     1      33.594 -15.413 -21.478  0.00  0.00    -0.273 OA
ATOM      9  N   UNL     1      32.828 -13.452 -22.472  0.00  0.00    -0.299 N 
ATOM     10  C   UNL     1      33.609 -14.592 -22.392  0.00  0.00    +0.241 C 
ATOM     11  H   UNL     1      32.931 -12.869 -23.259  0.00  0.00    +0.150 HD
BRANCH   9  12
ATOM     12  C   UNL     1      31.870 -13.077 -21.458  0.00  0.00    +0.116 C 
BRANCH  12  13
ATOM     13  C   UNL     1      31.958 -11.619 -21.114  0.00  0.00    -0.003 C 
ATOM     14  C   UNL     1      32.109 -10.670 -22.126  0.00  0.00    -0.003 C 
ATOM     15  C   UNL     1      31.892 -11.211 -19.781  0.00  0.00    -0.003 C 
ATOM     16  C   UNL     1      32.194  -9.316 -21.806  0.00  0.00    +0.002 C 
ATOM     17  C   UNL     1      31.977  -9.857 -19.461  0.00  0.00    +0.002 C 
ATOM     18  C   UNL     1      32.127  -8.908 -20.473  0.00  0.00    +0.031 C 
BRANCH  18  21
ATOM     19  N   UNL     1      31.459  -6.542 -20.819  0.00  0.00    -0.343 N 
ATOM     20  N   UNL     1      33.029  -7.095 -19.179  0.00  0.00    -0.285 NA
ATOM     21  C   UNL     1      32.214  -7.496 -20.141  0.00  0.00    +0.117 C 
ATOM     22  H   UNL     1      31.533  -5.591 -20.577  0.00  0.00    +0.144 HD
ATOM     23  H   UNL     1      30.849  -6.820 -21.540  0.00  0.00    +0.144 HD
ATOM     24  H   UNL     1      33.089  -6.140 -18.952  0.00  0.00    +0.188 HD
ENDBRANCH  18  21
ENDBRANCH  12  13
ENDBRANCH   9  12
ENDBRANCH   3  10
BRANCH   7  25
ATOM     25  C   UNL     1      35.435 -17.334 -22.512  0.00  0.00    +0.006 C 
BRANCH  25  26
ATOM     26  N   UNL     1      36.007 -18.665 -22.400  0.00  0.00    +0.391 N 
ATOM     27  H   UNL     1      35.676 -19.239 -23.175  0.00  0.00    -0.084 HD
ATOM     28  H   UNL     1      37.024 -18.591 -22.427  0.00  0.00    -0.084 HD
BRANCH  26  29
ATOM     29  C   UNL     1      35.611 -19.290 -21.132  0.00  0.00    -0.061 C 
ATOM     30  C   UNL     1      36.800 -20.107 -20.616  0.00  0.00    -0.021 C 
ATOM     31  C   UNL     1      34.328 -20.101 -21.365  0.00  0.00    -0.021 C 
ATOM     32  C   UNL     1      36.545 -20.891 -19.328  0.00  0.00    -0.002 C 
ATOM     33  C   UNL     1      33.661 -20.541 -20.062  0.00  0.00    -0.002 C 
ATOM     34  C   UNL     1      35.667 -22.117 -19.551  0.00  0.00    -0.000 C 
ATOM     35  C   UNL     1      34.166 -21.858 -19.484  0.00  0.00    -0.000 C 
ENDBRANCH  26  29
ENDBRANCH  25  26
ENDBRANCH   7  25
TORSDOF 7
ENDMDL
MODEL 4
REMARK VINA RESULT:      -9.5      1.650      2.170
REMARK  Name = 25113614
REMARK  7 active torsions:
REMARK  status: ('A' for Active; 'I' for Inactive)
REMARK    1  A    between atoms: C_3  and  C_10
REMARK    2  A    between atoms: C_7  and  C_25
REMARK    3  A    between atoms: N_9  and  C_12
REMARK    4  A    between atoms: C_12  and  C_13
REMARK    5  A    between atoms: C_18  and  C_21
REMARK    6  A    between atoms: C_25  and  N_26
REMARK    7  A    between atoms: N_26  and  C_29
REMARK                            x       y       z     vdW  Elec       q    Type
REMARK                         _______ _______ _______ _____ _____    ______ ____
ROOT
ATOM      1  O   UNL     1      33.496 -25.281 -12.386  0.00  0.00    -0.277 OA
ATOM      2  N   UNL     1      35.602 -24.337 -12.501  0.00  0.00    -0.275 N 
ATOM      3  C   UNL     1      36.553 -23.318 -12.938  0.00  0.00    +0.152 C 
ATOM      4  C   UNL     1      37.644 -23.331 -11.870  0.00  0.00    +0.031 C 
ATOM      5  C   UNL     1      36.160 -25.148 -11.427  0.00  0.00    +0.094 C 
ATOM      6  C   UNL     1      37.632 -24.774 -11.370  0.00  0.00    +0.024 C 
ATOM      7  C   UNL     1      34.282 -24.480 -12.896  0.00  0.00    +0.204 C 
ENDROOT
BRANCH   3  10
ATOM      8  O   UNL     1      37.590 -24.855 -14.442  0.00  0.00    -0.273 OA
ATOM      9  N   UNL     1      37.023 -22.732 -15.212  0.00  0.00    -0.299 N 
ATOM     10  C   UNL     1      37.108 -23.739 -14.265  0.00  0.00    +0.241 C 
ATOM     11  H   UNL     1      36.612 -21.876 -14.949  0.00  0.00    +0.150 HD
BRANCH   9  12
ATOM     12  C   UNL     1      37.507 -22.876 -16.565  0.00  0.00    +0.116 C 
BRANCH  12  13
ATOM     13  C   UNL     1      36.528 -22.346 -17.572  0.00  0.00    -0.003 C 
ATOM     14  C   UNL     1      36.976 -21.559 -18.634  0.00  0.00    -0.003 C 
ATOM     15  C   UNL     1      35.170 -22.638 -17.445  0.00  0.00    -0.003 C 
ATOM     16  C   UNL     1      36.066 -21.065 -19.567  0.00  0.00    +0.002 C 
ATOM     17  C   UNL     1      34.260 -22.144 -18.379  0.00  0.00    +0.002 C 
ATOM     18  C   UNL     1      34.708 -21.358 -19.441  0.00  0.00    +0.031 C 
BRANCH  18  21
ATOM     19  N   UNL     1      34.178 -20.071 -21.497  0.00  0.00    -0.343 N 
ATOM     20  N   UNL     1      32.471 -21.102 -20.280  0.00  0.00    -0.285 NA
ATOM     21  C   UNL     1      33.760 -20.843 -20.416  0.00  0.00    +0.117 C 
ATOM     22  H   UNL     1      33.519 -19.732 -22.146  0.00  0.00    +0.144 HD
ATOM     23  H   UNL     1      35.133 -19.864 -21.613  0.00  0.00    +0.144 HD
ATOM     24  H   UNL     1      31.827 -20.755 -20.939  0.00  0.00    +0.188 HD
ENDBRANCH  18  21
ENDBRANCH  12  13
ENDBRANCH   9  12
ENDBRANCH   3  10
BRANCH   7  25
ATOM     25  C   UNL     1      33.824 -23.581 -14.017  0.00  0.00    +0.006 C 
BRANCH  25  26
ATOM     26  N   UNL     1      33.041 -24.400 -14.926  0.00  0.00    +0.391 N 
ATOM     27  H   UNL     1      33.384 -24.266 -15.878  0.00  0.00    -0.084 HD
ATOM     28  H   UNL     1      33.135 -25.378 -14.654  0.00  0.00    -0.084 HD
BRANCH  26  29
ATOM     29  C   UNL     1      31.624 -24.024 -14.866  0.00  0.00    -0.061 C 
ATOM     30  C   UNL     1      30.817 -25.278 -14.512  0.00  0.00    -0.021 C 
ATOM     31  C   UNL     1      31.233 -23.365 -16.197  0.00  0.00    -0.021 C 
ATOM     32  C   UNL     1      29.300 -25.090 -14.473  0.00  0.00    -0.002 C 
ATOM     33  C   UNL     1      29.876 -22.665 -16.136  0.00  0.00    -0.002 C 
ATOM     34  C   UNL     1      28.688 -24.964 -15.863  0.00  0.00    -0.000 C 
ATOM     35  C   UNL     1      28.672 -23.551 -16.437  0.00  0.00    -0.000 C 
ENDBRANCH  26  29
ENDBRANCH  25  26
ENDBRANCH   7  25
TORSDOF 7
ENDMDL
MODEL 5
REMARK VINA RESULT:      -9.5      9.743     14.276
REMARK  Name = 25113614
REMARK  7 active torsions:
REMARK  status: ('A' for Active; 'I' for Inactive)
REMARK    1  A    between atoms: C_3  and  C_10
REMARK    2  A    between atoms: C_7  and  C_25
REMARK    3  A    between atoms: N_9  and  C_12
REMARK    4  A    between atoms: C_12  and  C_13
REMARK    5  A    between atoms: C_18  and  C_21
REMARK    6  A    between atoms: C_25  and  N_26
REMARK    7  A    between atoms: N_26  and  C_29
REMARK                            x       y       z     vdW  Elec       q    Type
REMARK                         _______ _______ _______ _____ _____    ______ ____
ROOT
ATOM      1  O   UNL     1      33.362 -15.061 -19.896  0.00  0.00    -0.277 OA
ATOM      2  N   UNL     1      32.259 -13.213 -20.735  0.00  0.00    -0.275 N 
ATOM      3  C   UNL     1      31.622 -12.447 -21.804  0.00  0.00    +0.152 C 
ATOM      4  C   UNL     1      30.619 -11.550 -21.084  0.00  0.00    +0.031 C 
ATOM      5  C   UNL     1      31.932 -12.660 -19.428  0.00  0.00    +0.094 C 
ATOM      6  C   UNL     1      31.261 -11.327 -19.717  0.00  0.00    +0.024 C 
ATOM      7  C   UNL     1      32.966 -14.399 -20.856  0.00  0.00    +0.204 C 
ENDROOT
BRANCH   3  10
ATOM      8  O   UNL     1      33.631 -12.142 -23.057  0.00  0.00    -0.273 OA
ATOM      9  N   UNL     1      32.448 -10.266 -22.349  0.00  0.00    -0.299 N 
ATOM     10  C   UNL     1      32.678 -11.625 -22.480  0.00  0.00    +0.241 C 
ATOM     11  H   UNL     1      31.643  -9.973 -21.862  0.00  0.00    +0.150 HD
BRANCH   9  12
ATOM     12  C   UNL     1      33.330  -9.259 -22.892  0.00  0.00    +0.116 C 
BRANCH  12  13
ATOM     13  C   UNL     1      32.683  -7.905 -22.924  0.00  0.00    -0.003 C 
ATOM     14  C   UNL     1      31.439  -7.711 -22.323  0.00  0.00    -0.003 C 
ATOM     15  C   UNL     1      33.324  -6.840 -23.557  0.00  0.00    -0.003 C 
ATOM     16  C   UNL     1      30.837  -6.454 -22.355  0.00  0.00    +0.002 C 
ATOM     17  C   UNL     1      32.723  -5.583 -23.589  0.00  0.00    +0.002 C 
ATOM     18  C   UNL     1      31.479  -5.388 -22.987  0.00  0.00    +0.031 C 
BRANCH  18  21
ATOM     19  N   UNL     1      30.071  -3.621 -21.960  0.00  0.00    -0.343 N 
ATOM     20  N   UNL     1      31.014  -3.295 -24.073  0.00  0.00    -0.285 NA
ATOM     21  C   UNL     1      30.852  -4.077 -23.019  0.00  0.00    +0.117 C 
ATOM     22  H   UNL     1      29.655  -2.729 -22.002  0.00  0.00    +0.144 HD
ATOM     23  H   UNL     1      29.934  -4.189 -21.168  0.00  0.00    +0.144 HD
ATOM     24  H   UNL     1      30.591  -2.407 -24.096  0.00  0.00    +0.188 HD
ENDBRANCH  18  21
ENDBRANCH  12  13
ENDBRANCH   9  12
ENDBRANCH   3  10
BRANCH   7  25
ATOM     25  C   UNL     1      33.240 -14.867 -22.263  0.00  0.00    +0.006 C 
BRANCH  25  26
ATOM     26  N   UNL     1      34.679 -14.816 -22.456  0.00  0.00    +0.391 N 
ATOM     27  H   UNL     1      34.907 -14.043 -23.081  0.00  0.00    -0.084 HD
ATOM     28  H   UNL     1      35.128 -14.680 -21.550  0.00  0.00    -0.084 HD
BRANCH  26  29
ATOM     29  C   UNL     1      35.163 -16.071 -23.043  0.00  0.00    -0.061 C 
ATOM     30  C   UNL     1      34.305 -16.379 -24.275  0.00  0.00    -0.021 C 
ATOM     31  C   UNL     1      35.145 -17.160 -21.960  0.00  0.00    -0.021 C 
ATOM     32  C   UNL     1      34.624 -17.697 -24.981  0.00  0.00    -0.002 C 
ATOM     33  C   UNL     1      35.907 -18.418 -22.371  0.00  0.00    -0.002 C 
ATOM     34  C   UNL     1      34.130 -18.913 -24.206  0.00  0.00    -0.000 C 
ATOM     35  C   UNL     1      35.096 -19.445 -23.154  0.00  0.00    -0.000 C 
ENDBRANCH  26  29
ENDBRANCH  25  26
ENDBRANCH   7  25
TORSDOF 7
ENDMDL
MODEL 6
REMARK VINA RESULT:      -9.3      2.177      7.650
REMARK  Name = 25113614
REMARK  7 active torsions:
REMARK  status: ('A' for Active; 'I' for Inactive)
REMARK    1  A    between atoms: C_3  and  C_10
REMARK    2  A    between atoms: C_7  and  C_25
REMARK    3  A    between atoms: N_9  and  C_12
REMARK    4  A    between atoms: C_12  and  C_13
REMARK    5  A    between atoms: C_18  and  C_21
REMARK    6  A    between atoms: C_25  and  N_26
REMARK    7  A    between atoms: N_26  and  C_29
REMARK                            x       y       z     vdW  Elec       q    Type
REMARK                         _______ _______ _______ _____ _____    ______ ____
ROOT
ATOM      1  O   UNL     1      32.624 -23.852 -18.003  0.00  0.00    -0.277 OA
ATOM      2  N   UNL     1      32.370 -23.558 -15.725  0.00  0.00    -0.275 N 
ATOM      3  C   UNL     1      32.814 -23.099 -14.411  0.00  0.00    +0.152 C 
ATOM      4  C   UNL     1      31.523 -22.844 -13.639  0.00  0.00    +0.031 C 
ATOM      5  C   UNL     1      30.946 -23.866 -15.719  0.00  0.00    +0.094 C 
ATOM      6  C   UNL     1      30.541 -23.839 -14.254  0.00  0.00    +0.024 C 
ATOM      7  C   UNL     1      33.104 -23.579 -16.901  0.00  0.00    +0.204 C 
ENDROOT
BRANCH   3  10
ATOM      8  O   UNL     1      33.629 -25.338 -14.251  0.00  0.00    -0.273 OA
ATOM      9  N   UNL     1      34.243 -23.796 -12.619  0.00  0.00    -0.299 N 
ATOM     10  C   UNL     1      33.601 -24.206 -13.775  0.00  0.00    +0.241 C 
ATOM     11  H   UNL     1      34.146 -22.856 -12.338  0.00  0.00    +0.150 HD
BRANCH   9  12
ATOM     12  C   UNL     1      35.049 -24.677 -11.806  0.00  0.00    +0.116 C 
BRANCH  12  13
ATOM     13  C   UNL     1      36.331 -25.056 -12.489  0.00  0.00    -0.003 C 
ATOM     14  C   UNL     1      37.021 -26.201 -12.090  0.00  0.00    -0.003 C 
ATOM     15  C   UNL     1      36.833 -24.263 -13.520  0.00  0.00    -0.003 C 
ATOM     16  C   UNL     1      38.213 -26.552 -12.723  0.00  0.00    +0.002 C 
ATOM     17  C   UNL     1      38.025 -24.614 -14.153  0.00  0.00    +0.002 C 
ATOM     18  C   UNL     1      38.716 -25.759 -13.755  0.00  0.00    +0.031 C 
BRANCH  18  21
ATOM     19  N   UNL     1      40.900 -26.939 -13.788  0.00  0.00    -0.343 N 
ATOM     20  N   UNL     1      40.213 -25.682 -15.633  0.00  0.00    -0.285 NA
ATOM     21  C   UNL     1      39.958 -26.127 -14.414  0.00  0.00    +0.117 C 
ATOM     22  H   UNL     1      41.735 -27.176 -14.252  0.00  0.00    +0.144 HD
ATOM     23  H   UNL     1      40.730 -27.278 -12.879  0.00  0.00    +0.144 HD
ATOM     24  H   UNL     1      41.052 -25.930 -16.082  0.00  0.00    +0.188 HD
ENDBRANCH  18  21
ENDBRANCH  12  13
ENDBRANCH   9  12
ENDBRANCH   3  10
BRANCH   7  25
ATOM     25  C   UNL     1      34.567 -23.239 -16.775  0.00  0.00    +0.006 C 
BRANCH  25  26
ATOM     26  N   UNL     1      35.121 -23.243 -18.119  0.00  0.00    +0.391 N 
ATOM     27  H   UNL     1      36.060 -23.642 -18.093  0.00  0.00    -0.084 HD
ATOM     28  H   UNL     1      34.519 -23.802 -18.722  0.00  0.00    -0.084 HD
BRANCH  26  29
ATOM     29  C   UNL     1      35.191 -21.877 -18.650  0.00  0.00    -0.061 C 
ATOM     30  C   UNL     1      33.950 -21.645 -19.520  0.00  0.00    -0.021 C 
ATOM     31  C   UNL     1      36.529 -21.702 -19.382  0.00  0.00    -0.021 C 
ATOM     32  C   UNL     1      33.886 -20.287 -20.219  0.00  0.00    -0.002 C 
ATOM     33  C   UNL     1      36.839 -20.242 -19.710  0.00  0.00    -0.002 C 
ATOM     34  C   UNL     1      34.855 -20.183 -21.392  0.00  0.00    -0.000 C 
ATOM     35  C   UNL     1      36.265 -19.734 -21.028  0.00  0.00    -0.000 C 
ENDBRANCH  26  29
ENDBRANCH  25  26
ENDBRANCH   7  25
TORSDOF 7
ENDMDL
MODEL 7
REMARK VINA RESULT:      -9.2      1.830      4.795
REMARK  Name = 25113614
REMARK  7 active torsions:
REMARK  status: ('A' for Active; 'I' for Inactive)
REMARK    1  A    between atoms: C_3  and  C_10
REMARK    2  A    between atoms: C_7  and  C_25
REMARK    3  A    between atoms: N_9  and  C_12
REMARK    4  A    between atoms: C_12  and  C_13
REMARK    5  A    between atoms: C_18  and  C_21
REMARK    6  A    between atoms: C_25  and  N_26
REMARK    7  A    between atoms: N_26  and  C_29
REMARK                            x       y       z     vdW  Elec       q    Type
REMARK                         _______ _______ _______ _____ _____    ______ ____
ROOT
ATOM      1  O   UNL     1      31.651 -23.656 -12.363  0.00  0.00    -0.277 OA
ATOM      2  N   UNL     1      32.226 -23.708 -14.600  0.00  0.00    -0.275 N 
ATOM      3  C   UNL     1      32.997 -24.203 -15.739  0.00  0.00    +0.152 C 
ATOM      4  C   UNL     1      32.088 -23.974 -16.943  0.00  0.00    +0.031 C 
ATOM      5  C   UNL     1      31.062 -22.954 -15.044  0.00  0.00    +0.094 C 
ATOM      6  C   UNL     1      31.264 -22.755 -16.538  0.00  0.00    +0.024 C 
ATOM      7  C   UNL     1      32.423 -24.001 -13.260  0.00  0.00    +0.204 C 
ENDROOT
BRANCH   3  10
ATOM      8  O   UNL     1      34.688 -22.743 -14.897  0.00  0.00    -0.273 OA
ATOM      9  N   UNL     1      34.779 -23.406 -17.126  0.00  0.00    -0.299 N 
ATOM     10  C   UNL     1      34.242 -23.375 -15.851  0.00  0.00    +0.241 C 
ATOM     11  H   UNL     1      34.329 -23.953 -17.811  0.00  0.00    +0.150 HD
BRANCH   9  12
ATOM     12  C   UNL     1      35.967 -22.674 -17.503  0.00  0.00    +0.116 C 
BRANCH  12  13
ATOM     13  C   UNL     1      35.728 -21.786 -18.688  0.00  0.00    -0.003 C 
ATOM     14  C   UNL     1      36.795 -21.109 -19.279  0.00  0.00    -0.003 C 
ATOM     15  C   UNL     1      34.438 -21.634 -19.197  0.00  0.00    -0.003 C 
ATOM     16  C   UNL     1      36.572 -20.281 -20.379  0.00  0.00    +0.002 C 
ATOM     17  C   UNL     1      34.215 -20.806 -20.297  0.00  0.00    +0.002 C 
ATOM     18  C   UNL     1      35.282 -20.130 -20.889  0.00  0.00    +0.031 C 
BRANCH  18  21
ATOM     19  N   UNL     1      35.111 -17.880 -21.926  0.00  0.00    -0.343 N 
ATOM     20  N   UNL     1      34.773 -19.800 -23.215  0.00  0.00    -0.285 NA
ATOM     21  C   UNL     1      35.051 -19.268 -22.037  0.00  0.00    +0.117 C 
ATOM     22  H   UNL     1      34.951 -17.315 -22.716  0.00  0.00    +0.144 HD
ATOM     23  H   UNL     1      35.313 -17.465 -21.056  0.00  0.00    +0.144 HD
ATOM     24  H   UNL     1      34.618 -19.218 -23.993  0.00  0.00    +0.188 HD
ENDBRANCH  18  21
ENDBRANCH  12  13
ENDBRANCH   9  12
ENDBRANCH   3  10
BRANCH   7  25
ATOM     25  C   UNL     1      33.664 -24.790 -12.930  0.00  0.00    +0.006 C 
BRANCH  25  26
ATOM     26  N   UNL     1      34.547 -23.904 -12.189  0.00  0.00    +0.391 N 
ATOM     27  H   UNL     1      34.759 -23.087 -12.761  0.00  0.00    -0.084 HD
ATOM     28  H   UNL     1      34.080 -23.619 -11.328  0.00  0.00    -0.084 HD
BRANCH  26  29
ATOM     29  C   UNL     1      35.797 -24.593 -11.846  0.00  0.00    -0.061 C 
ATOM     30  C   UNL     1      36.897 -23.534 -11.709  0.00  0.00    -0.021 C 
ATOM     31  C   UNL     1      36.072 -25.669 -12.906  0.00  0.00    -0.021 C 
ATOM     32  C   UNL     1      38.296 -24.078 -11.420  0.00  0.00    -0.002 C 
ATOM     33  C   UNL     1      37.174 -26.642 -12.491  0.00  0.00    -0.002 C 
ATOM     34  C   UNL     1      38.935 -24.732 -12.639  0.00  0.00    -0.000 C 
ATOM     35  C   UNL     1      38.593 -26.205 -12.837  0.00  0.00    -0.000 C 
ENDBRANCH  26  29
ENDBRANCH  25  26
ENDBRANCH   7  25
TORSDOF 7
ENDMDL
MODEL 8
REMARK VINA RESULT:      -9.2      6.249     10.717
REMARK  Name = 25113614
REMARK  7 active torsions:
REMARK  status: ('A' for Active; 'I' for Inactive)
REMARK    1  A    between atoms: C_3  and  C_10
REMARK    2  A    between atoms: C_7  and  C_25
REMARK    3  A    between atoms: N_9  and  C_12
REMARK    4  A    between atoms: C_12  and  C_13
REMARK    5  A    between atoms: C_18  and  C_21
REMARK    6  A    between atoms: C_25  and  N_26
REMARK    7  A    between atoms: N_26  and  C_29
REMARK                            x       y       z     vdW  Elec       q    Type
REMARK                         _______ _______ _______ _____ _____    ______ ____
ROOT
ATOM      1  O   UNL     1      34.696 -19.822 -23.743  0.00  0.00    -0.277 OA
ATOM      2  N   UNL     1      34.763 -17.516 -23.883  0.00  0.00    -0.275 N 
ATOM      3  C   UNL     1      35.290 -16.202 -23.523  0.00  0.00    +0.152 C 
ATOM      4  C   UNL     1      35.006 -15.330 -24.744  0.00  0.00    +0.031 C 
ATOM      5  C   UNL     1      33.945 -17.442 -25.086  0.00  0.00    +0.094 C 
ATOM      6  C   UNL     1      33.748 -15.956 -25.340  0.00  0.00    +0.024 C 
ATOM      7  C   UNL     1      35.075 -18.735 -23.301  0.00  0.00    +0.204 C 
ENDROOT
BRANCH   3  10
ATOM      8  O   UNL     1      34.821 -16.049 -21.187  0.00  0.00    -0.273 OA
ATOM      9  N   UNL     1      33.488 -14.867 -22.685  0.00  0.00    -0.299 N 
ATOM     10  C   UNL     1      34.529 -15.707 -22.330  0.00  0.00    +0.241 C 
ATOM     11  H   UNL     1      33.353 -14.665 -23.640  0.00  0.00    +0.150 HD
BRANCH   9  12
ATOM     12  C   UNL     1      32.588 -14.273 -21.723  0.00  0.00    +0.116 C 
BRANCH  12  13
ATOM     13  C   UNL     1      32.444 -12.793 -21.928  0.00  0.00    -0.003 C 
ATOM     14  C   UNL     1      31.551 -12.063 -21.143  0.00  0.00    -0.003 C 
ATOM     15  C   UNL     1      33.202 -12.146 -22.905  0.00  0.00    -0.003 C 
ATOM     16  C   UNL     1      31.416 -10.689 -21.335  0.00  0.00    +0.002 C 
ATOM     17  C   UNL     1      33.067 -10.772 -23.096  0.00  0.00    +0.002 C 
ATOM     18  C   UNL     1      32.174 -10.042 -22.311  0.00  0.00    +0.031 C 
BRANCH  18  21
ATOM     19  N   UNL     1      30.916  -8.071 -23.145  0.00  0.00    -0.343 N 
ATOM     20  N   UNL     1      32.981  -7.790 -22.087  0.00  0.00    -0.285 NA
ATOM     21  C   UNL     1      32.033  -8.609 -22.510  0.00  0.00    +0.117 C 
ATOM     22  H   UNL     1      30.841  -7.097 -23.269  0.00  0.00    +0.144 HD
ATOM     23  H   UNL     1      30.201  -8.664 -23.470  0.00  0.00    +0.144 HD
ATOM     24  H   UNL     1      32.887  -6.819 -22.220  0.00  0.00    +0.188 HD
ENDBRANCH  18  21
ENDBRANCH  12  13
ENDBRANCH   9  12
ENDBRANCH   3  10
BRANCH   7  25
ATOM     25  C   UNL     1      35.931 -18.679 -22.062  0.00  0.00    +0.006 C 
BRANCH  25  26
ATOM     26  N   UNL     1      35.040 -18.826 -20.923  0.00  0.00    +0.391 N 
ATOM     27  H   UNL     1      35.477 -18.411 -20.099  0.00  0.00    -0.084 HD
ATOM     28  H   UNL     1      34.160 -18.354 -21.129  0.00  0.00    -0.084 HD
BRANCH  26  29
ATOM     29  C   UNL     1      34.769 -20.245 -20.662  0.00  0.00    -0.061 C 
ATOM     30  C   UNL     1      33.325 -20.366 -20.162  0.00  0.00    -0.021 C 
ATOM     31  C   UNL     1      35.832 -20.778 -19.691  0.00  0.00    -0.021 C 
ATOM     32  C   UNL     1      32.885 -21.777 -19.771  0.00  0.00    -0.002 C 
ATOM     33  C   UNL     1      35.830 -22.303 -19.588  0.00  0.00    -0.002 C 
ATOM     34  C   UNL     1      33.490 -22.237 -18.450  0.00  0.00    -0.000 C 
ATOM     35  C   UNL     1      34.866 -22.885 -18.560  0.00  0.00    -0.000 C 
ENDBRANCH  26  29
ENDBRANCH  25  26
ENDBRANCH   7  25
TORSDOF 7
ENDMDL
MODEL 9
REMARK VINA RESULT:      -9.0      1.775      5.182
REMARK  Name = 25113614
REMARK  7 active torsions:
REMARK  status: ('A' for Active; 'I' for Inactive)
REMARK    1  A    between atoms: C_3  and  C_10
REMARK    2  A    between atoms: C_7  and  C_25
REMARK    3  A    between atoms: N_9  and  C_12
REMARK    4  A    between atoms: C_12  and  C_13
REMARK    5  A    between atoms: C_18  and  C_21
REMARK    6  A    between atoms: C_25  and  N_26
REMARK    7  A    between atoms: N_26  and  C_29
REMARK                            x       y       z     vdW  Elec       q    Type
REMARK                         _______ _______ _______ _____ _____    ______ ____
ROOT
ATOM      1  O   UNL     1      33.141 -24.941 -12.871  0.00  0.00    -0.277 OA
ATOM      2  N   UNL     1      33.179 -24.134 -15.036  0.00  0.00    -0.275 N 
ATOM      3  C   UNL     1      33.699 -24.082 -16.400  0.00  0.00    +0.152 C 
ATOM      4  C   UNL     1      32.519 -23.600 -17.240  0.00  0.00    +0.031 C 
ATOM      5  C   UNL     1      31.889 -23.465 -14.941  0.00  0.00    +0.094 C 
ATOM      6  C   UNL     1      31.720 -22.738 -16.265  0.00  0.00    +0.024 C 
ATOM      7  C   UNL     1      33.706 -24.832 -13.962  0.00  0.00    +0.204 C 
ENDROOT
BRANCH   3  10
ATOM      8  O   UNL     1      35.165 -22.466 -15.431  0.00  0.00    -0.273 OA
ATOM      9  N   UNL     1      35.356 -22.943 -17.701  0.00  0.00    -0.299 N 
ATOM     10  C   UNL     1      34.815 -23.082 -16.435  0.00  0.00    +0.241 C 
ATOM     11  H   UNL     1      34.989 -23.496 -18.430  0.00  0.00    +0.150 HD
BRANCH   9  12
ATOM     12  C   UNL     1      36.430 -22.026 -18.007  0.00  0.00    +0.116 C 
BRANCH  12  13
ATOM     13  C   UNL     1      36.126 -21.185 -19.212  0.00  0.00    -0.003 C 
ATOM     14  C   UNL     1      34.846 -21.202 -19.769  0.00  0.00    -0.003 C 
ATOM     15  C   UNL     1      37.121 -20.388 -19.777  0.00  0.00    -0.003 C 
ATOM     16  C   UNL     1      34.564 -20.422 -20.890  0.00  0.00    +0.002 C 
ATOM     17  C   UNL     1      36.839 -19.609 -20.897  0.00  0.00    +0.002 C 
ATOM     18  C   UNL     1      35.560 -19.624 -21.454  0.00  0.00    +0.031 C 
BRANCH  18  21
ATOM     19  N   UNL     1      34.498 -19.304 -23.676  0.00  0.00    -0.343 N 
ATOM     20  N   UNL     1      35.731 -17.577 -22.701  0.00  0.00    -0.285 NA
ATOM     21  C   UNL     1      35.264 -18.811 -22.623  0.00  0.00    +0.117 C 
ATOM     22  H   UNL     1      34.309 -18.737 -24.457  0.00  0.00    +0.144 HD
ATOM     23  H   UNL     1      34.143 -20.222 -23.638  0.00  0.00    +0.144 HD
ATOM     24  H   UNL     1      35.532 -17.024 -23.490  0.00  0.00    +0.188 HD
ENDBRANCH  18  21
ENDBRANCH  12  13
ENDBRANCH   9  12
ENDBRANCH   3  10
BRANCH   7  25
ATOM     25  C   UNL     1      35.047 -25.483 -14.187  0.00  0.00    +0.006 C 
BRANCH  25  26
ATOM     26  N   UNL     1      35.740 -25.483 -12.909  0.00  0.00    +0.391 N 
ATOM     27  H   UNL     1      35.306 -24.796 -12.293  0.00  0.00    -0.084 HD
ATOM     28  H   UNL     1      35.674 -26.415 -12.499  0.00  0.00    -0.084 HD
BRANCH  26  29
ATOM     29  C   UNL     1      37.156 -25.143 -13.092  0.00  0.00    -0.061 C 
ATOM     30  C   UNL     1      37.349 -24.690 -14.543  0.00  0.00    -0.021 C 
ATOM     31  C   UNL     1      38.009 -26.350 -12.677  0.00  0.00    -0.021 C 
ATOM     32  C   UNL     1      38.789 -24.359 -14.939  0.00  0.00    -0.002 C 
ATOM     33  C   UNL     1      39.492 -26.008 -12.537  0.00  0.00    -0.002 C 
ATOM     34  C   UNL     1      39.654 -25.603 -15.103  0.00  0.00    -0.000 C 
ATOM     35  C   UNL     1      40.307 -26.110 -13.821  0.00  0.00    -0.000 C 
ENDBRANCH  26  29
ENDBRANCH  25  26
ENDBRANCH   7  25
TORSDOF 7
ENDMDL
