MODEL 1
REMARK VINA RESULT:     -12.0      0.000      0.000
REMARK  Name = 1712
REMARK  5 active torsions:
REMARK  status: ('A' for Active; 'I' for Inactive)
REMARK    1  A    between atoms: C_1  and  N_18
REMARK    2  A    between atoms: C_2  and  S_7
REMARK    3  A    between atoms: S_7  and  N_10
REMARK    4  A    between atoms: N_18  and  C_20
REMARK    5  A    between atoms: C_20  and  C_26
REMARK                            x       y       z     vdW  Elec       q    Type
REMARK                         _______ _______ _______ _____ _____    ______ ____
ROOT
ATOM      1  C   UNL     1      35.176 -20.326 -20.583  0.00  0.00    +0.045 C 
ATOM      2  C   UNL     1      34.217 -22.220 -18.737  0.00  0.00    +0.125 C 
ATOM      3  C   UNL     1      33.795 -20.512 -20.393  0.00  0.00    +0.016 C 
ATOM      4  C   UNL     1      36.066 -21.111 -19.828  0.00  0.00    +0.016 C 
ATOM      5  C   UNL     1      33.319 -21.451 -19.478  0.00  0.00    +0.021 C 
ATOM      6  C   UNL     1      35.590 -22.049 -18.912  0.00  0.00    +0.021 C 
ENDROOT
BRANCH   2   7
ATOM      7  S   UNL     1      33.622 -23.396 -17.592  0.00  0.00    +0.075 S 
ATOM      8  O   UNL     1      34.513 -23.384 -16.438  0.00  0.00    -0.150 OA
ATOM      9  O   UNL     1      33.395 -24.654 -18.291  0.00  0.00    -0.150 OA
BRANCH   7  10
ATOM     10  N   UNL     1      32.110 -22.725 -17.107  0.00  0.00    -0.199 N 
ATOM     11  H   UNL     1      31.696 -21.990 -17.614  0.00  0.00    +0.175 HD
ATOM     12  N   UNL     1      32.102 -23.045 -14.770  0.00  0.00    -0.228 NA
ATOM     13  C   UNL     1      31.472 -23.271 -15.939  0.00  0.00    +0.147 C 
ATOM     14  C   UNL     1      30.290 -23.972 -16.075  0.00  0.00    +0.036 C 
ATOM     15  C   UNL     1      29.708 -24.481 -14.920  0.00  0.00    +0.005 C 
ATOM     16  C   UNL     1      31.507 -23.556 -13.668  0.00  0.00    +0.100 C 
ATOM     17  C   UNL     1      30.322 -24.273 -13.689  0.00  0.00    +0.021 C 
ENDBRANCH   7  10
ENDBRANCH   2   7
BRANCH   1  18
ATOM     18  N   UNL     1      35.649 -19.392 -21.493  0.00  0.00    -0.328 N 
ATOM     19  H   UNL     1      36.284 -19.695 -22.181  0.00  0.00    +0.147 HD
BRANCH  18  20
ATOM     20  C   UNL     1      35.266 -18.001 -21.487  0.00  0.00    +0.127 C 
BRANCH  20  26
ATOM     21  S   UNL     1      34.277 -14.536 -21.323  0.00  0.00    -0.104 S 
ATOM     22  O   UNL     1      35.222 -19.751 -23.849  0.00  0.00    -0.210 OA
ATOM     23  N   UNL     1      34.399 -17.982 -25.120  0.00  0.00    -0.333 NA
ATOM     24  N   UNL     1      33.372 -12.953 -23.169  0.00  0.00    -0.262 NA
ATOM     25  C   UNL     1      34.367 -16.469 -23.366  0.00  0.00    +0.033 C 
ATOM     26  C   UNL     1      34.826 -17.605 -22.846  0.00  0.00    +0.092 C 
ATOM     27  C   UNL     1      34.119 -16.766 -24.786  0.00  0.00    +0.142 C 
ATOM     28  C   UNL     1      34.098 -15.177 -22.889  0.00  0.00    +0.114 C 
ATOM     29  C   UNL     1      34.852 -18.592 -23.968  0.00  0.00    +0.202 C 
ATOM     30  C   UNL     1      33.607 -14.185 -23.723  0.00  0.00    +0.069 C 
ATOM     31  C   UNL     1      33.592 -15.673 -25.648  0.00  0.00    +0.034 C 
ATOM     32  C   UNL     1      33.361 -14.461 -25.105  0.00  0.00    +0.018 C 
ATOM     33  C   UNL     1      33.693 -13.020 -21.894  0.00  0.00    +0.183 C 
ENDBRANCH  20  26
ENDBRANCH  18  20
ENDBRANCH   1  18
TORSDOF 5
ENDMDL
MODEL 2
REMARK VINA RESULT:     -11.6      3.897      6.923
REMARK  Name = 1712
REMARK  5 active torsions:
REMARK  status: ('A' for Active; 'I' for Inactive)
REMARK    1  A    between atoms: C_1  and  N_18
REMARK    2  A    between atoms: C_2  and  S_7
REMARK    3  A    between atoms: S_7  and  N_10
REMARK    4  A    between atoms: N_18  and  C_20
REMARK    5  A    between atoms: C_20  and  C_26
REMARK                            x       y       z     vdW  Elec       q    Type
REMARK                         _______ _______ _______ _____ _____    ______ ____
ROOT
ATOM      1  C   UNL     1      34.418 -14.222 -22.861  0.00  0.00    +0.045 C 
ATOM      2  C   UNL     1      34.955 -16.957 -22.475  0.00  0.00    +0.125 C 
ATOM      3  C   UNL     1      34.521 -15.098 -23.957  0.00  0.00    +0.016 C 
ATOM      4  C   UNL     1      34.592 -14.747 -21.567  0.00  0.00    +0.016 C 
ATOM      5  C   UNL     1      34.787 -16.454 -23.766  0.00  0.00    +0.021 C 
ATOM      6  C   UNL     1      34.858 -16.103 -21.376  0.00  0.00    +0.021 C 
ENDROOT
BRANCH   2   7
ATOM      7  S   UNL     1      35.289 -18.653 -22.237  0.00  0.00    +0.075 S 
ATOM      8  O   UNL     1      36.738 -18.821 -22.197  0.00  0.00    -0.150 OA
ATOM      9  O   UNL     1      34.520 -19.422 -23.207  0.00  0.00    -0.150 OA
BRANCH   7  10
ATOM     10  N   UNL     1      34.674 -18.944 -20.653  0.00  0.00    -0.199 N 
ATOM     11  H   UNL     1      34.324 -18.207 -20.103  0.00  0.00    +0.175 HD
ATOM     12  N   UNL     1      35.907 -20.821 -19.930  0.00  0.00    -0.228 NA
ATOM     13  C   UNL     1      34.688 -20.295 -20.160  0.00  0.00    +0.147 C 
ATOM     14  C   UNL     1      33.493 -20.957 -19.956  0.00  0.00    +0.036 C 
ATOM     15  C   UNL     1      33.554 -22.261 -19.478  0.00  0.00    +0.005 C 
ATOM     16  C   UNL     1      35.927 -22.091 -19.467  0.00  0.00    +0.100 C 
ATOM     17  C   UNL     1      34.790 -22.846 -19.226  0.00  0.00    +0.021 C 
ENDBRANCH   7  10
ENDBRANCH   2   7
BRANCH   1  18
ATOM     18  N   UNL     1      34.153 -12.874 -23.050  0.00  0.00    -0.328 N 
ATOM     19  H   UNL     1      34.915 -12.252 -23.091  0.00  0.00    +0.147 HD
BRANCH  18  20
ATOM     20  C   UNL     1      32.825 -12.330 -23.189  0.00  0.00    +0.127 C 
BRANCH  20  26
ATOM     21  S   UNL     1      33.361  -8.763 -23.260  0.00  0.00    -0.104 S 
ATOM     22  O   UNL     1      31.707 -13.914 -20.979  0.00  0.00    -0.210 OA
ATOM     23  N   UNL     1      31.473 -11.965 -19.726  0.00  0.00    -0.333 NA
ATOM     24  N   UNL     1      32.888  -6.952 -21.463  0.00  0.00    -0.262 NA
ATOM     25  C   UNL     1      32.334 -10.568 -21.361  0.00  0.00    +0.033 C 
ATOM     26  C   UNL     1      32.373 -11.791 -21.884  0.00  0.00    +0.092 C 
ATOM     27  C   UNL     1      31.764 -10.740 -20.015  0.00  0.00    +0.142 C 
ATOM     28  C   UNL     1      32.688  -9.277 -21.784  0.00  0.00    +0.114 C 
ATOM     29  C   UNL     1      31.820 -12.705 -20.839  0.00  0.00    +0.202 C 
ATOM     30  C   UNL     1      32.513  -8.173 -20.966  0.00  0.00    +0.069 C 
ATOM     31  C   UNL     1      31.591  -9.530 -19.168  0.00  0.00    +0.034 C 
ATOM     32  C   UNL     1      31.960  -8.328 -19.654  0.00  0.00    +0.018 C 
ATOM     33  C   UNL     1      33.356  -7.142 -22.679  0.00  0.00    +0.183 C 
ENDBRANCH  20  26
ENDBRANCH  18  20
ENDBRANCH   1  18
TORSDOF 5
ENDMDL
MODEL 3
REMARK VINA RESULT:     -11.4      3.764      6.685
REMARK  Name = 1712
REMARK  5 active torsions:
REMARK  status: ('A' for Active; 'I' for Inactive)
REMARK    1  A    between atoms: C_1  and  N_18
REMARK    2  A    between atoms: C_2  and  S_7
REMARK    3  A    between atoms: S_7  and  N_10
REMARK    4  A    between atoms: N_18  and  C_20
REMARK    5  A    between atoms: C_20  and  C_26
REMARK                            x       y       z     vdW  Elec       q    Type
REMARK                         _______ _______ _______ _____ _____    ______ ____
ROOT
ATOM      1  C   UNL     1      34.364 -14.802 -23.473  0.00  0.00    +0.045 C 
ATOM      2  C   UNL     1      35.120 -17.398 -22.697  0.00  0.00    +0.125 C 
ATOM      3  C   UNL     1      34.565 -15.811 -24.432  0.00  0.00    +0.016 C 
ATOM      4  C   UNL     1      34.551 -15.123 -22.116  0.00  0.00    +0.016 C 
ATOM      5  C   UNL     1      34.940 -17.098 -24.047  0.00  0.00    +0.021 C 
ATOM      6  C   UNL     1      34.926 -16.410 -21.731  0.00  0.00    +0.021 C 
ENDROOT
BRANCH   2   7
ATOM      7  S   UNL     1      35.591 -19.009 -22.216  0.00  0.00    +0.075 S 
ATOM      8  O   UNL     1      37.044 -19.033 -22.101  0.00  0.00    -0.150 OA
ATOM      9  O   UNL     1      34.940 -19.969 -23.100  0.00  0.00    -0.150 OA
BRANCH   7  10
ATOM     10  N   UNL     1      34.927 -19.143 -20.631  0.00  0.00    -0.199 N 
ATOM     11  H   UNL     1      34.688 -18.342 -20.113  0.00  0.00    +0.175 HD
ATOM     12  N   UNL     1      35.855 -21.156 -19.825  0.00  0.00    -0.228 NA
ATOM     13  C   UNL     1      34.732 -20.461 -20.089  0.00  0.00    +0.147 C 
ATOM     14  C   UNL     1      33.449 -20.926 -19.877  0.00  0.00    +0.036 C 
ATOM     15  C   UNL     1      33.308 -22.205 -19.351  0.00  0.00    +0.005 C 
ATOM     16  C   UNL     1      35.679 -22.396 -19.315  0.00  0.00    +0.100 C 
ATOM     17  C   UNL     1      34.439 -22.961 -19.062  0.00  0.00    +0.021 C 
ENDBRANCH   7  10
ENDBRANCH   2   7
BRANCH   1  18
ATOM     18  N   UNL     1      33.990 -13.522 -23.854  0.00  0.00    -0.328 N 
ATOM     19  H   UNL     1      34.551 -13.052 -24.514  0.00  0.00    +0.147 HD
BRANCH  18  20
ATOM     20  C   UNL     1      32.829 -12.838 -23.340  0.00  0.00    +0.127 C 
BRANCH  20  26
ATOM     21  S   UNL     1      31.200 -11.861 -20.273  0.00  0.00    -0.104 S 
ATOM     22  O   UNL     1      34.509 -11.157 -25.072  0.00  0.00    -0.210 OA
ATOM     23  N   UNL     1      34.189  -9.370 -23.614  0.00  0.00    -0.333 NA
ATOM     24  N   UNL     1      31.180  -9.587 -19.026  0.00  0.00    -0.262 NA
ATOM     25  C   UNL     1      32.844 -10.547 -22.140  0.00  0.00    +0.033 C 
ATOM     26  C   UNL     1      33.162 -11.413 -23.099  0.00  0.00    +0.092 C 
ATOM     27  C   UNL     1      33.514  -9.291 -22.516  0.00  0.00    +0.142 C 
ATOM     28  C   UNL     1      32.081 -10.580 -20.963  0.00  0.00    +0.114 C 
ATOM     29  C   UNL     1      34.030 -10.666 -24.060  0.00  0.00    +0.202 C 
ATOM     30  C   UNL     1      31.946  -9.462 -20.156  0.00  0.00    +0.069 C 
ATOM     31  C   UNL     1      33.345  -8.114 -21.622  0.00  0.00    +0.034 C 
ATOM     32  C   UNL     1      32.592  -8.234 -20.510  0.00  0.00    +0.018 C 
ATOM     33  C   UNL     1      30.729 -10.823 -18.983  0.00  0.00    +0.183 C 
ENDBRANCH  20  26
ENDBRANCH  18  20
ENDBRANCH   1  18
TORSDOF 5
ENDMDL
MODEL 4
REMARK VINA RESULT:     -11.2      4.148     11.125
REMARK  Name = 1712
REMARK  5 active torsions:
REMARK  status: ('A' for Active; 'I' for Inactive)
REMARK    1  A    between atoms: C_1  and  N_18
REMARK    2  A    between atoms: C_2  and  S_7
REMARK    3  A    between atoms: S_7  and  N_10
REMARK    4  A    between atoms: N_18  and  C_20
REMARK    5  A    between atoms: C_20  and  C_26
REMARK                            x       y       z     vdW  Elec       q    Type
REMARK                         _______ _______ _______ _____ _____    ______ ____
ROOT
ATOM      1  C   UNL     1      35.734 -22.099 -18.372  0.00  0.00    +0.045 C 
ATOM      2  C   UNL     1      35.596 -20.321 -20.548  0.00  0.00    +0.125 C 
ATOM      3  C   UNL     1      34.519 -21.875 -19.044  0.00  0.00    +0.016 C 
ATOM      4  C   UNL     1      36.879 -21.411 -18.815  0.00  0.00    +0.016 C 
ATOM      5  C   UNL     1      34.450 -20.993 -20.123  0.00  0.00    +0.021 C 
ATOM      6  C   UNL     1      36.810 -20.530 -19.894  0.00  0.00    +0.021 C 
ENDROOT
BRANCH   2   7
ATOM      7  S   UNL     1      35.510 -19.217 -21.898  0.00  0.00    +0.075 S 
ATOM      8  O   UNL     1      35.125 -19.984 -23.077  0.00  0.00    -0.150 OA
ATOM      9  O   UNL     1      36.739 -18.434 -21.939  0.00  0.00    -0.150 OA
BRANCH   7  10
ATOM     10  N   UNL     1      34.190 -18.194 -21.471  0.00  0.00    -0.199 N 
ATOM     11  H   UNL     1      33.367 -18.566 -21.080  0.00  0.00    +0.175 HD
ATOM     12  N   UNL     1      34.377 -16.405 -22.996  0.00  0.00    -0.228 NA
ATOM     13  C   UNL     1      34.326 -16.781 -21.704  0.00  0.00    +0.147 C 
ATOM     14  C   UNL     1      34.395 -15.918 -20.628  0.00  0.00    +0.036 C 
ATOM     15  C   UNL     1      34.526 -14.561 -20.900  0.00  0.00    +0.005 C 
ATOM     16  C   UNL     1      34.505 -15.078 -23.222  0.00  0.00    +0.100 C 
ATOM     17  C   UNL     1      34.582 -14.125 -22.219  0.00  0.00    +0.021 C 
ENDBRANCH   7  10
ENDBRANCH   2   7
BRANCH   1  18
ATOM     18  N   UNL     1      35.803 -22.976 -17.300  0.00  0.00    -0.328 N 
ATOM     19  H   UNL     1      35.125 -23.688 -17.238  0.00  0.00    +0.147 HD
BRANCH  18  20
ATOM     20  C   UNL     1      36.809 -22.906 -16.269  0.00  0.00    +0.127 C 
BRANCH  20  26
ATOM     21  S   UNL     1      39.624 -24.886 -15.190  0.00  0.00    -0.104 S 
ATOM     22  O   UNL     1      34.123 -22.839 -15.075  0.00  0.00    -0.210 OA
ATOM     23  N   UNL     1      34.810 -24.399 -13.489  0.00  0.00    -0.333 NA
ATOM     24  N   UNL     1      39.847 -26.572 -13.231  0.00  0.00    -0.262 NA
ATOM     25  C   UNL     1      36.972 -24.577 -14.302  0.00  0.00    +0.033 C 
ATOM     26  C   UNL     1      36.367 -23.695 -15.094  0.00  0.00    +0.092 C 
ATOM     27  C   UNL     1      35.952 -24.981 -13.322  0.00  0.00    +0.142 C 
ATOM     28  C   UNL     1      38.253 -25.145 -14.217  0.00  0.00    +0.114 C 
ATOM     29  C   UNL     1      34.969 -23.570 -14.581  0.00  0.00    +0.202 C 
ATOM     30  C   UNL     1      38.571 -26.070 -13.236  0.00  0.00    +0.069 C 
ATOM     31  C   UNL     1      36.333 -25.976 -12.284  0.00  0.00    +0.034 C 
ATOM     32  C   UNL     1      37.587 -26.471 -12.277  0.00  0.00    +0.018 C 
ATOM     33  C   UNL     1      40.501 -26.014 -14.228  0.00  0.00    +0.183 C 
ENDBRANCH  20  26
ENDBRANCH  18  20
ENDBRANCH   1  18
TORSDOF 5
ENDMDL
MODEL 5
REMARK VINA RESULT:     -11.0      2.874      3.343
REMARK  Name = 1712
REMARK  5 active torsions:
REMARK  status: ('A' for Active; 'I' for Inactive)
REMARK    1  A    between atoms: C_1  and  N_18
REMARK    2  A    between atoms: C_2  and  S_7
REMARK    3  A    between atoms: S_7  and  N_10
REMARK    4  A    between atoms: N_18  and  C_20
REMARK    5  A    between atoms: C_20  and  C_26
REMARK                            x       y       z     vdW  Elec       q    Type
REMARK                         _______ _______ _______ _____ _____    ______ ____
ROOT
ATOM      1  C   UNL     1      34.638 -21.052 -20.024  0.00  0.00    +0.045 C 
ATOM      2  C   UNL     1      34.702 -22.632 -17.696  0.00  0.00    +0.125 C 
ATOM      3  C   UNL     1      33.449 -21.531 -19.445  0.00  0.00    +0.016 C 
ATOM      4  C   UNL     1      35.860 -21.384 -19.411  0.00  0.00    +0.016 C 
ATOM      5  C   UNL     1      33.480 -22.313 -18.291  0.00  0.00    +0.021 C 
ATOM      6  C   UNL     1      35.891 -22.167 -18.257  0.00  0.00    +0.021 C 
ENDROOT
BRANCH   2   7
ATOM      7  S   UNL     1      34.741 -23.612 -16.253  0.00  0.00    +0.075 S 
ATOM      8  O   UNL     1      34.121 -24.894 -16.568  0.00  0.00    -0.150 OA
ATOM      9  O   UNL     1      34.211 -22.830 -15.143  0.00  0.00    -0.150 OA
BRANCH   7  10
ATOM     10  N   UNL     1      36.428 -23.878 -16.017  0.00  0.00    -0.199 N 
ATOM     11  H   UNL     1      37.088 -23.539 -16.664  0.00  0.00    +0.175 HD
ATOM     12  N   UNL     1      36.493 -25.909 -14.820  0.00  0.00    -0.228 NA
ATOM     13  C   UNL     1      36.840 -24.608 -14.849  0.00  0.00    +0.147 C 
ATOM     14  C   UNL     1      37.546 -23.958 -13.855  0.00  0.00    +0.036 C 
ATOM     15  C   UNL     1      37.925 -24.703 -12.745  0.00  0.00    +0.005 C 
ATOM     16  C   UNL     1      36.878 -26.601 -13.725  0.00  0.00    +0.100 C 
ATOM     17  C   UNL     1      37.589 -26.050 -12.671  0.00  0.00    +0.021 C 
ENDBRANCH   7  10
ENDBRANCH   2   7
BRANCH   1  18
ATOM     18  N   UNL     1      34.607 -20.273 -21.171  0.00  0.00    -0.328 N 
ATOM     19  H   UNL     1      34.087 -20.601 -21.941  0.00  0.00    +0.147 HD
BRANCH  18  20
ATOM     20  C   UNL     1      35.293 -19.012 -21.303  0.00  0.00    +0.127 C 
BRANCH  20  26
ATOM     21  S   UNL     1      34.514 -15.543 -20.688  0.00  0.00    -0.104 S 
ATOM     22  O   UNL     1      35.269 -20.406 -23.892  0.00  0.00    -0.210 OA
ATOM     23  N   UNL     1      34.628 -18.423 -24.931  0.00  0.00    -0.333 NA
ATOM     24  N   UNL     1      33.811 -13.658 -22.326  0.00  0.00    -0.262 NA
ATOM     25  C   UNL     1      34.595 -17.172 -22.981  0.00  0.00    +0.033 C 
ATOM     26  C   UNL     1      34.954 -18.399 -22.609  0.00  0.00    +0.092 C 
ATOM     27  C   UNL     1      34.406 -17.249 -24.438  0.00  0.00    +0.142 C 
ATOM     28  C   UNL     1      34.381 -15.945 -22.336  0.00  0.00    +0.114 C 
ATOM     29  C   UNL     1      34.979 -19.218 -23.859  0.00  0.00    +0.202 C 
ATOM     30  C   UNL     1      33.998 -14.814 -23.040  0.00  0.00    +0.069 C 
ATOM     31  C   UNL     1      33.996 -16.013 -25.157  0.00  0.00    +0.034 C 
ATOM     32  C   UNL     1      33.811 -14.875 -24.457  0.00  0.00    +0.018 C 
ATOM     33  C   UNL     1      34.057 -13.926 -21.060  0.00  0.00    +0.183 C 
ENDBRANCH  20  26
ENDBRANCH  18  20
ENDBRANCH   1  18
TORSDOF 5
ENDMDL
MODEL 6
REMARK VINA RESULT:     -11.0      2.525     10.531
REMARK  Name = 1712
REMARK  5 active torsions:
REMARK  status: ('A' for Active; 'I' for Inactive)
REMARK    1  A    between atoms: C_1  and  N_18
REMARK    2  A    between atoms: C_2  and  S_7
REMARK    3  A    between atoms: S_7  and  N_10
REMARK    4  A    between atoms: N_18  and  C_20
REMARK    5  A    between atoms: C_20  and  C_26
REMARK                            x       y       z     vdW  Elec       q    Type
REMARK                         _______ _______ _______ _____ _____    ______ ____
ROOT
ATOM      1  C   UNL     1      35.082 -22.219 -18.643  0.00  0.00    +0.045 C 
ATOM      2  C   UNL     1      35.390 -20.199 -20.577  0.00  0.00    +0.125 C 
ATOM      3  C   UNL     1      33.964 -21.676 -19.303  0.00  0.00    +0.016 C 
ATOM      4  C   UNL     1      36.357 -21.726 -18.974  0.00  0.00    +0.016 C 
ATOM      5  C   UNL     1      34.117 -20.675 -20.262  0.00  0.00    +0.021 C 
ATOM      6  C   UNL     1      36.510 -20.725 -19.933  0.00  0.00    +0.021 C 
ENDROOT
BRANCH   2   7
ATOM      7  S   UNL     1      35.581 -18.946 -21.777  0.00  0.00    +0.075 S 
ATOM      8  O   UNL     1      35.407 -19.556 -23.090  0.00  0.00    -0.150 OA
ATOM      9  O   UNL     1      36.812 -18.217 -21.498  0.00  0.00    -0.150 OA
BRANCH   7  10
ATOM     10  N   UNL     1      34.226 -17.923 -21.480  0.00  0.00    -0.199 N 
ATOM     11  H   UNL     1      33.401 -18.280 -21.078  0.00  0.00    +0.175 HD
ATOM     12  N   UNL     1      34.415 -16.274 -23.155  0.00  0.00    -0.228 NA
ATOM     13  C   UNL     1      34.336 -16.534 -21.836  0.00  0.00    +0.147 C 
ATOM     14  C   UNL     1      34.354 -15.576 -20.841  0.00  0.00    +0.036 C 
ATOM     15  C   UNL     1      34.461 -14.246 -21.232  0.00  0.00    +0.005 C 
ATOM     16  C   UNL     1      34.519 -14.970 -23.497  0.00  0.00    +0.100 C 
ATOM     17  C   UNL     1      34.545 -13.929 -22.583  0.00  0.00    +0.021 C 
ENDBRANCH   7  10
ENDBRANCH   2   7
BRANCH   1  18
ATOM     18  N   UNL     1      34.930 -23.215 -17.690  0.00  0.00    -0.328 N 
ATOM     19  H   UNL     1      35.671 -23.371 -17.060  0.00  0.00    +0.147 HD
BRANCH  18  20
ATOM     20  C   UNL     1      33.752 -24.037 -17.569  0.00  0.00    +0.127 C 
BRANCH  20  26
ATOM     21  S   UNL     1      36.071 -25.304 -15.112  0.00  0.00    -0.104 S 
ATOM     22  O   UNL     1      31.126 -22.815 -17.068  0.00  0.00    -0.210 OA
ATOM     23  N   UNL     1      31.446 -23.111 -14.780  0.00  0.00    -0.333 NA
ATOM     24  N   UNL     1      35.905 -25.388 -12.525  0.00  0.00    -0.262 NA
ATOM     25  C   UNL     1      33.533 -24.096 -14.993  0.00  0.00    +0.033 C 
ATOM     26  C   UNL     1      33.138 -23.829 -16.236  0.00  0.00    +0.092 C 
ATOM     27  C   UNL     1      32.437 -23.626 -14.130  0.00  0.00    +0.142 C 
ATOM     28  C   UNL     1      34.663 -24.674 -14.395  0.00  0.00    +0.114 C 
ATOM     29  C   UNL     1      31.791 -23.192 -16.114  0.00  0.00    +0.202 C 
ATOM     30  C   UNL     1      34.765 -24.810 -13.020  0.00  0.00    +0.069 C 
ATOM     31  C   UNL     1      32.585 -23.790 -12.659  0.00  0.00    +0.034 C 
ATOM     32  C   UNL     1      33.706 -24.358 -12.170  0.00  0.00    +0.018 C 
ATOM     33  C   UNL     1      36.676 -25.694 -13.548  0.00  0.00    +0.183 C 
ENDBRANCH  20  26
ENDBRANCH  18  20
ENDBRANCH   1  18
TORSDOF 5
ENDMDL
MODEL 7
REMARK VINA RESULT:     -10.9      5.973     12.600
REMARK  Name = 1712
REMARK  5 active torsions:
REMARK  status: ('A' for Active; 'I' for Inactive)
REMARK    1  A    between atoms: C_1  and  N_18
REMARK    2  A    between atoms: C_2  and  S_7
REMARK    3  A    between atoms: S_7  and  N_10
REMARK    4  A    between atoms: N_18  and  C_20
REMARK    5  A    between atoms: C_20  and  C_26
REMARK                            x       y       z     vdW  Elec       q    Type
REMARK                         _______ _______ _______ _____ _____    ______ ____
ROOT
ATOM      1  C   UNL     1      32.657 -12.053 -22.369  0.00  0.00    +0.045 C 
ATOM      2  C   UNL     1      32.053  -9.323 -22.048  0.00  0.00    +0.125 C 
ATOM      3  C   UNL     1      31.753 -11.626 -21.379  0.00  0.00    +0.016 C 
ATOM      4  C   UNL     1      33.252 -11.081 -23.194  0.00  0.00    +0.016 C 
ATOM      5  C   UNL     1      31.454 -10.273 -21.220  0.00  0.00    +0.021 C 
ATOM      6  C   UNL     1      32.953  -9.728 -23.035  0.00  0.00    +0.021 C 
ENDROOT
BRANCH   2   7
ATOM      7  S   UNL     1      31.679  -7.630 -21.849  0.00  0.00    +0.075 S 
ATOM      8  O   UNL     1      31.564  -7.365 -20.419  0.00  0.00    -0.150 OA
ATOM      9  O   UNL     1      30.558  -7.294 -22.718  0.00  0.00    -0.150 OA
BRANCH   7  10
ATOM     10  N   UNL     1      33.107  -6.853 -22.423  0.00  0.00    -0.199 N 
ATOM     11  H   UNL     1      33.977  -7.010 -21.992  0.00  0.00    +0.175 HD
ATOM     12  N   UNL     1      32.295  -4.835 -23.335  0.00  0.00    -0.228 NA
ATOM     13  C   UNL     1      32.988  -5.970 -23.552  0.00  0.00    +0.147 C 
ATOM     14  C   UNL     1      33.571  -6.320 -24.754  0.00  0.00    +0.036 C 
ATOM     15  C   UNL     1      33.432  -5.435 -25.817  0.00  0.00    +0.005 C 
ATOM     16  C   UNL     1      32.179  -4.000 -24.393  0.00  0.00    +0.100 C 
ATOM     17  C   UNL     1      32.724  -4.251 -25.641  0.00  0.00    +0.021 C 
ENDBRANCH   7  10
ENDBRANCH   2   7
BRANCH   1  18
ATOM     18  N   UNL     1      32.954 -13.398 -22.528  0.00  0.00    -0.328 N 
ATOM     19  H   UNL     1      32.225 -14.051 -22.417  0.00  0.00    +0.147 HD
BRANCH  18  20
ATOM     20  C   UNL     1      34.270 -13.897 -22.843  0.00  0.00    +0.127 C 
BRANCH  20  26
ATOM     21  S   UNL     1      35.221 -16.877 -21.044  0.00  0.00    -0.104 S 
ATOM     22  O   UNL     1      33.420 -13.713 -25.651  0.00  0.00    -0.210 OA
ATOM     23  N   UNL     1      33.681 -16.018 -25.861  0.00  0.00    -0.333 NA
ATOM     24  N   UNL     1      35.339 -19.349 -21.822  0.00  0.00    -0.262 NA
ATOM     25  C   UNL     1      34.371 -16.344 -23.673  0.00  0.00    +0.033 C 
ATOM     26  C   UNL     1      34.154 -15.036 -23.785  0.00  0.00    +0.092 C 
ATOM     27  C   UNL     1      34.060 -16.903 -24.999  0.00  0.00    +0.142 C 
ATOM     28  C   UNL     1      34.793 -17.214 -22.656  0.00  0.00    +0.114 C 
ATOM     29  C   UNL     1      33.708 -14.810 -25.194  0.00  0.00    +0.202 C 
ATOM     30  C   UNL     1      34.920 -18.576 -22.874  0.00  0.00    +0.069 C 
ATOM     31  C   UNL     1      34.209 -18.370 -25.192  0.00  0.00    +0.034 C 
ATOM     32  C   UNL     1      34.621 -19.132 -24.159  0.00  0.00    +0.018 C 
ATOM     33  C   UNL     1      35.532 -18.551 -20.792  0.00  0.00    +0.183 C 
ENDBRANCH  20  26
ENDBRANCH  18  20
ENDBRANCH   1  18
TORSDOF 5
ENDMDL
MODEL 8
REMARK VINA RESULT:     -10.9      2.093     10.238
REMARK  Name = 1712
REMARK  5 active torsions:
REMARK  status: ('A' for Active; 'I' for Inactive)
REMARK    1  A    between atoms: C_1  and  N_18
REMARK    2  A    between atoms: C_2  and  S_7
REMARK    3  A    between atoms: S_7  and  N_10
REMARK    4  A    between atoms: N_18  and  C_20
REMARK    5  A    between atoms: C_20  and  C_26
REMARK                            x       y       z     vdW  Elec       q    Type
REMARK                         _______ _______ _______ _____ _____    ______ ____
ROOT
ATOM      1  C   UNL     1      35.162 -22.192 -18.631  0.00  0.00    +0.045 C 
ATOM      2  C   UNL     1      35.418 -20.197 -20.599  0.00  0.00    +0.125 C 
ATOM      3  C   UNL     1      36.425 -21.679 -18.977  0.00  0.00    +0.016 C 
ATOM      4  C   UNL     1      34.030 -21.683 -19.294  0.00  0.00    +0.016 C 
ATOM      5  C   UNL     1      36.552 -20.690 -19.953  0.00  0.00    +0.021 C 
ATOM      6  C   UNL     1      34.157 -20.694 -20.269  0.00  0.00    +0.021 C 
ENDROOT
BRANCH   2   7
ATOM      7  S   UNL     1      35.577 -18.961 -21.820  0.00  0.00    +0.075 S 
ATOM      8  O   UNL     1      35.368 -19.589 -23.120  0.00  0.00    -0.150 OA
ATOM      9  O   UNL     1      36.816 -18.229 -21.585  0.00  0.00    -0.150 OA
BRANCH   7  10
ATOM     10  N   UNL     1      34.231 -17.933 -21.501  0.00  0.00    -0.199 N 
ATOM     11  H   UNL     1      33.414 -18.285 -21.081  0.00  0.00    +0.175 HD
ATOM     12  N   UNL     1      34.391 -16.292 -23.188  0.00  0.00    -0.228 NA
ATOM     13  C   UNL     1      34.337 -16.546 -21.867  0.00  0.00    +0.147 C 
ATOM     14  C   UNL     1      34.378 -15.583 -20.877  0.00  0.00    +0.036 C 
ATOM     15  C   UNL     1      34.480 -14.256 -21.276  0.00  0.00    +0.005 C 
ATOM     16  C   UNL     1      34.491 -14.990 -23.538  0.00  0.00    +0.100 C 
ATOM     17  C   UNL     1      34.539 -13.945 -22.630  0.00  0.00    +0.021 C 
ENDBRANCH   7  10
ENDBRANCH   2   7
BRANCH   1  18
ATOM     18  N   UNL     1      35.035 -23.174 -17.660  0.00  0.00    -0.328 N 
ATOM     19  H   UNL     1      35.824 -23.390 -17.112  0.00  0.00    +0.147 HD
BRANCH  18  20
ATOM     20  C   UNL     1      33.815 -23.899 -17.408  0.00  0.00    +0.127 C 
BRANCH  20  26
ATOM     21  S   UNL     1      30.357 -23.107 -16.750  0.00  0.00    -0.104 S 
ATOM     22  O   UNL     1      35.870 -24.648 -15.443  0.00  0.00    -0.210 OA
ATOM     23  N   UNL     1      34.289 -24.455 -13.744  0.00  0.00    -0.333 NA
ATOM     24  N   UNL     1      29.038 -23.043 -14.516  0.00  0.00    -0.262 NA
ATOM     25  C   UNL     1      32.551 -23.851 -15.152  0.00  0.00    +0.033 C 
ATOM     26  C   UNL     1      33.606 -24.021 -15.945  0.00  0.00    +0.092 C 
ATOM     27  C   UNL     1      33.038 -24.135 -13.793  0.00  0.00    +0.142 C 
ATOM     28  C   UNL     1      31.205 -23.492 -15.326  0.00  0.00    +0.114 C 
ATOM     29  C   UNL     1      34.737 -24.411 -15.049  0.00  0.00    +0.202 C 
ATOM     30  C   UNL     1      30.335 -23.401 -14.251  0.00  0.00    +0.069 C 
ATOM     31  C   UNL     1      32.072 -24.027 -12.666  0.00  0.00    +0.034 C 
ATOM     32  C   UNL     1      30.797 -23.675 -12.924  0.00  0.00    +0.018 C 
ATOM     33  C   UNL     1      28.932 -22.860 -15.816  0.00  0.00    +0.183 C 
ENDBRANCH  20  26
ENDBRANCH  18  20
ENDBRANCH   1  18
TORSDOF 5
ENDMDL
MODEL 9
REMARK VINA RESULT:     -10.8      3.442     11.033
REMARK  Name = 1712
REMARK  5 active torsions:
REMARK  status: ('A' for Active; 'I' for Inactive)
REMARK    1  A    between atoms: C_1  and  N_18
REMARK    2  A    between atoms: C_2  and  S_7
REMARK    3  A    between atoms: S_7  and  N_10
REMARK    4  A    between atoms: N_18  and  C_20
REMARK    5  A    between atoms: C_20  and  C_26
REMARK                            x       y       z     vdW  Elec       q    Type
REMARK                         _______ _______ _______ _____ _____    ______ ____
ROOT
ATOM      1  C   UNL     1      34.709 -22.499 -18.368  0.00  0.00    +0.045 C 
ATOM      2  C   UNL     1      35.231 -20.474 -20.251  0.00  0.00    +0.125 C 
ATOM      3  C   UNL     1      36.026 -22.079 -18.629  0.00  0.00    +0.016 C 
ATOM      4  C   UNL     1      33.660 -21.882 -19.073  0.00  0.00    +0.016 C 
ATOM      5  C   UNL     1      36.285 -21.075 -19.562  0.00  0.00    +0.021 C 
ATOM      6  C   UNL     1      33.919 -20.878 -20.006  0.00  0.00    +0.021 C 
ENDROOT
BRANCH   2   7
ATOM      7  S   UNL     1      35.555 -19.219 -21.419  0.00  0.00    +0.075 S 
ATOM      8  O   UNL     1      35.523 -19.825 -22.745  0.00  0.00    -0.150 OA
ATOM      9  O   UNL     1      36.751 -18.494 -21.007  0.00  0.00    -0.150 OA
BRANCH   7  10
ATOM     10  N   UNL     1      34.179 -18.192 -21.268  0.00  0.00    -0.199 N 
ATOM     11  H   UNL     1      33.313 -18.548 -20.964  0.00  0.00    +0.175 HD
ATOM     12  N   UNL     1      34.560 -16.533 -22.901  0.00  0.00    -0.228 NA
ATOM     13  C   UNL     1      34.333 -16.801 -21.601  0.00  0.00    +0.147 C 
ATOM     14  C   UNL     1      34.242 -15.850 -20.603  0.00  0.00    +0.036 C 
ATOM     15  C   UNL     1      34.397 -14.518 -20.970  0.00  0.00    +0.005 C 
ATOM     16  C   UNL     1      34.706 -15.227 -23.219  0.00  0.00    +0.100 C 
ATOM     17  C   UNL     1      34.633 -14.192 -22.301  0.00  0.00    +0.021 C 
ENDBRANCH   7  10
ENDBRANCH   2   7
BRANCH   1  18
ATOM     18  N   UNL     1      34.452 -23.496 -17.440  0.00  0.00    -0.328 N 
ATOM     19  H   UNL     1      33.543 -23.875 -17.405  0.00  0.00    +0.147 HD
BRANCH  18  20
ATOM     20  C   UNL     1      35.436 -24.010 -16.520  0.00  0.00    +0.127 C 
BRANCH  20  26
ATOM     21  S   UNL     1      38.041 -25.106 -14.278  0.00  0.00    -0.104 S 
ATOM     22  O   UNL     1      32.620 -23.490 -15.852  0.00  0.00    -0.210 OA
ATOM     23  N   UNL     1      33.060 -24.065 -13.638  0.00  0.00    -0.333 NA
ATOM     24  N   UNL     1      37.969 -25.631 -11.738  0.00  0.00    -0.262 NA
ATOM     25  C   UNL     1      35.305 -24.520 -13.988  0.00  0.00    +0.033 C 
ATOM     26  C   UNL     1      34.828 -24.154 -15.175  0.00  0.00    +0.092 C 
ATOM     27  C   UNL     1      34.156 -24.445 -13.070  0.00  0.00    +0.142 C 
ATOM     28  C   UNL     1      36.550 -24.923 -13.481  0.00  0.00    +0.114 C 
ATOM     29  C   UNL     1      33.378 -23.857 -14.965  0.00  0.00    +0.202 C 
ATOM     30  C   UNL     1      36.716 -25.248 -12.144  0.00  0.00    +0.069 C 
ATOM     31  C   UNL     1      34.377 -24.802 -11.643  0.00  0.00    +0.034 C 
ATOM     32  C   UNL     1      35.607 -25.179 -11.241  0.00  0.00    +0.018 C 
ATOM     33  C   UNL     1      38.759 -25.594 -12.790  0.00  0.00    +0.183 C 
ENDBRANCH  20  26
ENDBRANCH  18  20
ENDBRANCH   1  18
TORSDOF 5
ENDMDL
