MODEL 1
REMARK VINA RESULT:     -11.2      0.000      0.000
REMARK  Name = 11998575
REMARK  7 active torsions:
REMARK  status: ('A' for Active; 'I' for Inactive)
REMARK    1  A    between atoms: C_6  and  C_18
REMARK    2  A    between atoms: C_14  and  O_22
REMARK    3  A    between atoms: C_15  and  O_16
REMARK    4  A    between atoms: C_18  and  O_20
REMARK    5  A    between atoms: O_22  and  C_23
REMARK    6  A    between atoms: C_23  and  C_24
REMARK    7  A    between atoms: C_29  and  O_30
REMARK                            x       y       z     vdW  Elec       q    Type
REMARK                         _______ _______ _______ _____ _____    ______ ____
ROOT
ATOM      1  O   UNL     1      37.473 -22.306 -17.270  0.00  0.00    -0.421 OA
ATOM      2  O   UNL     1      38.623 -23.077 -15.459  0.00  0.00    -0.244 OA
ATOM      3  C   UNL     1      35.053 -23.216 -16.124  0.00  0.00    +0.009 A 
ATOM      4  C   UNL     1      35.048 -22.550 -17.432  0.00  0.00    +0.038 A 
ATOM      5  C   UNL     1      36.272 -23.398 -15.447  0.00  0.00    +0.076 A 
ATOM      6  C   UNL     1      35.151 -24.491 -13.597  0.00  0.00    +0.004 C 
ATOM      7  C   UNL     1      36.261 -22.113 -17.968  0.00  0.00    +0.152 A 
ATOM      8  C   UNL     1      36.319 -24.030 -14.194  0.00  0.00    +0.004 C 
ATOM      9  C   UNL     1      33.887 -23.694 -15.495  0.00  0.00    +0.000 C 
ATOM     10  C   UNL     1      33.899 -22.311 -18.203  0.00  0.00    +0.043 C 
ATOM     11  C   UNL     1      33.936 -24.324 -14.247  0.00  0.00    -0.002 C 
ATOM     12  C   UNL     1      37.551 -22.929 -16.031  0.00  0.00    +0.346 A 
ATOM     13  C   UNL     1      36.360 -21.471 -19.205  0.00  0.00    +0.078 C 
ATOM     14  C   UNL     1      35.205 -21.249 -19.946  0.00  0.00    +0.176 C 
ATOM     15  C   UNL     1      33.976 -21.669 -19.447  0.00  0.00    +0.173 C 
ENDROOT
BRANCH  15  16
ATOM     16  O   UNL     1      32.834 -21.460 -20.161  0.00  0.00    -0.468 OA
ATOM     17  C   UNL     1      32.320 -20.130 -20.184  0.00  0.00    +0.253 C 
ENDBRANCH  15  16
BRANCH   6  18
ATOM     18  C   UNL     1      35.203 -25.164 -12.268  0.00  0.00    +0.133 C 
ATOM     19  C   UNL     1      36.584 -25.747 -11.952  0.00  0.00    +0.037 C 
BRANCH  18  20
ATOM     20  O   UNL     1      34.855 -24.234 -11.234  0.00  0.00    -0.380 OA
ATOM     21  H   UNL     1      34.735 -24.711 -10.398  0.00  0.00    +0.211 HD
ENDBRANCH  18  20
ENDBRANCH   6  18
BRANCH  14  22
ATOM     22  O   UNL     1      35.290 -20.625 -21.153  0.00  0.00    -0.467 OA
BRANCH  22  23
ATOM     23  C   UNL     1      35.794 -19.290 -21.160  0.00  0.00    +0.232 C 
BRANCH  23  24
ATOM     24  C   UNL     1      35.309 -18.590 -22.396  0.00  0.00    +0.021 C 
ATOM     25  C   UNL     1      34.792 -19.334 -23.450  0.00  0.00    +0.002 C 
ATOM     26  C   UNL     1      35.385 -17.203 -22.476  0.00  0.00    +0.002 C 
ATOM     27  C   UNL     1      34.342 -18.683 -24.599  0.00  0.00    +0.037 C 
ATOM     28  C   UNL     1      34.935 -16.553 -23.624  0.00  0.00    +0.037 C 
ATOM     29  C   UNL     1      34.414 -17.292 -24.686  0.00  0.00    +0.139 C 
BRANCH  29  30
ATOM     30  O   UNL     1      33.974 -16.658 -25.807  0.00  0.00    -0.471 OA
ATOM     31  C   UNL     1      33.451 -15.341 -25.645  0.00  0.00    +0.252 C 
ENDBRANCH  29  30
ENDBRANCH  23  24
ENDBRANCH  22  23
ENDBRANCH  14  22
TORSDOF 7
ENDMDL
MODEL 2
REMARK VINA RESULT:     -11.0      2.906      9.023
REMARK  Name = 11998575
REMARK  7 active torsions:
REMARK  status: ('A' for Active; 'I' for Inactive)
REMARK    1  A    between atoms: C_6  and  C_18
REMARK    2  A    between atoms: C_14  and  O_22
REMARK    3  A    between atoms: C_15  and  O_16
REMARK    4  A    between atoms: C_18  and  O_20
REMARK    5  A    between atoms: O_22  and  C_23
REMARK    6  A    between atoms: C_23  and  C_24
REMARK    7  A    between atoms: C_29  and  O_30
REMARK                            x       y       z     vdW  Elec       q    Type
REMARK                         _______ _______ _______ _____ _____    ______ ____
ROOT
ATOM      1  O   UNL     1      32.789 -22.395 -18.598  0.00  0.00    -0.421 OA
ATOM      2  O   UNL     1      32.297 -21.194 -20.473  0.00  0.00    -0.244 OA
ATOM      3  C   UNL     1      35.498 -21.611 -18.803  0.00  0.00    +0.009 A 
ATOM      4  C   UNL     1      35.061 -22.485 -17.707  0.00  0.00    +0.038 A 
ATOM      5  C   UNL     1      34.558 -21.169 -19.749  0.00  0.00    +0.076 A 
ATOM      6  C   UNL     1      36.258 -19.925 -20.947  0.00  0.00    +0.004 C 
ATOM      7  C   UNL     1      33.716 -22.852 -17.637  0.00  0.00    +0.152 A 
ATOM      8  C   UNL     1      34.935 -20.332 -20.812  0.00  0.00    +0.004 C 
ATOM      9  C   UNL     1      36.830 -21.182 -18.966  0.00  0.00    +0.000 C 
ATOM     10  C   UNL     1      35.903 -22.992 -16.704  0.00  0.00    +0.043 C 
ATOM     11  C   UNL     1      37.205 -20.350 -20.025  0.00  0.00    -0.002 C 
ATOM     12  C   UNL     1      33.133 -21.569 -19.659  0.00  0.00    +0.346 A 
ATOM     13  C   UNL     1      33.204 -23.679 -16.633  0.00  0.00    +0.078 C 
ATOM     14  C   UNL     1      34.062 -24.166 -15.655  0.00  0.00    +0.176 C 
ATOM     15  C   UNL     1      35.410 -23.823 -15.689  0.00  0.00    +0.173 C 
ENDROOT
BRANCH  15  16
ATOM     16  O   UNL     1      36.265 -24.293 -14.737  0.00  0.00    -0.468 OA
ATOM     17  C   UNL     1      36.539 -23.433 -13.634  0.00  0.00    +0.253 C 
ENDBRANCH  15  16
BRANCH   6  18
ATOM     18  C   UNL     1      36.658 -19.038 -22.076  0.00  0.00    +0.133 C 
ATOM     19  C   UNL     1      35.771 -17.794 -22.196  0.00  0.00    +0.037 C 
BRANCH  18  20
ATOM     20  O   UNL     1      38.016 -18.613 -21.909  0.00  0.00    -0.380 OA
ATOM     21  H   UNL     1      38.494 -19.266 -21.374  0.00  0.00    +0.211 HD
ENDBRANCH  18  20
ENDBRANCH   6  18
BRANCH  14  22
ATOM     22  O   UNL     1      33.574 -24.974 -14.673  0.00  0.00    -0.467 OA
BRANCH  22  23
ATOM     23  C   UNL     1      32.777 -24.359 -13.663  0.00  0.00    +0.232 C 
BRANCH  23  24
ATOM     24  C   UNL     1      31.374 -24.203 -14.174  0.00  0.00    +0.021 C 
ATOM     25  C   UNL     1      30.838 -22.931 -14.337  0.00  0.00    +0.002 C 
ATOM     26  C   UNL     1      30.622 -25.333 -14.477  0.00  0.00    +0.002 C 
ATOM     27  C   UNL     1      29.534 -22.786 -14.812  0.00  0.00    +0.037 C 
ATOM     28  C   UNL     1      29.319 -25.188 -14.951  0.00  0.00    +0.037 C 
ATOM     29  C   UNL     1      28.775 -23.915 -15.119  0.00  0.00    +0.139 C 
BRANCH  29  30
ATOM     30  O   UNL     1      27.503 -23.773 -15.582  0.00  0.00    -0.471 OA
ATOM     31  C   UNL     1      27.270 -22.740 -16.537  0.00  0.00    +0.252 C 
ENDBRANCH  29  30
ENDBRANCH  23  24
ENDBRANCH  22  23
ENDBRANCH  14  22
TORSDOF 7
ENDMDL
MODEL 3
REMARK VINA RESULT:     -10.6      4.752     11.535
REMARK  Name = 11998575
REMARK  7 active torsions:
REMARK  status: ('A' for Active; 'I' for Inactive)
REMARK    1  A    between atoms: C_6  and  C_18
REMARK    2  A    between atoms: C_14  and  O_22
REMARK    3  A    between atoms: C_15  and  O_16
REMARK    4  A    between atoms: C_18  and  O_20
REMARK    5  A    between atoms: O_22  and  C_23
REMARK    6  A    between atoms: C_23  and  C_24
REMARK    7  A    between atoms: C_29  and  O_30
REMARK                            x       y       z     vdW  Elec       q    Type
REMARK                         _______ _______ _______ _____ _____    ______ ____
ROOT
ATOM      1  O   UNL     1      32.486 -13.812 -19.767  0.00  0.00    -0.421 OA
ATOM      2  O   UNL     1      31.238 -12.080 -18.966  0.00  0.00    -0.244 OA
ATOM      3  C   UNL     1      33.009 -12.345 -22.128  0.00  0.00    +0.009 A 
ATOM      4  C   UNL     1      33.566 -13.693 -21.955  0.00  0.00    +0.038 A 
ATOM      5  C   UNL     1      32.214 -11.791 -21.110  0.00  0.00    +0.076 A 
ATOM      6  C   UNL     1      31.898  -9.753 -22.382  0.00  0.00    +0.004 C 
ATOM      7  C   UNL     1      33.287 -14.388 -20.777  0.00  0.00    +0.152 A 
ATOM      8  C   UNL     1      31.664 -10.505 -21.236  0.00  0.00    +0.004 C 
ATOM      9  C   UNL     1      33.229 -11.560 -23.276  0.00  0.00    +0.000 C 
ATOM     10  C   UNL     1      34.372 -14.353 -22.897  0.00  0.00    +0.043 C 
ATOM     11  C   UNL     1      32.680 -10.280 -23.402  0.00  0.00    -0.002 C 
ATOM     12  C   UNL     1      31.928 -12.544 -19.865  0.00  0.00    +0.346 A 
ATOM     13  C   UNL     1      33.769 -15.675 -20.520  0.00  0.00    +0.078 C 
ATOM     14  C   UNL     1      34.563 -16.302 -21.471  0.00  0.00    +0.176 C 
ATOM     15  C   UNL     1      34.865 -15.643 -22.659  0.00  0.00    +0.173 C 
ENDROOT
BRANCH  15  16
ATOM     16  O   UNL     1      35.642 -16.245 -23.603  0.00  0.00    -0.468 OA
ATOM     17  C   UNL     1      35.000 -16.642 -24.812  0.00  0.00    +0.253 C 
ENDBRANCH  15  16
BRANCH   6  18
ATOM     18  C   UNL     1      31.313  -8.389 -22.517  0.00  0.00    +0.133 C 
ATOM     19  C   UNL     1      31.543  -7.520 -21.276  0.00  0.00    +0.037 C 
BRANCH  18  20
ATOM     20  O   UNL     1      31.880  -7.721 -23.650  0.00  0.00    -0.380 OA
ATOM     21  H   UNL     1      31.384  -7.963 -24.448  0.00  0.00    +0.211 HD
ENDBRANCH  18  20
ENDBRANCH   6  18
BRANCH  14  22
ATOM     22  O   UNL     1      35.037 -17.556 -21.232  0.00  0.00    -0.467 OA
BRANCH  22  23
ATOM     23  C   UNL     1      34.305 -18.645 -21.794  0.00  0.00    +0.232 C 
BRANCH  23  24
ATOM     24  C   UNL     1      34.376 -19.816 -20.858  0.00  0.00    +0.021 C 
ATOM     25  C   UNL     1      35.612 -20.350 -20.516  0.00  0.00    +0.002 C 
ATOM     26  C   UNL     1      33.202 -20.358 -20.344  0.00  0.00    +0.002 C 
ATOM     27  C   UNL     1      35.678 -21.440 -19.647  0.00  0.00    +0.037 C 
ATOM     28  C   UNL     1      33.268 -21.447 -19.475  0.00  0.00    +0.037 C 
ATOM     29  C   UNL     1      34.505 -21.988 -19.127  0.00  0.00    +0.139 C 
BRANCH  29  30
ATOM     30  O   UNL     1      34.569 -23.050 -18.278  0.00  0.00    -0.471 OA
ATOM     31  C   UNL     1      33.412 -23.324 -17.491  0.00  0.00    +0.252 C 
ENDBRANCH  29  30
ENDBRANCH  23  24
ENDBRANCH  22  23
ENDBRANCH  14  22
TORSDOF 7
ENDMDL
MODEL 4
REMARK VINA RESULT:     -10.1      1.516      2.277
REMARK  Name = 11998575
REMARK  7 active torsions:
REMARK  status: ('A' for Active; 'I' for Inactive)
REMARK    1  A    between atoms: C_6  and  C_18
REMARK    2  A    between atoms: C_14  and  O_22
REMARK    3  A    between atoms: C_15  and  O_16
REMARK    4  A    between atoms: C_18  and  O_20
REMARK    5  A    between atoms: O_22  and  C_23
REMARK    6  A    between atoms: C_23  and  C_24
REMARK    7  A    between atoms: C_29  and  O_30
REMARK                            x       y       z     vdW  Elec       q    Type
REMARK                         _______ _______ _______ _____ _____    ______ ____
ROOT
ATOM      1  O   UNL     1      36.152 -22.960 -16.804  0.00  0.00    -0.421 OA
ATOM      2  O   UNL     1      36.265 -24.075 -14.818  0.00  0.00    -0.244 OA
ATOM      3  C   UNL     1      33.328 -23.060 -16.702  0.00  0.00    +0.009 A 
ATOM      4  C   UNL     1      34.005 -22.415 -17.833  0.00  0.00    +0.038 A 
ATOM      5  C   UNL     1      34.095 -23.628 -15.671  0.00  0.00    +0.076 A 
ATOM      6  C   UNL     1      32.100 -24.324 -14.486  0.00  0.00    +0.004 C 
ATOM      7  C   UNL     1      35.401 -22.383 -17.850  0.00  0.00    +0.152 A 
ATOM      8  C   UNL     1      33.486 -24.255 -14.572  0.00  0.00    +0.004 C 
ATOM      9  C   UNL     1      31.926 -23.146 -16.587  0.00  0.00    +0.000 C 
ATOM     10  C   UNL     1      33.350 -21.814 -18.921  0.00  0.00    +0.043 C 
ATOM     11  C   UNL     1      31.320 -23.771 -15.493  0.00  0.00    -0.002 C 
ATOM     12  C   UNL     1      35.577 -23.587 -15.706  0.00  0.00    +0.346 A 
ATOM     13  C   UNL     1      36.137 -21.794 -18.882  0.00  0.00    +0.078 C 
ATOM     14  C   UNL     1      35.461 -21.208 -19.946  0.00  0.00    +0.176 C 
ATOM     15  C   UNL     1      34.069 -21.218 -19.966  0.00  0.00    +0.173 C 
ENDROOT
BRANCH  15  16
ATOM     16  O   UNL     1      33.391 -20.648 -21.002  0.00  0.00    -0.468 OA
ATOM     17  C   UNL     1      32.205 -19.927 -20.679  0.00  0.00    +0.253 C 
ENDBRANCH  15  16
BRANCH   6  18
ATOM     18  C   UNL     1      31.453 -24.991 -13.319  0.00  0.00    +0.133 C 
ATOM     19  C   UNL     1      30.223 -25.815 -13.715  0.00  0.00    +0.037 C 
BRANCH  18  20
ATOM     20  O   UNL     1      32.390 -25.857 -12.667  0.00  0.00    -0.380 OA
ATOM     21  H   UNL     1      33.254 -25.418 -12.618  0.00  0.00    +0.211 HD
ENDBRANCH  18  20
ENDBRANCH   6  18
BRANCH  14  22
ATOM     22  O   UNL     1      36.167 -20.632 -20.957  0.00  0.00    -0.467 OA
BRANCH  22  23
ATOM     23  C   UNL     1      36.328 -19.215 -20.911  0.00  0.00    +0.232 C 
BRANCH  23  24
ATOM     24  C   UNL     1      35.718 -18.613 -22.143  0.00  0.00    +0.021 C 
ATOM     25  C   UNL     1      35.601 -17.233 -22.250  0.00  0.00    +0.002 C 
ATOM     26  C   UNL     1      35.273 -19.444 -23.167  0.00  0.00    +0.002 C 
ATOM     27  C   UNL     1      35.034 -16.674 -23.396  0.00  0.00    +0.037 C 
ATOM     28  C   UNL     1      34.706 -18.886 -24.312  0.00  0.00    +0.037 C 
ATOM     29  C   UNL     1      34.586 -17.501 -24.426  0.00  0.00    +0.139 C 
BRANCH  29  30
ATOM     30  O   UNL     1      34.033 -16.956 -25.544  0.00  0.00    -0.471 OA
ATOM     31  C   UNL     1      33.620 -15.593 -25.466  0.00  0.00    +0.252 C 
ENDBRANCH  29  30
ENDBRANCH  23  24
ENDBRANCH  22  23
ENDBRANCH  14  22
TORSDOF 7
ENDMDL
MODEL 5
REMARK VINA RESULT:     -10.1      5.307     11.904
REMARK  Name = 11998575
REMARK  7 active torsions:
REMARK  status: ('A' for Active; 'I' for Inactive)
REMARK    1  A    between atoms: C_6  and  C_18
REMARK    2  A    between atoms: C_14  and  O_22
REMARK    3  A    between atoms: C_15  and  O_16
REMARK    4  A    between atoms: C_18  and  O_20
REMARK    5  A    between atoms: O_22  and  C_23
REMARK    6  A    between atoms: C_23  and  C_24
REMARK    7  A    between atoms: C_29  and  O_30
REMARK                            x       y       z     vdW  Elec       q    Type
REMARK                         _______ _______ _______ _____ _____    ______ ____
ROOT
ATOM      1  O   UNL     1      32.206 -13.222 -19.944  0.00  0.00    -0.421 OA
ATOM      2  O   UNL     1      31.230 -11.549 -18.741  0.00  0.00    -0.244 OA
ATOM      3  C   UNL     1      32.610 -11.439 -22.102  0.00  0.00    +0.009 A 
ATOM      4  C   UNL     1      33.047 -12.838 -22.205  0.00  0.00    +0.038 A 
ATOM      5  C   UNL     1      31.990 -10.996 -20.921  0.00  0.00    +0.076 A 
ATOM      6  C   UNL     1      31.739  -8.760 -21.821  0.00  0.00    +0.004 C 
ATOM      7  C   UNL     1      32.831 -13.690 -21.120  0.00  0.00    +0.152 A 
ATOM      8  C   UNL     1      31.559  -9.666 -20.783  0.00  0.00    +0.004 C 
ATOM      9  C   UNL     1      32.780 -10.499 -23.136  0.00  0.00    +0.000 C 
ATOM     10  C   UNL     1      33.675 -13.399 -23.328  0.00  0.00    +0.043 C 
ATOM     11  C   UNL     1      32.349  -9.175 -22.998  0.00  0.00    -0.002 C 
ATOM     12  C   UNL     1      31.769 -11.915 -19.779  0.00  0.00    +0.346 A 
ATOM     13  C   UNL     1      33.209 -15.035 -21.122  0.00  0.00    +0.078 C 
ATOM     14  C   UNL     1      33.829 -15.562 -22.248  0.00  0.00    +0.176 C 
ATOM     15  C   UNL     1      34.062 -14.746 -23.351  0.00  0.00    +0.173 C 
ENDROOT
BRANCH  15  16
ATOM     16  O   UNL     1      34.668 -15.247 -24.464  0.00  0.00    -0.468 OA
ATOM     17  C   UNL     1      33.818 -15.691 -25.519  0.00  0.00    +0.253 C 
ENDBRANCH  15  16
BRANCH   6  18
ATOM     18  C   UNL     1      31.280  -7.349 -21.674  0.00  0.00    +0.133 C 
ATOM     19  C   UNL     1      32.395  -6.408 -21.207  0.00  0.00    +0.037 C 
BRANCH  18  20
ATOM     20  O   UNL     1      30.772  -6.866 -22.924  0.00  0.00    -0.380 OA
ATOM     21  H   UNL     1      31.379  -6.201 -23.283  0.00  0.00    +0.211 HD
ENDBRANCH  18  20
ENDBRANCH   6  18
BRANCH  14  22
ATOM     22  O   UNL     1      34.200 -16.872 -22.262  0.00  0.00    -0.467 OA
BRANCH  22  23
ATOM     23  C   UNL     1      35.544 -17.170 -21.885  0.00  0.00    +0.232 C 
BRANCH  23  24
ATOM     24  C   UNL     1      35.582 -18.524 -21.239  0.00  0.00    +0.021 C 
ATOM     25  C   UNL     1      34.397 -19.216 -21.021  0.00  0.00    +0.002 C 
ATOM     26  C   UNL     1      36.804 -19.073 -20.863  0.00  0.00    +0.002 C 
ATOM     27  C   UNL     1      34.433 -20.476 -20.420  0.00  0.00    +0.037 C 
ATOM     28  C   UNL     1      36.840 -20.331 -20.262  0.00  0.00    +0.037 C 
ATOM     29  C   UNL     1      35.655 -21.032 -20.040  0.00  0.00    +0.139 C 
BRANCH  29  30
ATOM     30  O   UNL     1      35.690 -22.260 -19.455  0.00  0.00    -0.471 OA
ATOM     31  C   UNL     1      34.528 -22.671 -18.737  0.00  0.00    +0.252 C 
ENDBRANCH  29  30
ENDBRANCH  23  24
ENDBRANCH  22  23
ENDBRANCH  14  22
TORSDOF 7
ENDMDL
MODEL 6
REMARK VINA RESULT:     -10.0      1.769      3.028
REMARK  Name = 11998575
REMARK  7 active torsions:
REMARK  status: ('A' for Active; 'I' for Inactive)
REMARK    1  A    between atoms: C_6  and  C_18
REMARK    2  A    between atoms: C_14  and  O_22
REMARK    3  A    between atoms: C_15  and  O_16
REMARK    4  A    between atoms: C_18  and  O_20
REMARK    5  A    between atoms: O_22  and  C_23
REMARK    6  A    between atoms: C_23  and  C_24
REMARK    7  A    between atoms: C_29  and  O_30
REMARK                            x       y       z     vdW  Elec       q    Type
REMARK                         _______ _______ _______ _____ _____    ______ ____
ROOT
ATOM      1  O   UNL     1      32.820 -22.608 -18.224  0.00  0.00    -0.421 OA
ATOM      2  O   UNL     1      32.070 -23.883 -16.489  0.00  0.00    -0.244 OA
ATOM      3  C   UNL     1      35.443 -22.716 -17.172  0.00  0.00    +0.009 A 
ATOM      4  C   UNL     1      35.172 -21.978 -18.413  0.00  0.00    +0.038 A 
ATOM      5  C   UNL     1      34.387 -23.367 -16.512  0.00  0.00    +0.076 A 
ATOM      6  C   UNL     1      35.879 -24.159 -14.776  0.00  0.00    +0.004 C 
ATOM      7  C   UNL     1      33.865 -21.947 -18.903  0.00  0.00    +0.152 A 
ATOM      8  C   UNL     1      34.604 -24.083 -15.324  0.00  0.00    +0.004 C 
ATOM      9  C   UNL     1      36.723 -22.810 -16.593  0.00  0.00    +0.000 C 
ATOM     10  C   UNL     1      36.141 -21.289 -19.161  0.00  0.00    +0.043 C 
ATOM     11  C   UNL     1      36.939 -23.523 -15.409  0.00  0.00    -0.002 C 
ATOM     12  C   UNL     1      33.004 -23.322 -17.047  0.00  0.00    +0.346 A 
ATOM     13  C   UNL     1      33.508 -21.272 -20.074  0.00  0.00    +0.078 C 
ATOM     14  C   UNL     1      34.487 -20.598 -20.792  0.00  0.00    +0.176 C 
ATOM     15  C   UNL     1      35.803 -20.605 -20.337  0.00  0.00    +0.173 C 
ENDROOT
BRANCH  15  16
ATOM     16  O   UNL     1      36.776 -19.949 -21.030  0.00  0.00    -0.468 OA
ATOM     17  C   UNL     1      37.545 -18.987 -20.311  0.00  0.00    +0.253 C 
ENDBRANCH  15  16
BRANCH   6  18
ATOM     18  C   UNL     1      36.109 -24.918 -13.513  0.00  0.00    +0.133 C 
ATOM     19  C   UNL     1      35.058 -24.614 -12.440  0.00  0.00    +0.037 C 
BRANCH  18  20
ATOM     20  O   UNL     1      36.095 -26.326 -13.778  0.00  0.00    -0.380 OA
ATOM     21  H   UNL     1      35.214 -26.586 -14.090  0.00  0.00    +0.211 HD
ENDBRANCH  18  20
ENDBRANCH   6  18
BRANCH  14  22
ATOM     22  O   UNL     1      34.150 -19.936 -21.933  0.00  0.00    -0.467 OA
BRANCH  22  23
ATOM     23  C   UNL     1      35.221 -19.461 -22.749  0.00  0.00    +0.232 C 
BRANCH  23  24
ATOM     24  C   UNL     1      34.923 -18.053 -23.175  0.00  0.00    +0.021 C 
ATOM     25  C   UNL     1      35.025 -17.018 -22.253  0.00  0.00    +0.002 C 
ATOM     26  C   UNL     1      34.547 -17.797 -24.490  0.00  0.00    +0.002 C 
ATOM     27  C   UNL     1      34.748 -15.709 -22.649  0.00  0.00    +0.037 C 
ATOM     28  C   UNL     1      34.270 -16.489 -24.886  0.00  0.00    +0.037 C 
ATOM     29  C   UNL     1      34.371 -15.445 -23.966  0.00  0.00    +0.139 C 
BRANCH  29  30
ATOM     30  O   UNL     1      34.101 -14.168 -24.353  0.00  0.00    -0.471 OA
ATOM     31  C   UNL     1      34.056 -13.175 -23.330  0.00  0.00    +0.252 C 
ENDBRANCH  29  30
ENDBRANCH  23  24
ENDBRANCH  22  23
ENDBRANCH  14  22
TORSDOF 7
ENDMDL
MODEL 7
REMARK VINA RESULT:      -9.8      6.866     11.506
REMARK  Name = 11998575
REMARK  7 active torsions:
REMARK  status: ('A' for Active; 'I' for Inactive)
REMARK    1  A    between atoms: C_6  and  C_18
REMARK    2  A    between atoms: C_14  and  O_22
REMARK    3  A    between atoms: C_15  and  O_16
REMARK    4  A    between atoms: C_18  and  O_20
REMARK    5  A    between atoms: O_22  and  C_23
REMARK    6  A    between atoms: C_23  and  C_24
REMARK    7  A    between atoms: C_29  and  O_30
REMARK                            x       y       z     vdW  Elec       q    Type
REMARK                         _______ _______ _______ _____ _____    ______ ____
ROOT
ATOM      1  O   UNL     1      32.275 -13.399 -20.594  0.00  0.00    -0.421 OA
ATOM      2  O   UNL     1      32.087 -15.224 -19.240  0.00  0.00    -0.244 OA
ATOM      3  C   UNL     1      34.083 -14.810 -22.249  0.00  0.00    +0.009 A 
ATOM      4  C   UNL     1      33.713 -13.425 -22.568  0.00  0.00    +0.038 A 
ATOM      5  C   UNL     1      33.530 -15.427 -21.114  0.00  0.00    +0.076 A 
ATOM      6  C   UNL     1      34.742 -17.477 -21.563  0.00  0.00    +0.004 C 
ATOM      7  C   UNL     1      32.818 -12.759 -21.728  0.00  0.00    +0.152 A 
ATOM      8  C   UNL     1      33.856 -16.750 -20.774  0.00  0.00    +0.004 C 
ATOM      9  C   UNL     1      34.976 -15.571 -23.028  0.00  0.00    +0.000 C 
ATOM     10  C   UNL     1      34.198 -12.702 -23.670  0.00  0.00    +0.043 C 
ATOM     11  C   UNL     1      35.301 -16.888 -22.689  0.00  0.00    -0.002 C 
ATOM     12  C   UNL     1      32.581 -14.704 -20.233  0.00  0.00    +0.346 A 
ATOM     13  C   UNL     1      32.407 -11.441 -21.947  0.00  0.00    +0.078 C 
ATOM     14  C   UNL     1      32.904 -10.751 -23.045  0.00  0.00    +0.176 C 
ATOM     15  C   UNL     1      33.798 -11.379 -23.906  0.00  0.00    +0.173 C 
ENDROOT
BRANCH  15  16
ATOM     16  O   UNL     1      34.295 -10.716 -24.988  0.00  0.00    -0.468 OA
ATOM     17  C   UNL     1      35.635 -10.238 -24.894  0.00  0.00    +0.253 C 
ENDBRANCH  15  16
BRANCH   6  18
ATOM     18  C   UNL     1      35.090 -18.881 -21.202  0.00  0.00    +0.133 C 
ATOM     19  C   UNL     1      35.094 -19.821 -22.412  0.00  0.00    +0.037 C 
BRANCH  18  20
ATOM     20  O   UNL     1      36.384 -18.923 -20.589  0.00  0.00    -0.380 OA
ATOM     21  H   UNL     1      36.376 -18.385 -19.782  0.00  0.00    +0.211 HD
ENDBRANCH  18  20
ENDBRANCH   6  18
BRANCH  14  22
ATOM     22  O   UNL     1      32.511  -9.466 -23.267  0.00  0.00    -0.467 OA
BRANCH  22  23
ATOM     23  C   UNL     1      33.188  -8.445 -22.535  0.00  0.00    +0.232 C 
BRANCH  23  24
ATOM     24  C   UNL     1      32.373  -7.186 -22.584  0.00  0.00    +0.021 C 
ATOM     25  C   UNL     1      31.284  -7.037 -21.733  0.00  0.00    +0.002 C 
ATOM     26  C   UNL     1      32.714  -6.179 -23.482  0.00  0.00    +0.002 C 
ATOM     27  C   UNL     1      30.526  -5.866 -21.779  0.00  0.00    +0.037 C 
ATOM     28  C   UNL     1      31.956  -5.009 -23.528  0.00  0.00    +0.037 C 
ATOM     29  C   UNL     1      30.862  -4.853 -22.677  0.00  0.00    +0.139 C 
BRANCH  29  30
ATOM     30  O   UNL     1      30.123  -3.711 -22.721  0.00  0.00    -0.471 OA
ATOM     31  C   UNL     1      30.791  -2.520 -23.132  0.00  0.00    +0.252 C 
ENDBRANCH  29  30
ENDBRANCH  23  24
ENDBRANCH  22  23
ENDBRANCH  14  22
TORSDOF 7
ENDMDL
MODEL 8
REMARK VINA RESULT:      -9.8      6.074     12.939
REMARK  Name = 11998575
REMARK  7 active torsions:
REMARK  status: ('A' for Active; 'I' for Inactive)
REMARK    1  A    between atoms: C_6  and  C_18
REMARK    2  A    between atoms: C_14  and  O_22
REMARK    3  A    between atoms: C_15  and  O_16
REMARK    4  A    between atoms: C_18  and  O_20
REMARK    5  A    between atoms: O_22  and  C_23
REMARK    6  A    between atoms: C_23  and  C_24
REMARK    7  A    between atoms: C_29  and  O_30
REMARK                            x       y       z     vdW  Elec       q    Type
REMARK                         _______ _______ _______ _____ _____    ______ ____
ROOT
ATOM      1  O   UNL     1      31.964 -11.792 -20.717  0.00  0.00    -0.421 OA
ATOM      2  O   UNL     1      31.176 -10.229 -19.256  0.00  0.00    -0.244 OA
ATOM      3  C   UNL     1      32.625  -9.745 -22.554  0.00  0.00    +0.009 A 
ATOM      4  C   UNL     1      32.890 -11.151 -22.885  0.00  0.00    +0.038 A 
ATOM      5  C   UNL     1      32.040  -9.426 -21.316  0.00  0.00    +0.076 A 
ATOM      6  C   UNL     1      32.081  -7.060 -21.837  0.00  0.00    +0.004 C 
ATOM      7  C   UNL     1      32.551 -12.135 -21.954  0.00  0.00    +0.152 A 
ATOM      8  C   UNL     1      31.771  -8.094 -20.961  0.00  0.00    +0.004 C 
ATOM      9  C   UNL     1      32.928  -8.676 -23.420  0.00  0.00    +0.000 C 
ATOM     10  C   UNL     1      33.467 -11.594 -24.086  0.00  0.00    +0.043 C 
ATOM     11  C   UNL     1      32.659  -7.350 -23.066  0.00  0.00    -0.002 C 
ATOM     12  C   UNL     1      31.686 -10.485 -20.340  0.00  0.00    +0.346 A 
ATOM     13  C   UNL     1      32.762 -13.499 -22.177  0.00  0.00    +0.078 C 
ATOM     14  C   UNL     1      33.335 -13.907 -23.375  0.00  0.00    +0.176 C 
ATOM     15  C   UNL     1      33.687 -12.957 -24.329  0.00  0.00    +0.173 C 
ENDROOT
BRANCH  15  16
ATOM     16  O   UNL     1      34.250 -13.341 -25.510  0.00  0.00    -0.468 OA
ATOM     17  C   UNL     1      33.373 -13.504 -26.621  0.00  0.00    +0.253 C 
ENDBRANCH  15  16
BRANCH   6  18
ATOM     18  C   UNL     1      31.794  -5.647 -21.460  0.00  0.00    +0.133 C 
ATOM     19  C   UNL     1      31.708  -4.716 -22.674  0.00  0.00    +0.037 C 
BRANCH  18  20
ATOM     20  O   UNL     1      30.557  -5.572 -20.742  0.00  0.00    -0.380 OA
ATOM     21  H   UNL     1      30.561  -6.225 -20.024  0.00  0.00    +0.211 HD
ENDBRANCH  18  20
ENDBRANCH   6  18
BRANCH  14  22
ATOM     22  O   UNL     1      33.544 -15.233 -23.604  0.00  0.00    -0.467 OA
BRANCH  22  23
ATOM     23  C   UNL     1      34.897 -15.688 -23.595  0.00  0.00    +0.232 C 
BRANCH  23  24
ATOM     24  C   UNL     1      34.961 -17.016 -22.900  0.00  0.00    +0.021 C 
ATOM     25  C   UNL     1      34.953 -18.187 -23.649  0.00  0.00    +0.002 C 
ATOM     26  C   UNL     1      35.027 -17.063 -21.510  0.00  0.00    +0.002 C 
ATOM     27  C   UNL     1      35.013 -19.422 -23.002  0.00  0.00    +0.037 C 
ATOM     28  C   UNL     1      35.087 -18.298 -20.864  0.00  0.00    +0.037 C 
ATOM     29  C   UNL     1      35.080 -19.476 -21.610  0.00  0.00    +0.139 C 
BRANCH  29  30
ATOM     30  O   UNL     1      35.139 -20.681 -20.979  0.00  0.00    -0.471 OA
ATOM     31  C   UNL     1      34.153 -20.941 -19.981  0.00  0.00    +0.252 C 
ENDBRANCH  29  30
ENDBRANCH  23  24
ENDBRANCH  22  23
ENDBRANCH  14  22
TORSDOF 7
ENDMDL
MODEL 9
REMARK VINA RESULT:      -9.5      2.217      3.906
REMARK  Name = 11998575
REMARK  7 active torsions:
REMARK  status: ('A' for Active; 'I' for Inactive)
REMARK    1  A    between atoms: C_6  and  C_18
REMARK    2  A    between atoms: C_14  and  O_22
REMARK    3  A    between atoms: C_15  and  O_16
REMARK    4  A    between atoms: C_18  and  O_20
REMARK    5  A    between atoms: O_22  and  C_23
REMARK    6  A    between atoms: C_23  and  C_24
REMARK    7  A    between atoms: C_29  and  O_30
REMARK                            x       y       z     vdW  Elec       q    Type
REMARK                         _______ _______ _______ _____ _____    ______ ____
ROOT
ATOM      1  O   UNL     1      33.031 -21.671 -19.335  0.00  0.00    -0.421 OA
ATOM      2  O   UNL     1      32.184 -22.951 -17.650  0.00  0.00    -0.244 OA
ATOM      3  C   UNL     1      35.624 -21.941 -18.239  0.00  0.00    +0.009 A 
ATOM      4  C   UNL     1      35.416 -21.158 -19.464  0.00  0.00    +0.038 A 
ATOM      5  C   UNL     1      34.524 -22.555 -17.617  0.00  0.00    +0.076 A 
ATOM      6  C   UNL     1      35.940 -23.469 -15.877  0.00  0.00    +0.004 C 
ATOM      7  C   UNL     1      34.122 -21.046 -19.977  0.00  0.00    +0.152 A 
ATOM      8  C   UNL     1      34.681 -23.313 -16.446  0.00  0.00    +0.004 C 
ATOM      9  C   UNL     1      36.887 -22.118 -17.640  0.00  0.00    +0.000 C 
ATOM     10  C   UNL     1      36.433 -20.499 -20.175  0.00  0.00    +0.043 C 
ATOM     11  C   UNL     1      37.042 -22.872 -16.473  0.00  0.00    -0.002 C 
ATOM     12  C   UNL     1      33.156 -22.424 -18.176  0.00  0.00    +0.346 A 
ATOM     13  C   UNL     1      33.822 -20.322 -21.134  0.00  0.00    +0.078 C 
ATOM     14  C   UNL     1      34.849 -19.680 -21.815  0.00  0.00    +0.176 C 
ATOM     15  C   UNL     1      36.153 -19.768 -21.337  0.00  0.00    +0.173 C 
ENDROOT
BRANCH  15  16
ATOM     16  O   UNL     1      37.171 -19.144 -21.994  0.00  0.00    -0.468 OA
ATOM     17  C   UNL     1      38.229 -18.618 -21.196  0.00  0.00    +0.253 C 
ENDBRANCH  15  16
BRANCH   6  18
ATOM     18  C   UNL     1      36.106 -24.273 -14.632  0.00  0.00    +0.133 C 
ATOM     19  C   UNL     1      37.559 -24.691 -14.386  0.00  0.00    +0.037 C 
BRANCH  18  20
ATOM     20  O   UNL     1      35.651 -23.522 -13.499  0.00  0.00    -0.380 OA
ATOM     21  H   UNL     1      36.414 -23.248 -12.967  0.00  0.00    +0.211 HD
ENDBRANCH  18  20
ENDBRANCH   6  18
BRANCH  14  22
ATOM     22  O   UNL     1      34.568 -18.971 -22.943  0.00  0.00    -0.467 OA
BRANCH  22  23
ATOM     23  C   UNL     1      35.354 -17.806 -23.190  0.00  0.00    +0.232 C 
BRANCH  23  24
ATOM     24  C   UNL     1      34.708 -16.629 -22.520  0.00  0.00    +0.021 C 
ATOM     25  C   UNL     1      34.169 -15.608 -23.293  0.00  0.00    +0.002 C 
ATOM     26  C   UNL     1      34.657 -16.570 -21.131  0.00  0.00    +0.002 C 
ATOM     27  C   UNL     1      33.568 -14.513 -22.670  0.00  0.00    +0.037 C 
ATOM     28  C   UNL     1      34.058 -15.476 -20.508  0.00  0.00    +0.037 C 
ATOM     29  C   UNL     1      33.513 -14.447 -21.277  0.00  0.00    +0.139 C 
BRANCH  29  30
ATOM     30  O   UNL     1      32.928 -13.380 -20.670  0.00  0.00    -0.471 OA
ATOM     31  C   UNL     1      31.934 -12.674 -21.411  0.00  0.00    +0.252 C 
ENDBRANCH  29  30
ENDBRANCH  23  24
ENDBRANCH  22  23
ENDBRANCH  14  22
TORSDOF 7
ENDMDL
