MODEL 1
REMARK VINA RESULT:     -11.5      0.000      0.000
REMARK  Name = 5289109
REMARK  6 active torsions:
REMARK  status: ('A' for Active; 'I' for Inactive)
REMARK    1  A    between atoms: C_3  and  C_9
REMARK    2  A    between atoms: C_4  and  C_21
REMARK    3  A    between atoms: N_8  and  C_11
REMARK    4  A    between atoms: C_11  and  C_12
REMARK    5  A    between atoms: N_20  and  C_23
REMARK    6  A    between atoms: C_23  and  C_24
REMARK                            x       y       z     vdW  Elec       q    Type
REMARK                         _______ _______ _______ _____ _____    ______ ____
ROOT
ATOM      1  N   UNL     1      34.456 -15.764 -23.418  0.00  0.00    -0.244 NA
ATOM      2  N   UNL     1      33.094 -13.786 -23.228  0.00  0.00    -0.244 NA
ATOM      3  C   UNL     1      34.338 -15.928 -22.084  0.00  0.00    +0.115 C 
ATOM      4  C   UNL     1      33.035 -14.032 -21.917  0.00  0.00    +0.115 C 
ATOM      5  C   UNL     1      33.625 -15.074 -21.266  0.00  0.00    +0.100 C 
ATOM      6  C   UNL     1      33.817 -14.688 -23.916  0.00  0.00    +0.250 C 
ENDROOT
BRANCH   3   9
ATOM      7  O   UNL     1      35.321 -17.118 -20.319  0.00  0.00    -0.269 OA
ATOM      8  N   UNL     1      35.292 -18.144 -22.398  0.00  0.00    -0.296 N 
ATOM      9  C   UNL     1      35.020 -17.083 -21.525  0.00  0.00    +0.260 C 
ATOM     10  H   UNL     1      35.028 -18.051 -23.342  0.00  0.00    +0.150 HD
BRANCH   8  11
ATOM     11  C   UNL     1      35.942 -19.369 -21.990  0.00  0.00    +0.117 C 
BRANCH  11  12
ATOM     12  C   UNL     1      35.100 -20.157 -21.028  0.00  0.00    -0.003 C 
ATOM     13  C   UNL     1      35.715 -20.946 -20.064  0.00  0.00    -0.007 C 
ATOM     14  C   UNL     1      34.933 -21.677 -19.169  0.00  0.00    -0.022 C 
ATOM     15  C   UNL     1      33.714 -20.089 -21.111  0.00  0.00    -0.003 C 
ATOM     16  C   UNL     1      33.542 -21.614 -19.245  0.00  0.00    -0.004 C 
ATOM     17  C   UNL     1      32.932 -20.819 -20.217  0.00  0.00    -0.001 C 
ATOM     18  C   UNL     1      35.585 -22.528 -18.131  0.00  0.00    +0.031 C 
ENDBRANCH  11  12
ENDBRANCH   8  11
ENDBRANCH   3   9
BRANCH   4  21
ATOM     19  O   UNL     1      31.946 -13.301 -19.973  0.00  0.00    -0.269 OA
ATOM     20  N   UNL     1      31.906 -11.875 -21.802  0.00  0.00    -0.296 N 
ATOM     21  C   UNL     1      32.241 -13.047 -21.139  0.00  0.00    +0.260 C 
ATOM     22  H   UNL     1      32.189 -11.764 -22.739  0.00  0.00    +0.150 HD
BRANCH  20  23
ATOM     23  C   UNL     1      31.161 -10.814 -21.174  0.00  0.00    +0.117 C 
BRANCH  23  24
ATOM     24  C   UNL     1      31.914  -9.526 -21.155  0.00  0.00    -0.003 C 
ATOM     25  C   UNL     1      32.350  -8.958 -22.352  0.00  0.00    -0.007 C 
ATOM     26  C   UNL     1      33.055  -7.752 -22.335  0.00  0.00    -0.022 C 
ATOM     27  C   UNL     1      32.181  -8.891 -19.943  0.00  0.00    -0.003 C 
ATOM     28  C   UNL     1      33.321  -7.118 -21.122  0.00  0.00    -0.004 C 
ATOM     29  C   UNL     1      32.884  -7.686 -19.926  0.00  0.00    -0.001 C 
ATOM     30  C   UNL     1      33.522  -7.144 -23.614  0.00  0.00    +0.031 C 
ENDBRANCH  23  24
ENDBRANCH  20  23
ENDBRANCH   4  21
TORSDOF 6
ENDMDL
MODEL 2
REMARK VINA RESULT:     -11.5      0.236     10.237
REMARK  Name = 5289109
REMARK  6 active torsions:
REMARK  status: ('A' for Active; 'I' for Inactive)
REMARK    1  A    between atoms: C_3  and  C_9
REMARK    2  A    between atoms: C_4  and  C_21
REMARK    3  A    between atoms: N_8  and  C_11
REMARK    4  A    between atoms: C_11  and  C_12
REMARK    5  A    between atoms: N_20  and  C_23
REMARK    6  A    between atoms: C_23  and  C_24
REMARK                            x       y       z     vdW  Elec       q    Type
REMARK                         _______ _______ _______ _____ _____    ______ ____
ROOT
ATOM      1  N   UNL     1      33.088 -13.906 -23.301  0.00  0.00    -0.244 NA
ATOM      2  N   UNL     1      34.431 -15.900 -23.455  0.00  0.00    -0.244 NA
ATOM      3  C   UNL     1      33.037 -14.088 -21.965  0.00  0.00    +0.115 C 
ATOM      4  C   UNL     1      34.324 -15.996 -22.128  0.00  0.00    +0.115 C 
ATOM      5  C   UNL     1      33.649 -15.138 -21.310  0.00  0.00    +0.100 C 
ATOM      6  C   UNL     1      33.792 -14.835 -23.974  0.00  0.00    +0.250 C 
ENDROOT
BRANCH   3   9
ATOM      7  O   UNL     1      32.242 -13.134 -19.976  0.00  0.00    -0.269 OA
ATOM      8  N   UNL     1      31.635 -12.099 -21.961  0.00  0.00    -0.296 N 
ATOM      9  C   UNL     1      32.282 -13.095 -21.219  0.00  0.00    +0.260 C 
ATOM     10  H   UNL     1      31.707 -12.127 -22.942  0.00  0.00    +0.150 HD
BRANCH   8  11
ATOM     11  C   UNL     1      30.867 -11.030 -21.364  0.00  0.00    +0.117 C 
BRANCH  11  12
ATOM     12  C   UNL     1      31.676  -9.775 -21.208  0.00  0.00    -0.003 C 
ATOM     13  C   UNL     1      32.138  -9.111 -22.337  0.00  0.00    -0.007 C 
ATOM     14  C   UNL     1      32.888  -7.943 -22.193  0.00  0.00    -0.022 C 
ATOM     15  C   UNL     1      31.954  -9.290 -19.935  0.00  0.00    -0.003 C 
ATOM     16  C   UNL     1      33.172  -7.450 -20.919  0.00  0.00    -0.004 C 
ATOM     17  C   UNL     1      32.704  -8.123 -19.790  0.00  0.00    -0.001 C 
ATOM     18  C   UNL     1      33.389  -7.224 -23.399  0.00  0.00    +0.031 C 
ENDBRANCH  11  12
ENDBRANCH   8  11
ENDBRANCH   3   9
BRANCH   4  21
ATOM     19  O   UNL     1      35.294 -17.156 -20.336  0.00  0.00    -0.269 OA
ATOM     20  N   UNL     1      35.297 -18.213 -22.401  0.00  0.00    -0.296 N 
ATOM     21  C   UNL     1      35.021 -17.165 -21.534  0.00  0.00    +0.260 C 
ATOM     22  H   UNL     1      35.038 -18.126 -23.347  0.00  0.00    +0.150 HD
BRANCH  20  23
ATOM     23  C   UNL     1      35.946 -19.426 -21.970  0.00  0.00    +0.117 C 
BRANCH  23  24
ATOM     24  C   UNL     1      35.120 -20.195 -20.995  0.00  0.00    -0.003 C 
ATOM     25  C   UNL     1      35.741 -20.971 -20.017  0.00  0.00    -0.007 C 
ATOM     26  C   UNL     1      34.968 -21.691 -19.103  0.00  0.00    -0.022 C 
ATOM     27  C   UNL     1      33.728 -20.137 -21.060  0.00  0.00    -0.003 C 
ATOM     28  C   UNL     1      33.577 -21.632 -19.169  0.00  0.00    -0.004 C 
ATOM     29  C   UNL     1      32.956 -20.855 -20.147  0.00  0.00    -0.001 C 
ATOM     30  C   UNL     1      35.631 -22.522 -18.058  0.00  0.00    +0.031 C 
ENDBRANCH  23  24
ENDBRANCH  20  23
ENDBRANCH   4  21
TORSDOF 6
ENDMDL
MODEL 3
REMARK VINA RESULT:     -11.5      1.320      9.925
REMARK  Name = 5289109
REMARK  6 active torsions:
REMARK  status: ('A' for Active; 'I' for Inactive)
REMARK    1  A    between atoms: C_3  and  C_9
REMARK    2  A    between atoms: C_4  and  C_21
REMARK    3  A    between atoms: N_8  and  C_11
REMARK    4  A    between atoms: C_11  and  C_12
REMARK    5  A    between atoms: N_20  and  C_23
REMARK    6  A    between atoms: C_23  and  C_24
REMARK                            x       y       z     vdW  Elec       q    Type
REMARK                         _______ _______ _______ _____ _____    ______ ____
ROOT
ATOM      1  N   UNL     1      32.841 -13.759 -23.739  0.00  0.00    -0.244 NA
ATOM      2  N   UNL     1      34.001 -15.599 -24.774  0.00  0.00    -0.244 NA
ATOM      3  C   UNL     1      33.147 -14.290 -22.537  0.00  0.00    +0.115 C 
ATOM      4  C   UNL     1      34.255 -16.046 -23.543  0.00  0.00    +0.115 C 
ATOM      5  C   UNL     1      33.867 -15.457 -22.376  0.00  0.00    +0.100 C 
ATOM      6  C   UNL     1      33.293 -14.455 -24.800  0.00  0.00    +0.250 C 
ENDROOT
BRANCH   3   9
ATOM      7  O   UNL     1      33.220 -13.689 -20.272  0.00  0.00    -0.269 OA
ATOM      8  N   UNL     1      31.589 -12.685 -21.580  0.00  0.00    -0.296 N 
ATOM      9  C   UNL     1      32.669 -13.554 -21.379  0.00  0.00    +0.260 C 
ATOM     10  H   UNL     1      31.199 -12.626 -22.481  0.00  0.00    +0.150 HD
BRANCH   8  11
ATOM     11  C   UNL     1      31.016 -11.868 -20.534  0.00  0.00    +0.117 C 
BRANCH  11  12
ATOM     12  C   UNL     1      31.440 -10.432 -20.647  0.00  0.00    -0.003 C 
ATOM     13  C   UNL     1      31.455  -9.815 -21.891  0.00  0.00    -0.007 C 
ATOM     14  C   UNL     1      31.847  -8.480 -21.995  0.00  0.00    -0.022 C 
ATOM     15  C   UNL     1      31.814  -9.734 -19.503  0.00  0.00    -0.003 C 
ATOM     16  C   UNL     1      32.224  -7.773 -20.854  0.00  0.00    -0.004 C 
ATOM     17  C   UNL     1      32.207  -8.400 -19.607  0.00  0.00    -0.001 C 
ATOM     18  C   UNL     1      31.867  -7.810 -23.328  0.00  0.00    +0.031 C 
ENDBRANCH  11  12
ENDBRANCH   8  11
ENDBRANCH   3   9
BRANCH   4  21
ATOM     19  O   UNL     1      34.967 -18.095 -24.434  0.00  0.00    -0.269 OA
ATOM     20  N   UNL     1      35.820 -17.494 -22.363  0.00  0.00    -0.296 N 
ATOM     21  C   UNL     1      35.035 -17.309 -23.492  0.00  0.00    +0.260 C 
ATOM     22  H   UNL     1      35.808 -16.805 -21.660  0.00  0.00    +0.150 HD
BRANCH  20  23
ATOM     23  C   UNL     1      36.652 -18.656 -22.179  0.00  0.00    +0.117 C 
BRANCH  23  24
ATOM     24  C   UNL     1      36.069 -19.623 -21.204  0.00  0.00    -0.003 C 
ATOM     25  C   UNL     1      34.685 -19.760 -21.103  0.00  0.00    -0.007 C 
ATOM     26  C   UNL     1      34.138 -20.665 -20.191  0.00  0.00    -0.022 C 
ATOM     27  C   UNL     1      36.907 -20.389 -20.394  0.00  0.00    -0.003 C 
ATOM     28  C   UNL     1      34.977 -21.431 -19.382  0.00  0.00    -0.004 C 
ATOM     29  C   UNL     1      36.361 -21.293 -19.482  0.00  0.00    -0.001 C 
ATOM     30  C   UNL     1      32.658 -20.812 -20.082  0.00  0.00    +0.031 C 
ENDBRANCH  23  24
ENDBRANCH  20  23
ENDBRANCH   4  21
TORSDOF 6
ENDMDL
MODEL 4
REMARK VINA RESULT:     -11.3      1.901      2.214
REMARK  Name = 5289109
REMARK  6 active torsions:
REMARK  status: ('A' for Active; 'I' for Inactive)
REMARK    1  A    between atoms: C_3  and  C_9
REMARK    2  A    between atoms: C_4  and  C_21
REMARK    3  A    between atoms: N_8  and  C_11
REMARK    4  A    between atoms: C_11  and  C_12
REMARK    5  A    between atoms: N_20  and  C_23
REMARK    6  A    between atoms: C_23  and  C_24
REMARK                            x       y       z     vdW  Elec       q    Type
REMARK                         _______ _______ _______ _____ _____    ______ ____
ROOT
ATOM      1  N   UNL     1      33.245 -15.291 -21.530  0.00  0.00    -0.244 NA
ATOM      2  N   UNL     1      32.780 -12.955 -21.896  0.00  0.00    -0.244 NA
ATOM      3  C   UNL     1      34.118 -15.240 -22.557  0.00  0.00    +0.115 C 
ATOM      4  C   UNL     1      33.663 -13.004 -22.896  0.00  0.00    +0.115 C 
ATOM      5  C   UNL     1      34.372 -14.099 -23.292  0.00  0.00    +0.100 C 
ATOM      6  C   UNL     1      32.621 -14.129 -21.258  0.00  0.00    +0.250 C 
ENDROOT
BRANCH   3   9
ATOM      7  O   UNL     1      35.090 -16.771 -24.044  0.00  0.00    -0.269 OA
ATOM      8  N   UNL     1      35.139 -17.311 -21.789  0.00  0.00    -0.296 N 
ATOM      9  C   UNL     1      34.804 -16.483 -22.868  0.00  0.00    +0.260 C 
ATOM     10  H   UNL     1      34.882 -17.024 -20.884  0.00  0.00    +0.150 HD
BRANCH   8  11
ATOM     11  C   UNL     1      35.841 -18.566 -21.933  0.00  0.00    +0.117 C 
BRANCH  11  12
ATOM     12  C   UNL     1      35.279 -19.631 -21.037  0.00  0.00    -0.003 C 
ATOM     13  C   UNL     1      36.133 -20.369 -20.227  0.00  0.00    -0.007 C 
ATOM     14  C   UNL     1      35.611 -21.357 -19.392  0.00  0.00    -0.022 C 
ATOM     15  C   UNL     1      33.909 -19.867 -21.025  0.00  0.00    -0.003 C 
ATOM     16  C   UNL     1      34.237 -21.601 -19.374  0.00  0.00    -0.004 C 
ATOM     17  C   UNL     1      33.386 -20.855 -20.191  0.00  0.00    -0.001 C 
ATOM     18  C   UNL     1      36.520 -22.155 -18.520  0.00  0.00    +0.031 C 
ENDBRANCH  11  12
ENDBRANCH   8  11
ENDBRANCH   3   9
BRANCH   4  21
ATOM     19  O   UNL     1      34.284 -11.732 -24.766  0.00  0.00    -0.269 OA
ATOM     20  N   UNL     1      33.499 -10.572 -22.916  0.00  0.00    -0.296 N 
ATOM     21  C   UNL     1      33.854 -11.718 -23.615  0.00  0.00    +0.260 C 
ATOM     22  H   UNL     1      33.163 -10.665 -21.995  0.00  0.00    +0.150 HD
BRANCH  20  23
ATOM     23  C   UNL     1      33.603  -9.253 -23.487  0.00  0.00    +0.117 C 
BRANCH  23  24
ATOM     24  C   UNL     1      32.983  -8.210 -22.619  0.00  0.00    -0.003 C 
ATOM     25  C   UNL     1      32.653  -6.965 -23.154  0.00  0.00    -0.007 C 
ATOM     26  C   UNL     1      32.072  -5.989 -22.342  0.00  0.00    -0.022 C 
ATOM     27  C   UNL     1      32.734  -8.480 -21.273  0.00  0.00    -0.003 C 
ATOM     28  C   UNL     1      31.823  -6.260 -20.997  0.00  0.00    -0.004 C 
ATOM     29  C   UNL     1      32.153  -7.505 -20.462  0.00  0.00    -0.001 C 
ATOM     30  C   UNL     1      31.719  -4.657 -22.913  0.00  0.00    +0.031 C 
ENDBRANCH  23  24
ENDBRANCH  20  23
ENDBRANCH   4  21
TORSDOF 6
ENDMDL
MODEL 5
REMARK VINA RESULT:     -11.3      2.859     10.639
REMARK  Name = 5289109
REMARK  6 active torsions:
REMARK  status: ('A' for Active; 'I' for Inactive)
REMARK    1  A    between atoms: C_3  and  C_9
REMARK    2  A    between atoms: C_4  and  C_21
REMARK    3  A    between atoms: N_8  and  C_11
REMARK    4  A    between atoms: C_11  and  C_12
REMARK    5  A    between atoms: N_20  and  C_23
REMARK    6  A    between atoms: C_23  and  C_24
REMARK                            x       y       z     vdW  Elec       q    Type
REMARK                         _______ _______ _______ _____ _____    ______ ____
ROOT
ATOM      1  N   UNL     1      36.733 -18.796 -21.075  0.00  0.00    -0.244 NA
ATOM      2  N   UNL     1      36.143 -20.729 -19.762  0.00  0.00    -0.244 NA
ATOM      3  C   UNL     1      35.448 -18.725 -21.479  0.00  0.00    +0.115 C 
ATOM      4  C   UNL     1      34.898 -20.576 -20.217  0.00  0.00    +0.115 C 
ATOM      5  C   UNL     1      34.466 -19.607 -21.074  0.00  0.00    +0.100 C 
ATOM      6  C   UNL     1      37.007 -19.808 -20.229  0.00  0.00    +0.250 C 
ENDROOT
BRANCH   3   9
ATOM      7  O   UNL     1      35.050 -17.847 -23.616  0.00  0.00    -0.269 OA
ATOM      8  N   UNL     1      34.903 -16.379 -21.827  0.00  0.00    -0.296 N 
ATOM      9  C   UNL     1      35.131 -17.640 -22.392  0.00  0.00    +0.260 C 
ATOM     10  H   UNL     1      34.984 -16.284 -20.851  0.00  0.00    +0.150 HD
BRANCH   8  11
ATOM     11  C   UNL     1      34.555 -15.208 -22.600  0.00  0.00    +0.117 C 
BRANCH  11  12
ATOM     12  C   UNL     1      33.571 -14.331 -21.880  0.00  0.00    -0.003 C 
ATOM     13  C   UNL     1      33.258 -13.081 -22.398  0.00  0.00    -0.007 C 
ATOM     14  C   UNL     1      32.342 -12.267 -21.730  0.00  0.00    -0.022 C 
ATOM     15  C   UNL     1      32.984 -14.780 -20.702  0.00  0.00    -0.003 C 
ATOM     16  C   UNL     1      31.749 -12.709 -20.547  0.00  0.00    -0.004 C 
ATOM     17  C   UNL     1      32.070 -13.966 -20.034  0.00  0.00    -0.001 C 
ATOM     18  C   UNL     1      32.000 -10.923 -22.278  0.00  0.00    +0.031 C 
ENDBRANCH  11  12
ENDBRANCH   8  11
ENDBRANCH   3   9
BRANCH   4  21
ATOM     19  O   UNL     1      32.732 -21.434 -19.949  0.00  0.00    -0.269 OA
ATOM     20  N   UNL     1      34.471 -22.656 -19.021  0.00  0.00    -0.296 N 
ATOM     21  C   UNL     1      33.929 -21.583 -19.715  0.00  0.00    +0.260 C 
ATOM     22  H   UNL     1      35.445 -22.686 -18.883  0.00  0.00    +0.150 HD
BRANCH  20  23
ATOM     23  C   UNL     1      33.663 -23.726 -18.493  0.00  0.00    +0.117 C 
BRANCH  23  24
ATOM     24  C   UNL     1      33.414 -23.579 -17.030  0.00  0.00    -0.003 C 
ATOM     25  C   UNL     1      32.109 -23.444 -16.555  0.00  0.00    -0.007 C 
ATOM     26  C   UNL     1      31.875 -23.307 -15.186  0.00  0.00    -0.022 C 
ATOM     27  C   UNL     1      34.484 -23.578 -16.136  0.00  0.00    -0.003 C 
ATOM     28  C   UNL     1      32.946 -23.306 -14.293  0.00  0.00    -0.004 C 
ATOM     29  C   UNL     1      34.251 -23.442 -14.767  0.00  0.00    -0.001 C 
ATOM     30  C   UNL     1      30.481 -23.161 -14.678  0.00  0.00    +0.031 C 
ENDBRANCH  23  24
ENDBRANCH  20  23
ENDBRANCH   4  21
TORSDOF 6
ENDMDL
MODEL 6
REMARK VINA RESULT:     -11.3      1.891     10.795
REMARK  Name = 5289109
REMARK  6 active torsions:
REMARK  status: ('A' for Active; 'I' for Inactive)
REMARK    1  A    between atoms: C_3  and  C_9
REMARK    2  A    between atoms: C_4  and  C_21
REMARK    3  A    between atoms: N_8  and  C_11
REMARK    4  A    between atoms: C_11  and  C_12
REMARK    5  A    between atoms: N_20  and  C_23
REMARK    6  A    between atoms: C_23  and  C_24
REMARK                            x       y       z     vdW  Elec       q    Type
REMARK                         _______ _______ _______ _____ _____    ______ ____
ROOT
ATOM      1  N   UNL     1      32.785 -12.971 -21.846  0.00  0.00    -0.244 NA
ATOM      2  N   UNL     1      33.281 -15.299 -21.477  0.00  0.00    -0.244 NA
ATOM      3  C   UNL     1      33.647 -12.990 -22.885  0.00  0.00    +0.115 C 
ATOM      4  C   UNL     1      34.112 -15.220 -22.519  0.00  0.00    +0.115 C 
ATOM      5  C   UNL     1      34.354 -14.111 -23.274  0.00  0.00    +0.100 C 
ATOM      6  C   UNL     1      32.652 -14.143 -21.197  0.00  0.00    +0.250 C 
ENDROOT
BRANCH   3   9
ATOM      7  O   UNL     1      34.204 -11.724 -24.778  0.00  0.00    -0.269 OA
ATOM      8  N   UNL     1      33.469 -10.564 -22.910  0.00  0.00    -0.296 N 
ATOM      9  C   UNL     1      33.805 -11.736 -23.600  0.00  0.00    +0.260 C 
ATOM     10  H   UNL     1      33.160 -10.643 -21.979  0.00  0.00    +0.150 HD
BRANCH   8  11
ATOM     11  C   UNL     1      33.549  -9.243 -23.492  0.00  0.00    +0.117 C 
BRANCH  11  12
ATOM     12  C   UNL     1      32.971  -8.194 -22.587  0.00  0.00    -0.003 C 
ATOM     13  C   UNL     1      32.621  -6.955 -23.107  0.00  0.00    -0.007 C 
ATOM     14  C   UNL     1      32.081  -5.981 -22.266  0.00  0.00    -0.022 C 
ATOM     15  C   UNL     1      32.792  -8.474 -21.236  0.00  0.00    -0.003 C 
ATOM     16  C   UNL     1      31.898  -6.253 -20.910  0.00  0.00    -0.004 C 
ATOM     17  C   UNL     1      32.253  -7.500 -20.396  0.00  0.00    -0.001 C 
ATOM     18  C   UNL     1      31.703  -4.646 -22.816  0.00  0.00    +0.031 C 
ENDBRANCH  11  12
ENDBRANCH   8  11
ENDBRANCH   3   9
BRANCH   4  21
ATOM     19  O   UNL     1      35.187 -16.687 -23.998  0.00  0.00    -0.269 OA
ATOM     20  N   UNL     1      35.027 -17.355 -21.783  0.00  0.00    -0.296 N 
ATOM     21  C   UNL     1      34.817 -16.486 -22.844  0.00  0.00    +0.260 C 
ATOM     22  H   UNL     1      34.691 -17.105 -20.892  0.00  0.00    +0.150 HD
BRANCH  20  23
ATOM     23  C   UNL     1      35.718 -18.611 -21.934  0.00  0.00    +0.117 C 
BRANCH  23  24
ATOM     24  C   UNL     1      35.186 -19.664 -21.022  0.00  0.00    -0.003 C 
ATOM     25  C   UNL     1      36.060 -20.402 -20.225  0.00  0.00    -0.007 C 
ATOM     26  C   UNL     1      35.563 -21.388 -19.370  0.00  0.00    -0.022 C 
ATOM     27  C   UNL     1      33.814 -19.911 -20.965  0.00  0.00    -0.003 C 
ATOM     28  C   UNL     1      34.191 -21.633 -19.314  0.00  0.00    -0.004 C 
ATOM     29  C   UNL     1      33.316 -20.895 -20.112  0.00  0.00    -0.001 C 
ATOM     30  C   UNL     1      36.497 -22.177 -18.518  0.00  0.00    +0.031 C 
ENDBRANCH  23  24
ENDBRANCH  20  23
ENDBRANCH   4  21
TORSDOF 6
ENDMDL
MODEL 7
REMARK VINA RESULT:     -11.3      2.814      5.583
REMARK  Name = 5289109
REMARK  6 active torsions:
REMARK  status: ('A' for Active; 'I' for Inactive)
REMARK    1  A    between atoms: C_3  and  C_9
REMARK    2  A    between atoms: C_4  and  C_21
REMARK    3  A    between atoms: N_8  and  C_11
REMARK    4  A    between atoms: C_11  and  C_12
REMARK    5  A    between atoms: N_20  and  C_23
REMARK    6  A    between atoms: C_23  and  C_24
REMARK                            x       y       z     vdW  Elec       q    Type
REMARK                         _______ _______ _______ _____ _____    ______ ____
ROOT
ATOM      1  N   UNL     1      36.186 -20.686 -19.873  0.00  0.00    -0.244 NA
ATOM      2  N   UNL     1      36.770 -18.765 -21.204  0.00  0.00    -0.244 NA
ATOM      3  C   UNL     1      34.905 -20.520 -20.263  0.00  0.00    +0.115 C 
ATOM      4  C   UNL     1      35.479 -18.682 -21.533  0.00  0.00    +0.115 C 
ATOM      5  C   UNL     1      34.485 -19.514 -21.109  0.00  0.00    +0.100 C 
ATOM      6  C   UNL     1      37.053 -19.786 -20.375  0.00  0.00    +0.250 C 
ENDROOT
BRANCH   3   9
ATOM      7  O   UNL     1      32.729 -21.298 -19.866  0.00  0.00    -0.269 OA
ATOM      8  N   UNL     1      34.478 -22.613 -19.098  0.00  0.00    -0.296 N 
ATOM      9  C   UNL     1      33.952 -21.481 -19.733  0.00  0.00    +0.260 C 
ATOM     10  H   UNL     1      35.456 -22.696 -19.026  0.00  0.00    +0.150 HD
BRANCH   8  11
ATOM     11  C   UNL     1      33.662 -23.668 -18.541  0.00  0.00    +0.117 C 
BRANCH  11  12
ATOM     12  C   UNL     1      33.510 -23.536 -17.054  0.00  0.00    -0.003 C 
ATOM     13  C   UNL     1      32.240 -23.445 -16.498  0.00  0.00    -0.007 C 
ATOM     14  C   UNL     1      32.098 -23.325 -15.115  0.00  0.00    -0.022 C 
ATOM     15  C   UNL     1      34.642 -23.506 -16.247  0.00  0.00    -0.003 C 
ATOM     16  C   UNL     1      33.229 -23.293 -14.298  0.00  0.00    -0.004 C 
ATOM     17  C   UNL     1      34.501 -23.385 -14.865  0.00  0.00    -0.001 C 
ATOM     18  C   UNL     1      30.739 -23.225 -14.510  0.00  0.00    +0.031 C 
ENDBRANCH  11  12
ENDBRANCH   8  11
ENDBRANCH   3   9
BRANCH   4  21
ATOM     19  O   UNL     1      35.110 -17.765 -23.660  0.00  0.00    -0.269 OA
ATOM     20  N   UNL     1      34.869 -16.343 -21.842  0.00  0.00    -0.296 N 
ATOM     21  C   UNL     1      35.145 -17.561 -22.448  0.00  0.00    +0.260 C 
ATOM     22  H   UNL     1      34.923 -16.280 -20.862  0.00  0.00    +0.150 HD
BRANCH  20  23
ATOM     23  C   UNL     1      34.504 -15.169 -22.593  0.00  0.00    +0.117 C 
BRANCH  23  24
ATOM     24  C   UNL     1      33.537 -14.303 -21.858  0.00  0.00    -0.003 C 
ATOM     25  C   UNL     1      33.225 -13.036 -22.348  0.00  0.00    -0.007 C 
ATOM     26  C   UNL     1      32.319 -12.225 -21.661  0.00  0.00    -0.022 C 
ATOM     27  C   UNL     1      32.944 -14.762 -20.682  0.00  0.00    -0.003 C 
ATOM     28  C   UNL     1      31.727 -12.686 -20.485  0.00  0.00    -0.004 C 
ATOM     29  C   UNL     1      32.039 -13.953 -19.995  0.00  0.00    -0.001 C 
ATOM     30  C   UNL     1      31.985 -10.869 -22.183  0.00  0.00    +0.031 C 
ENDBRANCH  23  24
ENDBRANCH  20  23
ENDBRANCH   4  21
TORSDOF 6
ENDMDL
MODEL 8
REMARK VINA RESULT:     -11.2      1.889     10.688
REMARK  Name = 5289109
REMARK  6 active torsions:
REMARK  status: ('A' for Active; 'I' for Inactive)
REMARK    1  A    between atoms: C_3  and  C_9
REMARK    2  A    between atoms: C_4  and  C_21
REMARK    3  A    between atoms: N_8  and  C_11
REMARK    4  A    between atoms: C_11  and  C_12
REMARK    5  A    between atoms: N_20  and  C_23
REMARK    6  A    between atoms: C_23  and  C_24
REMARK                            x       y       z     vdW  Elec       q    Type
REMARK                         _______ _______ _______ _____ _____    ______ ____
ROOT
ATOM      1  N   UNL     1      32.680 -13.096 -21.410  0.00  0.00    -0.244 NA
ATOM      2  N   UNL     1      33.452 -15.365 -21.170  0.00  0.00    -0.244 NA
ATOM      3  C   UNL     1      33.408 -13.008 -22.543  0.00  0.00    +0.115 C 
ATOM      4  C   UNL     1      34.140 -15.182 -22.299  0.00  0.00    +0.115 C 
ATOM      5  C   UNL     1      34.174 -14.041 -23.045  0.00  0.00    +0.100 C 
ATOM      6  C   UNL     1      32.746 -14.286 -20.784  0.00  0.00    +0.250 C 
ENDROOT
BRANCH   3   9
ATOM      7  O   UNL     1      33.988 -11.553 -24.288  0.00  0.00    -0.269 OA
ATOM      8  N   UNL     1      32.533 -10.741 -22.676  0.00  0.00    -0.296 N 
ATOM      9  C   UNL     1      33.350 -11.732 -23.235  0.00  0.00    +0.260 C 
ATOM     10  H   UNL     1      32.055 -10.948 -21.840  0.00  0.00    +0.150 HD
BRANCH   8  11
ATOM     11  C   UNL     1      32.352  -9.431 -23.258  0.00  0.00    +0.117 C 
BRANCH  11  12
ATOM     12  C   UNL     1      32.210  -8.365 -22.210  0.00  0.00    -0.003 C 
ATOM     13  C   UNL     1      31.324  -7.315 -22.414  0.00  0.00    -0.007 C 
ATOM     14  C   UNL     1      31.190  -6.326 -21.439  0.00  0.00    -0.022 C 
ATOM     15  C   UNL     1      32.968  -8.440 -21.046  0.00  0.00    -0.003 C 
ATOM     16  C   UNL     1      31.946  -6.393 -20.269  0.00  0.00    -0.004 C 
ATOM     17  C   UNL     1      32.835  -7.451 -20.073  0.00  0.00    -0.001 C 
ATOM     18  C   UNL     1      30.241  -5.194 -21.649  0.00  0.00    +0.031 C 
ENDBRANCH  11  12
ENDBRANCH   8  11
ENDBRANCH   3   9
BRANCH   4  21
ATOM     19  O   UNL     1      35.198 -16.489 -23.933  0.00  0.00    -0.269 OA
ATOM     20  N   UNL     1      35.324 -17.238 -21.742  0.00  0.00    -0.296 N 
ATOM     21  C   UNL     1      34.926 -16.361 -22.742  0.00  0.00    +0.260 C 
ATOM     22  H   UNL     1      35.056 -17.049 -20.813  0.00  0.00    +0.150 HD
BRANCH  20  23
ATOM     23  C   UNL     1      36.113 -18.413 -22.009  0.00  0.00    +0.117 C 
BRANCH  23  24
ATOM     24  C   UNL     1      35.809 -19.527 -21.065  0.00  0.00    -0.003 C 
ATOM     25  C   UNL     1      34.485 -19.890 -20.819  0.00  0.00    -0.007 C 
ATOM     26  C   UNL     1      34.200 -20.933 -19.935  0.00  0.00    -0.022 C 
ATOM     27  C   UNL     1      36.848 -20.206 -20.428  0.00  0.00    -0.003 C 
ATOM     28  C   UNL     1      35.239 -21.611 -19.300  0.00  0.00    -0.004 C 
ATOM     29  C   UNL     1      36.563 -21.248 -19.546  0.00  0.00    -0.001 C 
ATOM     30  C   UNL     1      32.784 -21.321 -19.671  0.00  0.00    +0.031 C 
ENDBRANCH  23  24
ENDBRANCH  20  23
ENDBRANCH   4  21
TORSDOF 6
ENDMDL
MODEL 9
REMARK VINA RESULT:     -11.1      1.891      2.617
REMARK  Name = 5289109
REMARK  6 active torsions:
REMARK  status: ('A' for Active; 'I' for Inactive)
REMARK    1  A    between atoms: C_3  and  C_9
REMARK    2  A    between atoms: C_4  and  C_21
REMARK    3  A    between atoms: N_8  and  C_11
REMARK    4  A    between atoms: C_11  and  C_12
REMARK    5  A    between atoms: N_20  and  C_23
REMARK    6  A    between atoms: C_23  and  C_24
REMARK                            x       y       z     vdW  Elec       q    Type
REMARK                         _______ _______ _______ _____ _____    ______ ____
ROOT
ATOM      1  N   UNL     1      34.656 -16.739 -20.335  0.00  0.00    -0.244 NA
ATOM      2  N   UNL     1      33.984 -14.557 -21.105  0.00  0.00    -0.244 NA
ATOM      3  C   UNL     1      34.962 -17.054 -21.611  0.00  0.00    +0.115 C 
ATOM      4  C   UNL     1      34.314 -14.961 -22.333  0.00  0.00    +0.115 C 
ATOM      5  C   UNL     1      34.807 -16.186 -22.673  0.00  0.00    +0.100 C 
ATOM      6  C   UNL     1      34.180 -15.492 -20.157  0.00  0.00    +0.250 C 
ENDROOT
BRANCH   3   9
ATOM      7  O   UNL     1      36.142 -18.662 -22.843  0.00  0.00    -0.269 OA
ATOM      8  N   UNL     1      35.211 -19.346 -20.832  0.00  0.00    -0.296 N 
ATOM      9  C   UNL     1      35.478 -18.395 -21.825  0.00  0.00    +0.260 C 
ATOM     10  H   UNL     1      34.678 -19.068 -20.052  0.00  0.00    +0.150 HD
BRANCH   8  11
ATOM     11  C   UNL     1      35.676 -20.713 -20.889  0.00  0.00    +0.117 C 
BRANCH  11  12
ATOM     12  C   UNL     1      35.420 -21.448 -19.605  0.00  0.00    -0.003 C 
ATOM     13  C   UNL     1      36.451 -21.609 -18.688  0.00  0.00    -0.007 C 
ATOM     14  C   UNL     1      36.212 -22.289 -17.493  0.00  0.00    -0.022 C 
ATOM     15  C   UNL     1      34.153 -21.959 -19.345  0.00  0.00    -0.003 C 
ATOM     16  C   UNL     1      34.944 -22.805 -17.226  0.00  0.00    -0.004 C 
ATOM     17  C   UNL     1      33.914 -22.639 -18.152  0.00  0.00    -0.001 C 
ATOM     18  C   UNL     1      37.314 -22.468 -16.503  0.00  0.00    +0.031 C 
ENDBRANCH  11  12
ENDBRANCH   8  11
ENDBRANCH   3   9
BRANCH   4  21
ATOM     19  O   UNL     1      33.756 -14.308 -24.515  0.00  0.00    -0.269 OA
ATOM     20  N   UNL     1      34.305 -12.623 -23.020  0.00  0.00    -0.296 N 
ATOM     21  C   UNL     1      34.105 -13.944 -23.395  0.00  0.00    +0.260 C 
ATOM     22  H   UNL     1      34.586 -12.431 -22.096  0.00  0.00    +0.150 HD
BRANCH  20  23
ATOM     23  C   UNL     1      34.117 -11.521 -23.930  0.00  0.00    +0.117 C 
BRANCH  23  24
ATOM     24  C   UNL     1      33.417 -10.370 -23.290  0.00  0.00    -0.003 C 
ATOM     25  C   UNL     1      33.881  -9.071 -23.494  0.00  0.00    -0.007 C 
ATOM     26  C   UNL     1      33.226  -7.994 -22.896  0.00  0.00    -0.022 C 
ATOM     27  C   UNL     1      32.298 -10.593 -22.488  0.00  0.00    -0.003 C 
ATOM     28  C   UNL     1      32.107  -8.218 -22.094  0.00  0.00    -0.004 C 
ATOM     29  C   UNL     1      31.642  -9.517 -21.890  0.00  0.00    -0.001 C 
ATOM     30  C   UNL     1      33.722  -6.604 -23.113  0.00  0.00    +0.031 C 
ENDBRANCH  23  24
ENDBRANCH  20  23
ENDBRANCH   4  21
TORSDOF 6
ENDMDL
