MODEL 1
REMARK VINA RESULT:     -13.0      0.000      0.000
REMARK  Name = 4887
REMARK  9 active torsions:
REMARK  status: ('A' for Active; 'I' for Inactive)
REMARK    1  A    between atoms: N_2  and  C_8
REMARK    2  A    between atoms: C_3  and  C_23
REMARK    3  A    between atoms: C_14  and  C_20
REMARK    4  A    between atoms: C_22  and  O_28
REMARK    5  A    between atoms: O_28  and  C_29
REMARK    6  A    between atoms: C_29  and  C_30
REMARK    7  A    between atoms: C_30  and  C_31
REMARK    8  A    between atoms: C_31  and  C_32
REMARK    9  A    between atoms: C_32  and  C_33
REMARK                            x       y       z     vdW  Elec       q    Type
REMARK                         _______ _______ _______ _____ _____    ______ ____
ROOT
ATOM      1  O   UNL     1      33.524 -24.306 -18.191  0.00  0.00    -0.270 OA
ATOM      2  N   UNL     1      34.032 -22.766 -16.489  0.00  0.00    -0.278 N 
ATOM      3  C   UNL     1      33.831 -23.181 -17.811  0.00  0.00    +0.250 C 
ATOM      4  H   UNL     1      34.275 -21.821 -16.365  0.00  0.00    +0.155 HD
ENDROOT
BRANCH   2   8
ATOM      5  O   UNL     1      31.595 -23.697 -15.641  0.00  0.00    -0.442 OA
ATOM      6  O   UNL     1      31.166 -25.937 -12.267  0.00  0.00    -0.286 OA
ATOM      7  C   UNL     1      32.695 -24.010 -14.883  0.00  0.00    +0.163 C 
ATOM      8  C   UNL     1      33.929 -23.531 -15.324  0.00  0.00    +0.086 C 
ATOM      9  C   UNL     1      32.620 -24.771 -13.719  0.00  0.00    +0.075 C 
ATOM     10  C   UNL     1      35.084 -23.816 -14.596  0.00  0.00    +0.018 C 
ATOM     11  C   UNL     1      33.774 -25.060 -12.987  0.00  0.00    +0.006 C 
ATOM     12  C   UNL     1      31.307 -25.262 -13.278  0.00  0.00    +0.202 C 
ATOM     13  C   UNL     1      35.007 -24.579 -13.430  0.00  0.00    +0.002 C 
ATOM     14  C   UNL     1      30.348 -24.156 -15.231  0.00  0.00    +0.213 C 
ATOM     15  C   UNL     1      30.156 -24.897 -14.128  0.00  0.00    +0.090 C 
BRANCH  14  20
ATOM     16  N   UNL     1      28.997 -22.503 -16.501  0.00  0.00    -0.107 NA
ATOM     17  N   UNL     1      28.453 -24.698 -16.645  0.00  0.00    -0.084 NA
ATOM     18  N   UNL     1      27.944 -22.755 -17.293  0.00  0.00    -0.140 N 
ATOM     19  N   UNL     1      27.587 -24.042 -17.407  0.00  0.00    -0.022 NA
ATOM     20  C   UNL     1      29.282 -23.751 -16.118  0.00  0.00    +0.109 C 
ATOM     21  H   UNL     1      27.462 -22.037 -17.762  0.00  0.00    +0.197 HD
ENDBRANCH  14  20
ENDBRANCH   2   8
BRANCH   3  23
ATOM     22  C   UNL     1      34.437 -20.170 -20.785  0.00  0.00    +0.139 C 
ATOM     23  C   UNL     1      34.042 -22.134 -18.845  0.00  0.00    +0.054 C 
ATOM     24  C   UNL     1      33.144 -20.483 -20.362  0.00  0.00    +0.037 C 
ATOM     25  C   UNL     1      35.531 -20.839 -20.238  0.00  0.00    +0.037 C 
ATOM     26  C   UNL     1      32.947 -21.466 -19.392  0.00  0.00    +0.008 C 
ATOM     27  C   UNL     1      35.335 -21.821 -19.268  0.00  0.00    +0.008 C 
BRANCH  22  28
ATOM     28  O   UNL     1      34.629 -19.209 -21.730  0.00  0.00    -0.475 OA
BRANCH  28  29
ATOM     29  C   UNL     1      34.678 -19.637 -23.090  0.00  0.00    +0.205 C 
BRANCH  29  30
ATOM     30  C   UNL     1      34.708 -18.410 -23.991  0.00  0.00    +0.048 C 
BRANCH  30  31
ATOM     31  C   UNL     1      35.397 -17.229 -23.310  0.00  0.00    +0.009 C 
BRANCH  31  32
ATOM     32  C   UNL     1      34.760 -15.901 -23.727  0.00  0.00    +0.026 C 
BRANCH  32  33
ATOM     33  C   UNL     1      34.000 -15.267 -22.589  0.00  0.00    -0.022 C 
ATOM     34  C   UNL     1      33.098 -14.234 -22.843  0.00  0.00    -0.004 C 
ATOM     35  C   UNL     1      34.200 -15.711 -21.283  0.00  0.00    -0.004 C 
ATOM     36  C   UNL     1      32.396 -13.646 -21.792  0.00  0.00    -0.000 C 
ATOM     37  C   UNL     1      33.498 -15.125 -20.230  0.00  0.00    -0.000 C 
ATOM     38  C   UNL     1      32.596 -14.092 -20.485  0.00  0.00    -0.000 C 
ENDBRANCH  32  33
ENDBRANCH  31  32
ENDBRANCH  30  31
ENDBRANCH  29  30
ENDBRANCH  28  29
ENDBRANCH  22  28
ENDBRANCH   3  23
TORSDOF 9
ENDMDL
MODEL 2
REMARK VINA RESULT:     -13.0      1.675      4.017
REMARK  Name = 4887
REMARK  9 active torsions:
REMARK  status: ('A' for Active; 'I' for Inactive)
REMARK    1  A    between atoms: N_2  and  C_8
REMARK    2  A    between atoms: C_3  and  C_23
REMARK    3  A    between atoms: C_14  and  C_20
REMARK    4  A    between atoms: C_22  and  O_28
REMARK    5  A    between atoms: O_28  and  C_29
REMARK    6  A    between atoms: C_29  and  C_30
REMARK    7  A    between atoms: C_30  and  C_31
REMARK    8  A    between atoms: C_31  and  C_32
REMARK    9  A    between atoms: C_32  and  C_33
REMARK                            x       y       z     vdW  Elec       q    Type
REMARK                         _______ _______ _______ _____ _____    ______ ____
ROOT
ATOM      1  O   UNL     1      33.578 -24.162 -18.387  0.00  0.00    -0.270 OA
ATOM      2  N   UNL     1      32.337 -22.468 -17.330  0.00  0.00    -0.278 N 
ATOM      3  C   UNL     1      33.258 -22.986 -18.249  0.00  0.00    +0.250 C 
ATOM      4  H   UNL     1      32.201 -21.493 -17.359  0.00  0.00    +0.155 HD
ENDROOT
BRANCH   2   8
ATOM      5  O   UNL     1      33.570 -23.660 -15.190  0.00  0.00    -0.442 OA
ATOM      6  O   UNL     1      31.505 -25.714 -12.345  0.00  0.00    -0.286 OA
ATOM      7  C   UNL     1      32.207 -23.775 -15.284  0.00  0.00    +0.163 C 
ATOM      8  C   UNL     1      31.590 -23.165 -16.377  0.00  0.00    +0.086 C 
ATOM      9  C   UNL     1      31.438 -24.463 -14.347  0.00  0.00    +0.075 C 
ATOM     10  C   UNL     1      30.206 -23.247 -16.528  0.00  0.00    +0.018 C 
ATOM     11  C   UNL     1      30.052 -24.547 -14.494  0.00  0.00    +0.006 C 
ATOM     12  C   UNL     1      32.115 -25.096 -13.206  0.00  0.00    +0.202 C 
ATOM     13  C   UNL     1      29.438 -23.936 -15.588  0.00  0.00    +0.002 C 
ATOM     14  C   UNL     1      34.220 -24.256 -14.115  0.00  0.00    +0.213 C 
ATOM     15  C   UNL     1      33.582 -24.944 -13.152  0.00  0.00    +0.090 C 
BRANCH  14  20
ATOM     16  N   UNL     1      36.471 -24.333 -15.160  0.00  0.00    -0.107 NA
ATOM     17  N   UNL     1      36.277 -23.544 -13.046  0.00  0.00    -0.084 NA
ATOM     18  N   UNL     1      37.633 -23.951 -14.610  0.00  0.00    -0.140 N 
ATOM     19  N   UNL     1      37.565 -23.477 -13.359  0.00  0.00    -0.022 NA
ATOM     20  C   UNL     1      35.650 -24.059 -14.143  0.00  0.00    +0.109 C 
ATOM     21  H   UNL     1      38.485 -24.016 -15.097  0.00  0.00    +0.197 HD
ENDBRANCH  14  20
ENDBRANCH   2   8
BRANCH   3  23
ATOM     22  C   UNL     1      35.162 -20.096 -20.759  0.00  0.00    +0.139 C 
ATOM     23  C   UNL     1      33.919 -21.982 -19.122  0.00  0.00    +0.054 C 
ATOM     24  C   UNL     1      35.932 -21.008 -20.036  0.00  0.00    +0.037 C 
ATOM     25  C   UNL     1      33.771 -20.127 -20.663  0.00  0.00    +0.037 C 
ATOM     26  C   UNL     1      35.311 -21.950 -19.217  0.00  0.00    +0.008 C 
ATOM     27  C   UNL     1      33.149 -21.069 -19.844  0.00  0.00    +0.008 C 
BRANCH  22  28
ATOM     28  O   UNL     1      35.769 -19.177 -21.560  0.00  0.00    -0.475 OA
BRANCH  28  29
ATOM     29  C   UNL     1      35.560 -19.304 -22.965  0.00  0.00    +0.205 C 
BRANCH  29  30
ATOM     30  C   UNL     1      34.917 -18.025 -23.484  0.00  0.00    +0.048 C 
BRANCH  30  31
ATOM     31  C   UNL     1      35.247 -16.828 -22.594  0.00  0.00    +0.009 C 
BRANCH  31  32
ATOM     32  C   UNL     1      34.739 -15.523 -23.211  0.00  0.00    +0.026 C 
BRANCH  32  33
ATOM     33  C   UNL     1      33.789 -14.804 -22.286  0.00  0.00    -0.022 C 
ATOM     34  C   UNL     1      33.545 -15.307 -21.008  0.00  0.00    -0.004 C 
ATOM     35  C   UNL     1      33.154 -13.637 -22.708  0.00  0.00    -0.004 C 
ATOM     36  C   UNL     1      32.667 -14.643 -20.153  0.00  0.00    -0.000 C 
ATOM     37  C   UNL     1      32.275 -12.972 -21.853  0.00  0.00    -0.000 C 
ATOM     38  C   UNL     1      32.032 -13.475 -20.575  0.00  0.00    -0.000 C 
ENDBRANCH  32  33
ENDBRANCH  31  32
ENDBRANCH  30  31
ENDBRANCH  29  30
ENDBRANCH  28  29
ENDBRANCH  22  28
ENDBRANCH   3  23
TORSDOF 9
ENDMDL
MODEL 3
REMARK VINA RESULT:     -11.5      1.455      2.183
REMARK  Name = 4887
REMARK  9 active torsions:
REMARK  status: ('A' for Active; 'I' for Inactive)
REMARK    1  A    between atoms: N_2  and  C_8
REMARK    2  A    between atoms: C_3  and  C_23
REMARK    3  A    between atoms: C_14  and  C_20
REMARK    4  A    between atoms: C_22  and  O_28
REMARK    5  A    between atoms: O_28  and  C_29
REMARK    6  A    between atoms: C_29  and  C_30
REMARK    7  A    between atoms: C_30  and  C_31
REMARK    8  A    between atoms: C_31  and  C_32
REMARK    9  A    between atoms: C_32  and  C_33
REMARK                            x       y       z     vdW  Elec       q    Type
REMARK                         _______ _______ _______ _____ _____    ______ ____
ROOT
ATOM      1  O   UNL     1      34.010 -23.932 -17.485  0.00  0.00    -0.270 OA
ATOM      2  N   UNL     1      35.606 -22.460 -16.583  0.00  0.00    -0.278 N 
ATOM      3  C   UNL     1      34.671 -22.900 -17.528  0.00  0.00    +0.250 C 
ATOM      4  H   UNL     1      36.047 -21.602 -16.779  0.00  0.00    +0.155 HD
ENDROOT
BRANCH   2   8
ATOM      5  O   UNL     1      33.719 -23.469 -14.868  0.00  0.00    -0.442 OA
ATOM      6  O   UNL     1      34.707 -25.330 -11.383  0.00  0.00    -0.286 OA
ATOM      7  C   UNL     1      35.037 -23.608 -14.516  0.00  0.00    +0.163 C 
ATOM      8  C   UNL     1      35.989 -23.090 -15.396  0.00  0.00    +0.086 C 
ATOM      9  C   UNL     1      35.446 -24.232 -13.340  0.00  0.00    +0.075 C 
ATOM     10  C   UNL     1      37.346 -23.200 -15.094  0.00  0.00    +0.018 C 
ATOM     11  C   UNL     1      36.804 -24.345 -13.033  0.00  0.00    +0.006 C 
ATOM     12  C   UNL     1      34.422 -24.768 -12.432  0.00  0.00    +0.202 C 
ATOM     13  C   UNL     1      37.753 -23.826 -13.915  0.00  0.00    +0.002 C 
ATOM     14  C   UNL     1      32.742 -23.971 -14.015  0.00  0.00    +0.213 C 
ATOM     15  C   UNL     1      33.019 -24.592 -12.856  0.00  0.00    +0.090 C 
BRANCH  14  20
ATOM     16  N   UNL     1      30.268 -24.159 -13.928  0.00  0.00    -0.107 NA
ATOM     17  N   UNL     1      31.219 -23.076 -15.676  0.00  0.00    -0.084 NA
ATOM     18  N   UNL     1      29.388 -23.682 -14.820  0.00  0.00    -0.140 N 
ATOM     19  N   UNL     1      29.907 -23.033 -15.871  0.00  0.00    -0.022 NA
ATOM     20  C   UNL     1      31.402 -23.755 -14.507  0.00  0.00    +0.109 C 
ATOM     21  H   UNL     1      28.417 -23.801 -14.709  0.00  0.00    +0.197 HD
ENDBRANCH  14  20
ENDBRANCH   2   8
BRANCH   3  23
ATOM     22  C   UNL     1      34.178 -20.358 -20.931  0.00  0.00    +0.139 C 
ATOM     23  C   UNL     1      34.500 -22.016 -18.711  0.00  0.00    +0.054 C 
ATOM     24  C   UNL     1      35.459 -20.711 -20.504  0.00  0.00    +0.037 C 
ATOM     25  C   UNL     1      33.059 -20.833 -20.248  0.00  0.00    +0.037 C 
ATOM     26  C   UNL     1      35.619 -21.540 -19.394  0.00  0.00    +0.008 C 
ATOM     27  C   UNL     1      33.219 -21.663 -19.138  0.00  0.00    +0.008 C 
BRANCH  22  28
ATOM     28  O   UNL     1      34.021 -19.551 -22.015  0.00  0.00    -0.475 OA
BRANCH  28  29
ATOM     29  C   UNL     1      35.081 -19.534 -22.970  0.00  0.00    +0.205 C 
BRANCH  29  30
ATOM     30  C   UNL     1      35.295 -18.103 -23.443  0.00  0.00    +0.048 C 
BRANCH  30  31
ATOM     31  C   UNL     1      34.995 -17.094 -22.335  0.00  0.00    +0.009 C 
BRANCH  31  32
ATOM     32  C   UNL     1      34.869 -15.676 -22.897  0.00  0.00    +0.026 C 
BRANCH  32  33
ATOM     33  C   UNL     1      33.864 -14.859 -22.126  0.00  0.00    -0.022 C 
ATOM     34  C   UNL     1      33.223 -13.782 -22.738  0.00  0.00    -0.004 C 
ATOM     35  C   UNL     1      33.575 -15.179 -20.800  0.00  0.00    -0.004 C 
ATOM     36  C   UNL     1      32.294 -13.025 -22.025  0.00  0.00    -0.000 C 
ATOM     37  C   UNL     1      32.645 -14.423 -20.086  0.00  0.00    -0.000 C 
ATOM     38  C   UNL     1      32.004 -13.346 -20.699  0.00  0.00    -0.000 C 
ENDBRANCH  32  33
ENDBRANCH  31  32
ENDBRANCH  30  31
ENDBRANCH  29  30
ENDBRANCH  28  29
ENDBRANCH  22  28
ENDBRANCH   3  23
TORSDOF 9
ENDMDL
MODEL 4
REMARK VINA RESULT:     -11.2      2.484      4.854
REMARK  Name = 4887
REMARK  9 active torsions:
REMARK  status: ('A' for Active; 'I' for Inactive)
REMARK    1  A    between atoms: N_2  and  C_8
REMARK    2  A    between atoms: C_3  and  C_23
REMARK    3  A    between atoms: C_14  and  C_20
REMARK    4  A    between atoms: C_22  and  O_28
REMARK    5  A    between atoms: O_28  and  C_29
REMARK    6  A    between atoms: C_29  and  C_30
REMARK    7  A    between atoms: C_30  and  C_31
REMARK    8  A    between atoms: C_31  and  C_32
REMARK    9  A    between atoms: C_32  and  C_33
REMARK                            x       y       z     vdW  Elec       q    Type
REMARK                         _______ _______ _______ _____ _____    ______ ____
ROOT
ATOM      1  O   UNL     1      32.167 -23.447 -17.506  0.00  0.00    -0.270 OA
ATOM      2  N   UNL     1      33.948 -22.817 -16.107  0.00  0.00    -0.278 N 
ATOM      3  C   UNL     1      33.236 -22.879 -17.312  0.00  0.00    +0.250 C 
ATOM      4  H   UNL     1      34.794 -22.314 -16.131  0.00  0.00    +0.155 HD
ENDROOT
BRANCH   2   8
ATOM      5  O   UNL     1      35.857 -24.008 -14.538  0.00  0.00    -0.442 OA
ATOM      6  O   UNL     1      34.984 -25.688 -10.933  0.00  0.00    -0.286 OA
ATOM      7  C   UNL     1      34.568 -23.991 -14.070  0.00  0.00    +0.163 C 
ATOM      8  C   UNL     1      33.605 -23.383 -14.876  0.00  0.00    +0.086 C 
ATOM      9  C   UNL     1      34.199 -24.547 -12.847  0.00  0.00    +0.075 C 
ATOM     10  C   UNL     1      32.276 -23.334 -14.455  0.00  0.00    +0.018 C 
ATOM     11  C   UNL     1      32.870 -24.500 -12.420  0.00  0.00    +0.006 C 
ATOM     12  C   UNL     1      35.234 -25.181 -12.018  0.00  0.00    +0.202 C 
ATOM     13  C   UNL     1      31.909 -23.891 -13.229  0.00  0.00    +0.002 C 
ATOM     14  C   UNL     1      36.843 -24.607 -13.762  0.00  0.00    +0.213 C 
ATOM     15  C   UNL     1      36.604 -25.174 -12.568  0.00  0.00    +0.090 C 
BRANCH  14  20
ATOM     16  N   UNL     1      38.491 -23.853 -15.460  0.00  0.00    -0.107 NA
ATOM     17  N   UNL     1      39.172 -25.278 -13.836  0.00  0.00    -0.084 NA
ATOM     18  N   UNL     1      39.785 -24.196 -15.541  0.00  0.00    -0.140 N 
ATOM     19  N   UNL     1      40.231 -25.038 -14.600  0.00  0.00    -0.022 NA
ATOM     20  C   UNL     1      38.149 -24.555 -14.376  0.00  0.00    +0.109 C 
ATOM     21  H   UNL     1      40.372 -23.850 -16.251  0.00  0.00    +0.197 HD
ENDBRANCH  14  20
ENDBRANCH   2   8
BRANCH   3  23
ATOM     22  C   UNL     1      35.083 -20.912 -20.629  0.00  0.00    +0.139 C 
ATOM     23  C   UNL     1      33.878 -22.195 -18.465  0.00  0.00    +0.054 C 
ATOM     24  C   UNL     1      35.851 -21.696 -19.767  0.00  0.00    +0.037 C 
ATOM     25  C   UNL     1      33.713 -20.769 -20.408  0.00  0.00    +0.037 C 
ATOM     26  C   UNL     1      35.248 -22.337 -18.685  0.00  0.00    +0.008 C 
ATOM     27  C   UNL     1      33.110 -21.410 -19.326  0.00  0.00    +0.008 C 
BRANCH  22  28
ATOM     28  O   UNL     1      35.671 -20.288 -21.686  0.00  0.00    -0.475 OA
BRANCH  28  29
ATOM     29  C   UNL     1      34.887 -19.324 -22.388  0.00  0.00    +0.205 C 
BRANCH  29  30
ATOM     30  C   UNL     1      35.703 -18.049 -22.546  0.00  0.00    +0.048 C 
BRANCH  30  31
ATOM     31  C   UNL     1      35.086 -16.886 -21.769  0.00  0.00    +0.009 C 
BRANCH  31  32
ATOM     32  C   UNL     1      34.479 -15.848 -22.716  0.00  0.00    +0.026 C 
BRANCH  32  33
ATOM     33  C   UNL     1      33.578 -14.887 -21.983  0.00  0.00    -0.022 C 
ATOM     34  C   UNL     1      33.185 -15.160 -20.673  0.00  0.00    -0.004 C 
ATOM     35  C   UNL     1      33.136 -13.725 -22.614  0.00  0.00    -0.004 C 
ATOM     36  C   UNL     1      32.350 -14.273 -19.995  0.00  0.00    -0.000 C 
ATOM     37  C   UNL     1      32.302 -12.836 -21.937  0.00  0.00    -0.000 C 
ATOM     38  C   UNL     1      31.909 -13.110 -20.627  0.00  0.00    -0.000 C 
ENDBRANCH  32  33
ENDBRANCH  31  32
ENDBRANCH  30  31
ENDBRANCH  29  30
ENDBRANCH  28  29
ENDBRANCH  22  28
ENDBRANCH   3  23
TORSDOF 9
ENDMDL
MODEL 5
REMARK VINA RESULT:     -10.8      1.898      4.059
REMARK  Name = 4887
REMARK  9 active torsions:
REMARK  status: ('A' for Active; 'I' for Inactive)
REMARK    1  A    between atoms: N_2  and  C_8
REMARK    2  A    between atoms: C_3  and  C_23
REMARK    3  A    between atoms: C_14  and  C_20
REMARK    4  A    between atoms: C_22  and  O_28
REMARK    5  A    between atoms: O_28  and  C_29
REMARK    6  A    between atoms: C_29  and  C_30
REMARK    7  A    between atoms: C_30  and  C_31
REMARK    8  A    between atoms: C_31  and  C_32
REMARK    9  A    between atoms: C_32  and  C_33
REMARK                            x       y       z     vdW  Elec       q    Type
REMARK                         _______ _______ _______ _____ _____    ______ ____
ROOT
ATOM      1  O   UNL     1      33.566 -23.994 -18.496  0.00  0.00    -0.270 OA
ATOM      2  N   UNL     1      32.177 -22.377 -17.504  0.00  0.00    -0.278 N 
ATOM      3  C   UNL     1      33.160 -22.842 -18.386  0.00  0.00    +0.250 C 
ATOM      4  H   UNL     1      31.974 -21.415 -17.551  0.00  0.00    +0.155 HD
ENDROOT
BRANCH   2   8
ATOM      5  O   UNL     1      33.454 -23.666 -15.447  0.00  0.00    -0.442 OA
ATOM      6  O   UNL     1      31.447 -25.837 -12.647  0.00  0.00    -0.286 OA
ATOM      7  C   UNL     1      32.088 -23.773 -15.514  0.00  0.00    +0.163 C 
ATOM      8  C   UNL     1      31.449 -23.113 -16.565  0.00  0.00    +0.086 C 
ATOM      9  C   UNL     1      31.339 -24.499 -14.591  0.00  0.00    +0.075 C 
ATOM     10  C   UNL     1      30.061 -23.184 -16.687  0.00  0.00    +0.018 C 
ATOM     11  C   UNL     1      29.950 -24.572 -14.709  0.00  0.00    +0.006 C 
ATOM     12  C   UNL     1      32.039 -25.183 -13.495  0.00  0.00    +0.202 C 
ATOM     13  C   UNL     1      29.313 -23.912 -15.761  0.00  0.00    +0.002 C 
ATOM     14  C   UNL     1      34.126 -24.311 -14.414  0.00  0.00    +0.213 C 
ATOM     15  C   UNL     1      33.508 -25.037 -13.468  0.00  0.00    +0.090 C 
BRANCH  14  20
ATOM     16  N   UNL     1      36.236 -23.080 -13.970  0.00  0.00    -0.107 NA
ATOM     17  N   UNL     1      36.338 -25.054 -15.076  0.00  0.00    -0.084 NA
ATOM     18  N   UNL     1      37.478 -23.450 -14.315  0.00  0.00    -0.140 N 
ATOM     19  N   UNL     1      37.585 -24.613 -14.972  0.00  0.00    -0.022 NA
ATOM     20  C   UNL     1      35.556 -24.116 -14.467  0.00  0.00    +0.109 C 
ATOM     21  H   UNL     1      38.265 -22.900 -14.099  0.00  0.00    +0.197 HD
ENDBRANCH  14  20
ENDBRANCH   2   8
BRANCH   3  23
ATOM     22  C   UNL     1      34.938 -19.856 -20.877  0.00  0.00    +0.139 C 
ATOM     23  C   UNL     1      33.779 -21.804 -19.252  0.00  0.00    +0.054 C 
ATOM     24  C   UNL     1      33.552 -19.902 -20.724  0.00  0.00    +0.037 C 
ATOM     25  C   UNL     1      35.744 -20.784 -20.218  0.00  0.00    +0.037 C 
ATOM     26  C   UNL     1      32.972 -20.876 -19.911  0.00  0.00    +0.008 C 
ATOM     27  C   UNL     1      35.165 -21.758 -19.405  0.00  0.00    +0.008 C 
BRANCH  22  28
ATOM     28  O   UNL     1      35.504 -18.904 -21.668  0.00  0.00    -0.475 OA
BRANCH  28  29
ATOM     29  C   UNL     1      35.973 -19.320 -22.950  0.00  0.00    +0.205 C 
BRANCH  29  30
ATOM     30  C   UNL     1      34.835 -19.200 -23.953  0.00  0.00    +0.048 C 
BRANCH  30  31
ATOM     31  C   UNL     1      35.042 -18.020 -24.901  0.00  0.00    +0.009 C 
BRANCH  31  32
ATOM     32  C   UNL     1      33.719 -17.307 -25.195  0.00  0.00    +0.026 C 
BRANCH  32  33
ATOM     33  C   UNL     1      33.737 -15.879 -24.711  0.00  0.00    -0.022 C 
ATOM     34  C   UNL     1      34.339 -15.564 -23.493  0.00  0.00    -0.004 C 
ATOM     35  C   UNL     1      33.150 -14.875 -25.480  0.00  0.00    -0.004 C 
ATOM     36  C   UNL     1      34.354 -14.244 -23.044  0.00  0.00    -0.000 C 
ATOM     37  C   UNL     1      33.166 -13.554 -25.032  0.00  0.00    -0.000 C 
ATOM     38  C   UNL     1      33.768 -13.238 -23.814  0.00  0.00    -0.000 C 
ENDBRANCH  32  33
ENDBRANCH  31  32
ENDBRANCH  30  31
ENDBRANCH  29  30
ENDBRANCH  28  29
ENDBRANCH  22  28
ENDBRANCH   3  23
TORSDOF 9
ENDMDL
MODEL 6
REMARK VINA RESULT:     -10.0      6.633     13.097
REMARK  Name = 4887
REMARK  9 active torsions:
REMARK  status: ('A' for Active; 'I' for Inactive)
REMARK    1  A    between atoms: N_2  and  C_8
REMARK    2  A    between atoms: C_3  and  C_23
REMARK    3  A    between atoms: C_14  and  C_20
REMARK    4  A    between atoms: C_22  and  O_28
REMARK    5  A    between atoms: O_28  and  C_29
REMARK    6  A    between atoms: C_29  and  C_30
REMARK    7  A    between atoms: C_30  and  C_31
REMARK    8  A    between atoms: C_31  and  C_32
REMARK    9  A    between atoms: C_32  and  C_33
REMARK                            x       y       z     vdW  Elec       q    Type
REMARK                         _______ _______ _______ _____ _____    ______ ____
ROOT
ATOM      1  O   UNL     1      35.326 -10.640 -25.118  0.00  0.00    -0.270 OA
ATOM      2  N   UNL     1      33.458 -10.448 -23.703  0.00  0.00    -0.278 N 
ATOM      3  C   UNL     1      34.386 -11.129 -24.500  0.00  0.00    +0.250 C 
ATOM      4  H   UNL     1      32.765 -11.002 -23.278  0.00  0.00    +0.155 HD
ENDROOT
BRANCH   2   8
ATOM      5  O   UNL     1      32.594  -9.535 -21.266  0.00  0.00    -0.442 OA
ATOM      6  O   UNL     1      32.369  -5.568 -20.374  0.00  0.00    -0.286 OA
ATOM      7  C   UNL     1      32.957  -8.601 -22.203  0.00  0.00    +0.163 C 
ATOM      8  C   UNL     1      33.395  -9.077 -23.440  0.00  0.00    +0.086 C 
ATOM      9  C   UNL     1      32.905  -7.230 -21.965  0.00  0.00    +0.075 C 
ATOM     10  C   UNL     1      33.779  -8.177 -24.433  0.00  0.00    +0.018 C 
ATOM     11  C   UNL     1      33.288  -6.324 -22.957  0.00  0.00    +0.006 C 
ATOM     12  C   UNL     1      32.440  -6.757 -20.654  0.00  0.00    +0.202 C 
ATOM     13  C   UNL     1      33.726  -6.803 -24.193  0.00  0.00    +0.002 C 
ATOM     14  C   UNL     1      32.151  -9.097 -20.022  0.00  0.00    +0.213 C 
ATOM     15  C   UNL     1      32.059  -7.801 -19.682  0.00  0.00    +0.090 C 
BRANCH  14  20
ATOM     16  N   UNL     1      31.672 -10.118 -17.810  0.00  0.00    -0.107 NA
ATOM     17  N   UNL     1      31.566 -11.423 -19.659  0.00  0.00    -0.084 NA
ATOM     18  N   UNL     1      31.346 -11.394 -17.560  0.00  0.00    -0.140 N 
ATOM     19  N   UNL     1      31.271 -12.203 -18.626  0.00  0.00    -0.022 NA
ATOM     20  C   UNL     1      31.800 -10.184 -19.138  0.00  0.00    +0.109 C 
ATOM     21  H   UNL     1      31.171 -11.719 -16.648  0.00  0.00    +0.197 HD
ENDBRANCH  14  20
ENDBRANCH   2   8
BRANCH   3  23
ATOM     22  C   UNL     1      33.775 -15.349 -24.816  0.00  0.00    +0.139 C 
ATOM     23  C   UNL     1      34.174 -12.596 -24.610  0.00  0.00    +0.054 C 
ATOM     24  C   UNL     1      34.196 -14.794 -23.607  0.00  0.00    +0.037 C 
ATOM     25  C   UNL     1      33.555 -14.528 -25.922  0.00  0.00    +0.037 C 
ATOM     26  C   UNL     1      34.395 -13.417 -23.505  0.00  0.00    +0.008 C 
ATOM     27  C   UNL     1      33.754 -13.152 -25.820  0.00  0.00    +0.008 C 
BRANCH  22  28
ATOM     28  O   UNL     1      33.579 -16.692 -24.916  0.00  0.00    -0.475 OA
BRANCH  28  29
ATOM     29  C   UNL     1      34.665 -17.537 -24.538  0.00  0.00    +0.205 C 
BRANCH  29  30
ATOM     30  C   UNL     1      34.139 -18.951 -24.332  0.00  0.00    +0.048 C 
BRANCH  30  31
ATOM     31  C   UNL     1      34.933 -19.696 -23.260  0.00  0.00    +0.009 C 
BRANCH  31  32
ATOM     32  C   UNL     1      34.678 -19.106 -21.871  0.00  0.00    +0.026 C 
BRANCH  32  33
ATOM     33  C   UNL     1      34.616 -20.179 -20.814  0.00  0.00    -0.022 C 
ATOM     34  C   UNL     1      33.383 -20.588 -20.307  0.00  0.00    -0.004 C 
ATOM     35  C   UNL     1      35.791 -20.762 -20.341  0.00  0.00    -0.004 C 
ATOM     36  C   UNL     1      33.324 -21.580 -19.328  0.00  0.00    -0.000 C 
ATOM     37  C   UNL     1      35.734 -21.754 -19.363  0.00  0.00    -0.000 C 
ATOM     38  C   UNL     1      34.501 -22.163 -18.856  0.00  0.00    -0.000 C 
ENDBRANCH  32  33
ENDBRANCH  31  32
ENDBRANCH  30  31
ENDBRANCH  29  30
ENDBRANCH  28  29
ENDBRANCH  22  28
ENDBRANCH   3  23
TORSDOF 9
ENDMDL
