MODEL 1
REMARK VINA RESULT:     -12.1      0.000      0.000
REMARK  Name = 446805
REMARK  6 active torsions:
REMARK  status: ('A' for Active; 'I' for Inactive)
REMARK    1  A    between atoms: C_4  and  C_22
REMARK    2  A    between atoms: C_7  and  N_11
REMARK    3  A    between atoms: N_11  and  S_13
REMARK    4  A    between atoms: S_13  and  C_16
REMARK    5  A    between atoms: C_22  and  C_23
REMARK    6  A    between atoms: C_28  and  C_31
REMARK                            x       y       z     vdW  Elec       q    Type
REMARK                         _______ _______ _______ _____ _____    ______ ____
ROOT
ATOM      1  N   UNL     1      34.685 -16.405 -23.001  0.00  0.00    -0.262 N 
ATOM      2  N   UNL     1      34.719 -16.729 -20.803  0.00  0.00    -0.394 NA
ATOM      3  C   UNL     1      34.067 -15.308 -22.460  0.00  0.00    +0.079 C 
ATOM      4  C   UNL     1      35.056 -17.225 -21.972  0.00  0.00    +0.168 C 
ATOM      5  C   UNL     1      34.101 -15.533 -21.087  0.00  0.00    +0.129 C 
ATOM      6  C   UNL     1      33.540 -14.579 -20.221  0.00  0.00    +0.103 C 
ATOM      7  C   UNL     1      32.964 -13.430 -20.777  0.00  0.00    +0.050 C 
ATOM      8  C   UNL     1      33.499 -14.170 -23.036  0.00  0.00    +0.018 C 
ATOM      9  C   UNL     1      34.901 -16.649 -24.410  0.00  0.00    +0.119 C 
ATOM     10  C   UNL     1      32.945 -13.231 -22.160  0.00  0.00    +0.013 C 
ENDROOT
BRANCH   7  11
ATOM     11  N   UNL     1      32.386 -12.447 -19.916  0.00  0.00    -0.219 N 
ATOM     12  H   UNL     1      32.708 -12.314 -18.995  0.00  0.00    +0.173 HD
BRANCH  11  13
ATOM     13  S   UNL     1      31.091 -11.496 -20.574  0.00  0.00    +0.073 S 
ATOM     14  O   UNL     1      30.091 -11.273 -19.548  0.00  0.00    -0.150 OA
ATOM     15  O   UNL     1      30.712 -12.036 -21.867  0.00  0.00    -0.150 OA
BRANCH  13  16
ATOM     16  C   UNL     1      31.898  -9.952 -20.881  0.00  0.00    +0.125 C 
ATOM     17  C   UNL     1      32.153  -9.103 -19.818  0.00  0.00    +0.020 C 
ATOM     18  C   UNL     1      32.258  -9.625 -22.175  0.00  0.00    +0.020 C 
ATOM     19  C   UNL     1      32.791  -7.885 -20.061  0.00  0.00    +0.001 C 
ATOM     20  C   UNL     1      32.896  -8.408 -22.418  0.00  0.00    +0.001 C 
ATOM     21  C   UNL     1      33.162  -7.538 -21.360  0.00  0.00    +0.000 C 
ENDBRANCH  13  16
ENDBRANCH  11  13
ENDBRANCH   7  11
BRANCH   4  22
ATOM     22  C   UNL     1      35.752 -18.508 -22.201  0.00  0.00    +0.101 C 
BRANCH  22  23
ATOM     23  C   UNL     1      35.380 -19.598 -21.204  0.00  0.00    -0.014 C 
ATOM     24  C   UNL     1      34.049 -19.914 -21.028  0.00  0.00    -0.004 C 
ATOM     25  C   UNL     1      36.387 -20.235 -20.509  0.00  0.00    -0.004 C 
ATOM     26  C   UNL     1      33.709 -20.912 -20.114  0.00  0.00    +0.002 C 
ATOM     27  C   UNL     1      36.047 -21.233 -19.595  0.00  0.00    +0.002 C 
ATOM     28  C   UNL     1      34.708 -21.571 -19.399  0.00  0.00    +0.031 C 
BRANCH  28  31
ATOM     29  N   UNL     1      35.253 -23.039 -17.471  0.00  0.00    -0.343 N 
ATOM     30  N   UNL     1      33.158 -23.172 -18.498  0.00  0.00    -0.285 NA
ATOM     31  C   UNL     1      34.353 -22.612 -18.446  0.00  0.00    +0.117 C 
ATOM     32  H   UNL     1      34.991 -23.745 -16.836  0.00  0.00    +0.144 HD
ATOM     33  H   UNL     1      36.149 -22.636 -17.417  0.00  0.00    +0.144 HD
ATOM     34  H   UNL     1      32.916 -23.877 -17.855  0.00  0.00    +0.188 HD
ENDBRANCH  28  31
ENDBRANCH  22  23
ENDBRANCH   4  22
TORSDOF 6
ENDMDL
MODEL 2
REMARK VINA RESULT:     -11.9      3.692     10.114
REMARK  Name = 446805
REMARK  6 active torsions:
REMARK  status: ('A' for Active; 'I' for Inactive)
REMARK    1  A    between atoms: C_4  and  C_22
REMARK    2  A    between atoms: C_7  and  N_11
REMARK    3  A    between atoms: N_11  and  S_13
REMARK    4  A    between atoms: S_13  and  C_16
REMARK    5  A    between atoms: C_22  and  C_23
REMARK    6  A    between atoms: C_28  and  C_31
REMARK                            x       y       z     vdW  Elec       q    Type
REMARK                         _______ _______ _______ _____ _____    ______ ____
ROOT
ATOM      1  N   UNL     1      33.823 -13.899 -24.827  0.00  0.00    -0.262 N 
ATOM      2  N   UNL     1      34.229 -13.056 -22.811  0.00  0.00    -0.394 NA
ATOM      3  C   UNL     1      34.179 -14.969 -24.048  0.00  0.00    +0.079 C 
ATOM      4  C   UNL     1      33.868 -12.780 -24.044  0.00  0.00    +0.168 C 
ATOM      5  C   UNL     1      34.426 -14.418 -22.794  0.00  0.00    +0.129 C 
ATOM      6  C   UNL     1      34.821 -15.259 -21.740  0.00  0.00    +0.103 C 
ATOM      7  C   UNL     1      34.950 -16.631 -21.994  0.00  0.00    +0.050 C 
ATOM      8  C   UNL     1      34.299 -16.332 -24.322  0.00  0.00    +0.018 C 
ATOM      9  C   UNL     1      33.466 -13.950 -26.227  0.00  0.00    +0.119 C 
ATOM     10  C   UNL     1      34.693 -17.156 -23.263  0.00  0.00    +0.013 C 
ENDROOT
BRANCH   7  11
ATOM     11  N   UNL     1      35.350 -17.505 -20.937  0.00  0.00    -0.219 N 
ATOM     12  H   UNL     1      35.175 -17.288 -19.993  0.00  0.00    +0.173 HD
BRANCH  11  13
ATOM     13  S   UNL     1      36.160 -18.970 -21.400  0.00  0.00    +0.073 S 
ATOM     14  O   UNL     1      37.508 -18.962 -20.867  0.00  0.00    -0.150 OA
ATOM     15  O   UNL     1      35.928 -19.217 -22.812  0.00  0.00    -0.150 OA
BRANCH  13  16
ATOM     16  C   UNL     1      35.237 -20.188 -20.509  0.00  0.00    +0.125 C 
ATOM     17  C   UNL     1      35.917 -21.140 -19.770  0.00  0.00    +0.020 C 
ATOM     18  C   UNL     1      33.856 -20.164 -20.569  0.00  0.00    +0.020 C 
ATOM     19  C   UNL     1      35.189 -22.100 -19.066  0.00  0.00    +0.001 C 
ATOM     20  C   UNL     1      33.128 -21.124 -19.865  0.00  0.00    +0.001 C 
ATOM     21  C   UNL     1      33.794 -22.092 -19.114  0.00  0.00    +0.000 C 
ENDBRANCH  13  16
ENDBRANCH  11  13
ENDBRANCH   7  11
BRANCH   4  22
ATOM     22  C   UNL     1      33.540 -11.438 -24.571  0.00  0.00    +0.101 C 
BRANCH  22  23
ATOM     23  C   UNL     1      33.307 -10.391 -23.490  0.00  0.00    -0.014 C 
ATOM     24  C   UNL     1      32.312 -10.604 -22.559  0.00  0.00    -0.004 C 
ATOM     25  C   UNL     1      34.099  -9.261 -23.475  0.00  0.00    -0.004 C 
ATOM     26  C   UNL     1      32.099  -9.645 -21.568  0.00  0.00    +0.002 C 
ATOM     27  C   UNL     1      33.886  -8.302 -22.486  0.00  0.00    +0.002 C 
ATOM     28  C   UNL     1      32.886  -8.494 -21.532  0.00  0.00    +0.031 C 
BRANCH  28  31
ATOM     29  N   UNL     1      31.786  -6.429 -20.700  0.00  0.00    -0.343 N 
ATOM     30  N   UNL     1      33.302  -7.583 -19.347  0.00  0.00    -0.285 NA
ATOM     31  C   UNL     1      32.663  -7.493 -20.500  0.00  0.00    +0.117 C 
ATOM     32  H   UNL     1      31.651  -5.762 -19.988  0.00  0.00    +0.144 HD
ATOM     33  H   UNL     1      31.303  -6.342 -21.553  0.00  0.00    +0.144 HD
ATOM     34  H   UNL     1      33.153  -6.908 -18.647  0.00  0.00    +0.188 HD
ENDBRANCH  28  31
ENDBRANCH  22  23
ENDBRANCH   4  22
TORSDOF 6
ENDMDL
MODEL 3
REMARK VINA RESULT:     -11.7      5.029      8.620
REMARK  Name = 446805
REMARK  6 active torsions:
REMARK  status: ('A' for Active; 'I' for Inactive)
REMARK    1  A    between atoms: C_4  and  C_22
REMARK    2  A    between atoms: C_7  and  N_11
REMARK    3  A    between atoms: N_11  and  S_13
REMARK    4  A    between atoms: S_13  and  C_16
REMARK    5  A    between atoms: C_22  and  C_23
REMARK    6  A    between atoms: C_28  and  C_31
REMARK                            x       y       z     vdW  Elec       q    Type
REMARK                         _______ _______ _______ _____ _____    ______ ____
ROOT
ATOM      1  N   UNL     1      34.235 -23.140 -16.908  0.00  0.00    -0.262 N 
ATOM      2  N   UNL     1      32.381 -22.552 -17.983  0.00  0.00    -0.394 NA
ATOM      3  C   UNL     1      34.657 -22.432 -18.004  0.00  0.00    +0.079 C 
ATOM      4  C   UNL     1      32.870 -23.184 -16.939  0.00  0.00    +0.168 C 
ATOM      5  C   UNL     1      33.481 -22.075 -18.658  0.00  0.00    +0.129 C 
ATOM      6  C   UNL     1      33.557 -21.327 -19.845  0.00  0.00    +0.103 C 
ATOM      7  C   UNL     1      34.822 -20.965 -20.326  0.00  0.00    +0.050 C 
ATOM      8  C   UNL     1      35.926 -22.082 -18.464  0.00  0.00    +0.018 C 
ATOM      9  C   UNL     1      35.087 -23.733 -15.902  0.00  0.00    +0.119 C 
ATOM     10  C   UNL     1      35.984 -21.336 -19.647  0.00  0.00    +0.013 C 
ENDROOT
BRANCH   7  11
ATOM     11  N   UNL     1      34.923 -20.204 -21.531  0.00  0.00    -0.219 N 
ATOM     12  H   UNL     1      34.473 -20.487 -22.361  0.00  0.00    +0.173 HD
BRANCH  11  13
ATOM     13  S   UNL     1      35.876 -18.754 -21.462  0.00  0.00    +0.073 S 
ATOM     14  O   UNL     1      37.258 -19.075 -21.762  0.00  0.00    -0.150 OA
ATOM     15  O   UNL     1      35.536 -18.016 -20.260  0.00  0.00    -0.150 OA
BRANCH  13  16
ATOM     16  C   UNL     1      35.231 -17.834 -22.828  0.00  0.00    +0.125 C 
ATOM     17  C   UNL     1      35.229 -16.451 -22.767  0.00  0.00    +0.020 C 
ATOM     18  C   UNL     1      34.742 -18.514 -23.928  0.00  0.00    +0.020 C 
ATOM     19  C   UNL     1      34.720 -15.725 -23.845  0.00  0.00    +0.001 C 
ATOM     20  C   UNL     1      34.234 -17.788 -25.006  0.00  0.00    +0.001 C 
ATOM     21  C   UNL     1      34.223 -16.393 -24.964  0.00  0.00    +0.000 C 
ENDBRANCH  13  16
ENDBRANCH  11  13
ENDBRANCH   7  11
BRANCH   4  22
ATOM     22  C   UNL     1      32.082 -23.876 -15.898  0.00  0.00    +0.101 C 
BRANCH  22  23
ATOM     23  C   UNL     1      30.613 -23.473 -15.867  0.00  0.00    -0.014 C 
ATOM     24  C   UNL     1      29.786 -23.886 -16.891  0.00  0.00    -0.004 C 
ATOM     25  C   UNL     1      30.155 -22.706 -14.815  0.00  0.00    -0.004 C 
ATOM     26  C   UNL     1      28.441 -23.517 -16.863  0.00  0.00    +0.002 C 
ATOM     27  C   UNL     1      28.810 -22.336 -14.787  0.00  0.00    +0.002 C 
ATOM     28  C   UNL     1      27.954 -22.742 -15.810  0.00  0.00    +0.031 C 
BRANCH  28  31
ATOM     29  N   UNL     1      25.938 -21.768 -16.885  0.00  0.00    -0.343 N 
ATOM     30  N   UNL     1      25.836 -22.559 -14.689  0.00  0.00    -0.285 NA
ATOM     31  C   UNL     1      26.552 -22.356 -15.781  0.00  0.00    +0.117 C 
ATOM     32  H   UNL     1      24.988 -21.514 -16.843  0.00  0.00    +0.144 HD
ATOM     33  H   UNL     1      26.455 -21.605 -17.707  0.00  0.00    +0.144 HD
ATOM     34  H   UNL     1      24.887 -22.299 -14.666  0.00  0.00    +0.188 HD
ENDBRANCH  28  31
ENDBRANCH  22  23
ENDBRANCH   4  22
TORSDOF 6
ENDMDL
MODEL 4
REMARK VINA RESULT:     -11.4      7.880     12.648
REMARK  Name = 446805
REMARK  6 active torsions:
REMARK  status: ('A' for Active; 'I' for Inactive)
REMARK    1  A    between atoms: C_4  and  C_22
REMARK    2  A    between atoms: C_7  and  N_11
REMARK    3  A    between atoms: N_11  and  S_13
REMARK    4  A    between atoms: S_13  and  C_16
REMARK    5  A    between atoms: C_22  and  C_23
REMARK    6  A    between atoms: C_28  and  C_31
REMARK                            x       y       z     vdW  Elec       q    Type
REMARK                         _______ _______ _______ _____ _____    ______ ____
ROOT
ATOM      1  N   UNL     1      32.174 -23.295 -16.278  0.00  0.00    -0.262 N 
ATOM      2  N   UNL     1      34.244 -23.714 -16.972  0.00  0.00    -0.394 NA
ATOM      3  C   UNL     1      32.823 -23.828 -15.194  0.00  0.00    +0.079 C 
ATOM      4  C   UNL     1      33.064 -23.248 -17.314  0.00  0.00    +0.168 C 
ATOM      5  C   UNL     1      34.113 -24.080 -15.652  0.00  0.00    +0.129 C 
ATOM      6  C   UNL     1      35.056 -24.639 -14.772  0.00  0.00    +0.103 C 
ATOM      7  C   UNL     1      34.658 -24.922 -13.459  0.00  0.00    +0.050 C 
ATOM      8  C   UNL     1      32.405 -24.101 -13.891  0.00  0.00    +0.018 C 
ATOM      9  C   UNL     1      30.795 -22.864 -16.314  0.00  0.00    +0.119 C 
ATOM     10  C   UNL     1      33.356 -24.656 -13.028  0.00  0.00    +0.013 C 
ENDROOT
BRANCH   7  11
ATOM     11  N   UNL     1      35.600 -25.491 -12.548  0.00  0.00    -0.219 N 
ATOM     12  H   UNL     1      35.514 -26.419 -12.228  0.00  0.00    +0.173 HD
BRANCH  11  13
ATOM     13  S   UNL     1      36.906 -24.468 -12.034  0.00  0.00    +0.073 S 
ATOM     14  O   UNL     1      37.319 -24.853 -10.699  0.00  0.00    -0.150 OA
ATOM     15  O   UNL     1      36.575 -23.086 -12.332  0.00  0.00    -0.150 OA
BRANCH  13  16
ATOM     16  C   UNL     1      38.194 -24.939 -13.151  0.00  0.00    +0.125 C 
ATOM     17  C   UNL     1      38.276 -24.317 -14.385  0.00  0.00    +0.020 C 
ATOM     18  C   UNL     1      39.092 -25.918 -12.769  0.00  0.00    +0.020 C 
ATOM     19  C   UNL     1      39.292 -24.689 -15.266  0.00  0.00    +0.001 C 
ATOM     20  C   UNL     1      40.109 -26.290 -13.650  0.00  0.00    +0.001 C 
ATOM     21  C   UNL     1      40.209 -25.675 -14.898  0.00  0.00    +0.000 C 
ENDBRANCH  13  16
ENDBRANCH  11  13
ENDBRANCH   7  11
BRANCH   4  22
ATOM     22  C   UNL     1      32.692 -22.724 -18.646  0.00  0.00    +0.101 C 
BRANCH  22  23
ATOM     23  C   UNL     1      33.748 -21.820 -19.270  0.00  0.00    -0.014 C 
ATOM     24  C   UNL     1      35.080 -22.086 -19.028  0.00  0.00    -0.004 C 
ATOM     25  C   UNL     1      33.339 -20.764 -20.056  0.00  0.00    -0.004 C 
ATOM     26  C   UNL     1      36.047 -21.258 -19.600  0.00  0.00    +0.002 C 
ATOM     27  C   UNL     1      34.305 -19.935 -20.627  0.00  0.00    +0.002 C 
ATOM     28  C   UNL     1      35.659 -20.183 -20.399  0.00  0.00    +0.031 C 
BRANCH  28  31
ATOM     29  N   UNL     1      36.536 -18.845 -22.298  0.00  0.00    -0.343 N 
ATOM     30  N   UNL     1      37.732 -18.972 -20.295  0.00  0.00    -0.285 NA
ATOM     31  C   UNL     1      36.666 -19.319 -20.994  0.00  0.00    +0.117 C 
ATOM     32  H   UNL     1      37.231 -18.261 -22.681  0.00  0.00    +0.144 HD
ATOM     33  H   UNL     1      35.751 -19.094 -22.837  0.00  0.00    +0.144 HD
ATOM     34  H   UNL     1      38.415 -18.388 -20.695  0.00  0.00    +0.188 HD
ENDBRANCH  28  31
ENDBRANCH  22  23
ENDBRANCH   4  22
TORSDOF 6
ENDMDL
MODEL 5
REMARK VINA RESULT:     -11.3      4.824     10.307
REMARK  Name = 446805
REMARK  6 active torsions:
REMARK  status: ('A' for Active; 'I' for Inactive)
REMARK    1  A    between atoms: C_4  and  C_22
REMARK    2  A    between atoms: C_7  and  N_11
REMARK    3  A    between atoms: N_11  and  S_13
REMARK    4  A    between atoms: S_13  and  C_16
REMARK    5  A    between atoms: C_22  and  C_23
REMARK    6  A    between atoms: C_28  and  C_31
REMARK                            x       y       z     vdW  Elec       q    Type
REMARK                         _______ _______ _______ _____ _____    ______ ____
ROOT
ATOM      1  N   UNL     1      36.153 -19.238 -21.275  0.00  0.00    -0.262 N 
ATOM      2  N   UNL     1      33.963 -18.881 -21.399  0.00  0.00    -0.394 NA
ATOM      3  C   UNL     1      35.578 -20.229 -20.523  0.00  0.00    +0.079 C 
ATOM      4  C   UNL     1      35.149 -18.459 -21.777  0.00  0.00    +0.168 C 
ATOM      5  C   UNL     1      34.210 -19.986 -20.617  0.00  0.00    +0.129 C 
ATOM      6  C   UNL     1      33.314 -20.837 -19.948  0.00  0.00    +0.103 C 
ATOM      7  C   UNL     1      33.836 -21.905 -19.207  0.00  0.00    +0.050 C 
ATOM      8  C   UNL     1      36.118 -21.288 -19.792  0.00  0.00    +0.018 C 
ATOM      9  C   UNL     1      37.570 -19.053 -21.494  0.00  0.00    +0.119 C 
ATOM     10  C   UNL     1      35.213 -22.126 -19.133  0.00  0.00    +0.013 C 
ENDROOT
BRANCH   7  11
ATOM     11  N   UNL     1      32.943 -22.783 -18.518  0.00  0.00    -0.219 N 
ATOM     12  H   UNL     1      32.011 -22.907 -18.812  0.00  0.00    +0.173 HD
BRANCH  11  13
ATOM     13  S   UNL     1      33.583 -23.622 -17.138  0.00  0.00    +0.073 S 
ATOM     14  O   UNL     1      34.693 -22.866 -16.590  0.00  0.00    -0.150 OA
ATOM     15  O   UNL     1      33.739 -25.027 -17.464  0.00  0.00    -0.150 OA
BRANCH  13  16
ATOM     16  C   UNL     1      32.239 -23.507 -15.993  0.00  0.00    +0.125 C 
ATOM     17  C   UNL     1      30.986 -23.149 -16.459  0.00  0.00    +0.020 C 
ATOM     18  C   UNL     1      32.468 -23.779 -14.657  0.00  0.00    +0.020 C 
ATOM     19  C   UNL     1      29.927 -23.060 -15.556  0.00  0.00    +0.001 C 
ATOM     20  C   UNL     1      31.408 -23.690 -13.754  0.00  0.00    +0.001 C 
ATOM     21  C   UNL     1      30.137 -23.330 -14.203  0.00  0.00    +0.000 C 
ENDBRANCH  13  16
ENDBRANCH  11  13
ENDBRANCH   7  11
BRANCH   4  22
ATOM     22  C   UNL     1      35.418 -17.288 -22.638  0.00  0.00    +0.101 C 
BRANCH  22  23
ATOM     23  C   UNL     1      34.589 -16.060 -22.286  0.00  0.00    -0.014 C 
ATOM     24  C   UNL     1      34.046 -15.307 -23.306  0.00  0.00    -0.004 C 
ATOM     25  C   UNL     1      34.407 -15.738 -20.956  0.00  0.00    -0.004 C 
ATOM     26  C   UNL     1      33.286 -14.182 -22.983  0.00  0.00    +0.002 C 
ATOM     27  C   UNL     1      33.649 -14.613 -20.633  0.00  0.00    +0.002 C 
ATOM     28  C   UNL     1      33.088 -13.835 -21.647  0.00  0.00    +0.031 C 
BRANCH  28  31
ATOM     29  N   UNL     1      32.283 -11.537 -22.132  0.00  0.00    -0.343 N 
ATOM     30  N   UNL     1      31.577 -12.650 -20.202  0.00  0.00    -0.285 NA
ATOM     31  C   UNL     1      32.298 -12.662 -21.310  0.00  0.00    +0.117 C 
ATOM     32  H   UNL     1      31.740 -10.753 -21.884  0.00  0.00    +0.144 HD
ATOM     33  H   UNL     1      32.815 -11.525 -22.961  0.00  0.00    +0.144 HD
ATOM     34  H   UNL     1      31.041 -11.857 -19.972  0.00  0.00    +0.188 HD
ENDBRANCH  28  31
ENDBRANCH  22  23
ENDBRANCH   4  22
TORSDOF 6
ENDMDL
MODEL 6
REMARK VINA RESULT:     -11.3      4.826     10.294
REMARK  Name = 446805
REMARK  6 active torsions:
REMARK  status: ('A' for Active; 'I' for Inactive)
REMARK    1  A    between atoms: C_4  and  C_22
REMARK    2  A    between atoms: C_7  and  N_11
REMARK    3  A    between atoms: N_11  and  S_13
REMARK    4  A    between atoms: S_13  and  C_16
REMARK    5  A    between atoms: C_22  and  C_23
REMARK    6  A    between atoms: C_28  and  C_31
REMARK                            x       y       z     vdW  Elec       q    Type
REMARK                         _______ _______ _______ _____ _____    ______ ____
ROOT
ATOM      1  N   UNL     1      36.151 -19.244 -21.264  0.00  0.00    -0.262 N 
ATOM      2  N   UNL     1      33.962 -18.882 -21.397  0.00  0.00    -0.394 NA
ATOM      3  C   UNL     1      35.570 -20.233 -20.512  0.00  0.00    +0.079 C 
ATOM      4  C   UNL     1      35.150 -18.463 -21.771  0.00  0.00    +0.168 C 
ATOM      5  C   UNL     1      34.204 -19.986 -20.612  0.00  0.00    +0.129 C 
ATOM      6  C   UNL     1      33.304 -20.834 -19.944  0.00  0.00    +0.103 C 
ATOM      7  C   UNL     1      33.820 -21.903 -19.200  0.00  0.00    +0.050 C 
ATOM      8  C   UNL     1      36.106 -21.291 -19.778  0.00  0.00    +0.018 C 
ATOM      9  C   UNL     1      37.569 -19.062 -21.478  0.00  0.00    +0.119 C 
ATOM     10  C   UNL     1      35.197 -22.126 -19.120  0.00  0.00    +0.013 C 
ENDROOT
BRANCH   7  11
ATOM     11  N   UNL     1      32.923 -22.777 -18.513  0.00  0.00    -0.219 N 
ATOM     12  H   UNL     1      31.991 -22.898 -18.809  0.00  0.00    +0.173 HD
BRANCH  11  13
ATOM     13  S   UNL     1      33.557 -23.619 -17.132  0.00  0.00    +0.073 S 
ATOM     14  O   UNL     1      34.668 -22.867 -16.581  0.00  0.00    -0.150 OA
ATOM     15  O   UNL     1      33.710 -25.024 -17.459  0.00  0.00    -0.150 OA
BRANCH  13  16
ATOM     16  C   UNL     1      32.211 -23.501 -15.990  0.00  0.00    +0.125 C 
ATOM     17  C   UNL     1      32.439 -23.767 -14.651  0.00  0.00    +0.020 C 
ATOM     18  C   UNL     1      30.960 -23.145 -16.458  0.00  0.00    +0.020 C 
ATOM     19  C   UNL     1      31.377 -23.674 -13.751  0.00  0.00    +0.001 C 
ATOM     20  C   UNL     1      29.898 -23.052 -15.557  0.00  0.00    +0.001 C 
ATOM     21  C   UNL     1      30.107 -23.316 -14.204  0.00  0.00    +0.000 C 
ENDBRANCH  13  16
ENDBRANCH  11  13
ENDBRANCH   7  11
BRANCH   4  22
ATOM     22  C   UNL     1      35.424 -17.295 -22.633  0.00  0.00    +0.101 C 
BRANCH  22  23
ATOM     23  C   UNL     1      34.598 -16.063 -22.284  0.00  0.00    -0.014 C 
ATOM     24  C   UNL     1      34.407 -15.743 -20.957  0.00  0.00    -0.004 C 
ATOM     25  C   UNL     1      34.067 -15.307 -23.309  0.00  0.00    -0.004 C 
ATOM     26  C   UNL     1      33.650 -14.615 -20.638  0.00  0.00    +0.002 C 
ATOM     27  C   UNL     1      33.310 -14.180 -22.990  0.00  0.00    +0.002 C 
ATOM     28  C   UNL     1      33.102 -13.834 -21.654  0.00  0.00    +0.031 C 
BRANCH  28  31
ATOM     29  N   UNL     1      32.279 -11.547 -22.162  0.00  0.00    -0.343 N 
ATOM     30  N   UNL     1      31.611 -12.631 -20.203  0.00  0.00    -0.285 NA
ATOM     31  C   UNL     1      32.312 -12.658 -21.322  0.00  0.00    +0.117 C 
ATOM     32  H   UNL     1      31.737 -10.761 -21.917  0.00  0.00    +0.144 HD
ATOM     33  H   UNL     1      32.796 -11.546 -23.000  0.00  0.00    +0.144 HD
ATOM     34  H   UNL     1      31.076 -11.837 -19.975  0.00  0.00    +0.188 HD
ENDBRANCH  28  31
ENDBRANCH  22  23
ENDBRANCH   4  22
TORSDOF 6
ENDMDL
MODEL 7
REMARK VINA RESULT:     -10.8      3.887      6.797
REMARK  Name = 446805
REMARK  6 active torsions:
REMARK  status: ('A' for Active; 'I' for Inactive)
REMARK    1  A    between atoms: C_4  and  C_22
REMARK    2  A    between atoms: C_7  and  N_11
REMARK    3  A    between atoms: N_11  and  S_13
REMARK    4  A    between atoms: S_13  and  C_16
REMARK    5  A    between atoms: C_22  and  C_23
REMARK    6  A    between atoms: C_28  and  C_31
REMARK                            x       y       z     vdW  Elec       q    Type
REMARK                         _______ _______ _______ _____ _____    ______ ____
ROOT
ATOM      1  N   UNL     1      31.663 -10.810 -19.571  0.00  0.00    -0.262 N 
ATOM      2  N   UNL     1      32.297 -11.169 -21.671  0.00  0.00    -0.394 NA
ATOM      3  C   UNL     1      32.007  -9.578 -20.065  0.00  0.00    +0.079 C 
ATOM      4  C   UNL     1      31.853 -11.727 -20.567  0.00  0.00    +0.168 C 
ATOM      5  C   UNL     1      32.398  -9.829 -21.377  0.00  0.00    +0.129 C 
ATOM      6  C   UNL     1      32.820  -8.757 -22.183  0.00  0.00    +0.103 C 
ATOM      7  C   UNL     1      32.830  -7.470 -21.631  0.00  0.00    +0.050 C 
ATOM      8  C   UNL     1      32.008  -8.305 -19.495  0.00  0.00    +0.018 C 
ATOM      9  C   UNL     1      31.186 -11.086 -18.235  0.00  0.00    +0.119 C 
ATOM     10  C   UNL     1      32.430  -7.250 -20.311  0.00  0.00    +0.013 C 
ENDROOT
BRANCH   7  11
ATOM     11  N   UNL     1      33.256  -6.367 -22.432  0.00  0.00    -0.219 N 
ATOM     12  H   UNL     1      34.192  -6.061 -22.435  0.00  0.00    +0.173 HD
BRANCH  11  13
ATOM     13  S   UNL     1      32.042  -5.591 -23.403  0.00  0.00    +0.073 S 
ATOM     14  O   UNL     1      31.549  -4.418 -22.707  0.00  0.00    -0.150 OA
ATOM     15  O   UNL     1      31.118  -6.593 -23.901  0.00  0.00    -0.150 OA
BRANCH  13  16
ATOM     16  C   UNL     1      32.990  -5.035 -24.788  0.00  0.00    +0.125 C 
ATOM     17  C   UNL     1      32.502  -3.998 -25.565  0.00  0.00    +0.020 C 
ATOM     18  C   UNL     1      34.199  -5.645 -25.066  0.00  0.00    +0.020 C 
ATOM     19  C   UNL     1      33.251  -3.559 -26.658  0.00  0.00    +0.001 C 
ATOM     20  C   UNL     1      34.948  -5.206 -26.159  0.00  0.00    +0.001 C 
ATOM     21  C   UNL     1      34.474  -4.163 -26.954  0.00  0.00    +0.000 C 
ENDBRANCH  13  16
ENDBRANCH  11  13
ENDBRANCH   7  11
BRANCH   4  22
ATOM     22  C   UNL     1      31.577 -13.166 -20.373  0.00  0.00    +0.101 C 
BRANCH  22  23
ATOM     23  C   UNL     1      32.554 -14.084 -21.098  0.00  0.00    -0.014 C 
ATOM     24  C   UNL     1      32.672 -13.982 -22.468  0.00  0.00    -0.004 C 
ATOM     25  C   UNL     1      33.289 -14.989 -20.360  0.00  0.00    -0.004 C 
ATOM     26  C   UNL     1      33.567 -14.823 -23.132  0.00  0.00    +0.002 C 
ATOM     27  C   UNL     1      34.182 -15.830 -21.023  0.00  0.00    +0.002 C 
ATOM     28  C   UNL     1      34.321 -15.746 -22.409  0.00  0.00    +0.031 C 
BRANCH  28  31
ATOM     29  N   UNL     1      36.023 -17.554 -22.406  0.00  0.00    -0.343 N 
ATOM     30  N   UNL     1      35.383 -16.542 -24.412  0.00  0.00    -0.285 NA
ATOM     31  C   UNL     1      35.253 -16.623 -23.100  0.00  0.00    +0.117 C 
ATOM     32  H   UNL     1      36.648 -18.138 -22.894  0.00  0.00    +0.144 HD
ATOM     33  H   UNL     1      35.943 -17.629 -21.427  0.00  0.00    +0.144 HD
ATOM     34  H   UNL     1      36.013 -17.135 -24.883  0.00  0.00    +0.188 HD
ENDBRANCH  28  31
ENDBRANCH  22  23
ENDBRANCH   4  22
TORSDOF 6
ENDMDL
MODEL 8
REMARK VINA RESULT:     -10.8      5.418     11.347
REMARK  Name = 446805
REMARK  6 active torsions:
REMARK  status: ('A' for Active; 'I' for Inactive)
REMARK    1  A    between atoms: C_4  and  C_22
REMARK    2  A    between atoms: C_7  and  N_11
REMARK    3  A    between atoms: N_11  and  S_13
REMARK    4  A    between atoms: S_13  and  C_16
REMARK    5  A    between atoms: C_22  and  C_23
REMARK    6  A    between atoms: C_28  and  C_31
REMARK                            x       y       z     vdW  Elec       q    Type
REMARK                         _______ _______ _______ _____ _____    ______ ____
ROOT
ATOM      1  N   UNL     1      34.839 -20.209 -20.939  0.00  0.00    -0.262 N 
ATOM      2  N   UNL     1      36.954 -19.892 -20.334  0.00  0.00    -0.394 NA
ATOM      3  C   UNL     1      35.043 -21.043 -19.870  0.00  0.00    +0.079 C 
ATOM      4  C   UNL     1      36.008 -19.543 -21.177  0.00  0.00    +0.168 C 
ATOM      5  C   UNL     1      36.370 -20.827 -19.510  0.00  0.00    +0.129 C 
ATOM      6  C   UNL     1      36.911 -21.540 -18.427  0.00  0.00    +0.103 C 
ATOM      7  C   UNL     1      36.089 -22.447 -17.747  0.00  0.00    +0.050 C 
ATOM      8  C   UNL     1      34.205 -21.941 -19.206  0.00  0.00    +0.018 C 
ATOM      9  C   UNL     1      33.606 -20.063 -21.679  0.00  0.00    +0.119 C 
ATOM     10  C   UNL     1      34.760 -22.642 -18.131  0.00  0.00    +0.013 C 
ENDROOT
BRANCH   7  11
ATOM     11  N   UNL     1      36.619 -23.183 -16.643  0.00  0.00    -0.219 N 
ATOM     12  H   UNL     1      37.575 -23.417 -16.588  0.00  0.00    +0.173 HD
BRANCH  11  13
ATOM     13  S   UNL     1      35.496 -23.646 -15.401  0.00  0.00    +0.073 S 
ATOM     14  O   UNL     1      34.468 -24.492 -15.975  0.00  0.00    -0.150 OA
ATOM     15  O   UNL     1      35.136 -22.475 -14.624  0.00  0.00    -0.150 OA
BRANCH  13  16
ATOM     16  C   UNL     1      36.507 -24.659 -14.362  0.00  0.00    +0.125 C 
ATOM     17  C   UNL     1      37.173 -24.078 -13.297  0.00  0.00    +0.020 C 
ATOM     18  C   UNL     1      36.611 -26.011 -14.634  0.00  0.00    +0.020 C 
ATOM     19  C   UNL     1      37.969 -24.878 -12.477  0.00  0.00    +0.001 C 
ATOM     20  C   UNL     1      37.407 -26.811 -13.813  0.00  0.00    +0.001 C 
ATOM     21  C   UNL     1      38.087 -26.245 -12.735  0.00  0.00    +0.000 C 
ENDBRANCH  13  16
ENDBRANCH  11  13
ENDBRANCH   7  11
BRANCH   4  22
ATOM     22  C   UNL     1      36.143 -18.556 -22.269  0.00  0.00    +0.101 C 
BRANCH  22  23
ATOM     23  C   UNL     1      35.303 -17.300 -22.072  0.00  0.00    -0.014 C 
ATOM     24  C   UNL     1      34.922 -16.947 -20.794  0.00  0.00    -0.004 C 
ATOM     25  C   UNL     1      34.949 -16.556 -23.178  0.00  0.00    -0.004 C 
ATOM     26  C   UNL     1      34.152 -15.797 -20.614  0.00  0.00    +0.002 C 
ATOM     27  C   UNL     1      34.180 -15.406 -22.998  0.00  0.00    +0.002 C 
ATOM     28  C   UNL     1      33.782 -15.027 -21.716  0.00  0.00    +0.031 C 
BRANCH  28  31
ATOM     29  N   UNL     1      32.943 -12.822 -22.492  0.00  0.00    -0.343 N 
ATOM     30  N   UNL     1      32.268 -13.679 -20.425  0.00  0.00    -0.285 NA
ATOM     31  C   UNL     1      32.979 -13.829 -21.529  0.00  0.00    +0.117 C 
ATOM     32  H   UNL     1      32.393 -12.019 -22.344  0.00  0.00    +0.144 HD
ATOM     33  H   UNL     1      33.468 -12.914 -23.320  0.00  0.00    +0.144 HD
ATOM     34  H   UNL     1      31.724 -12.869 -20.296  0.00  0.00    +0.188 HD
ENDBRANCH  28  31
ENDBRANCH  22  23
ENDBRANCH   4  22
TORSDOF 6
ENDMDL
MODEL 9
REMARK VINA RESULT:     -10.7      6.429     10.873
REMARK  Name = 446805
REMARK  6 active torsions:
REMARK  status: ('A' for Active; 'I' for Inactive)
REMARK    1  A    between atoms: C_4  and  C_22
REMARK    2  A    between atoms: C_7  and  N_11
REMARK    3  A    between atoms: N_11  and  S_13
REMARK    4  A    between atoms: S_13  and  C_16
REMARK    5  A    between atoms: C_22  and  C_23
REMARK    6  A    between atoms: C_28  and  C_31
REMARK                            x       y       z     vdW  Elec       q    Type
REMARK                         _______ _______ _______ _____ _____    ______ ____
ROOT
ATOM      1  N   UNL     1      35.019 -22.928 -17.080  0.00  0.00    -0.262 N 
ATOM      2  N   UNL     1      33.158 -22.908 -18.296  0.00  0.00    -0.394 NA
ATOM      3  C   UNL     1      33.995 -23.099 -16.185  0.00  0.00    +0.079 C 
ATOM      4  C   UNL     1      34.469 -22.819 -18.327  0.00  0.00    +0.168 C 
ATOM      5  C   UNL     1      32.845 -23.084 -16.967  0.00  0.00    +0.129 C 
ATOM      6  C   UNL     1      31.592 -23.239 -16.349  0.00  0.00    +0.103 C 
ATOM      7  C   UNL     1      31.550 -23.404 -14.959  0.00  0.00    +0.050 C 
ATOM      8  C   UNL     1      33.977 -23.264 -14.799  0.00  0.00    +0.018 C 
ATOM      9  C   UNL     1      36.427 -22.873 -16.759  0.00  0.00    +0.119 C 
ATOM     10  C   UNL     1      32.722 -23.416 -14.199  0.00  0.00    +0.013 C 
ENDROOT
BRANCH   7  11
ATOM     11  N   UNL     1      30.288 -23.562 -14.309  0.00  0.00    -0.219 N 
ATOM     12  H   UNL     1      30.053 -23.046 -13.503  0.00  0.00    +0.173 HD
BRANCH  11  13
ATOM     13  S   UNL     1      29.185 -24.705 -15.011  0.00  0.00    +0.073 S 
ATOM     14  O   UNL     1      28.500 -25.423 -13.953  0.00  0.00    -0.150 OA
ATOM     15  O   UNL     1      29.860 -25.428 -16.073  0.00  0.00    -0.150 OA
BRANCH  13  16
ATOM     16  C   UNL     1      28.006 -23.639 -15.786  0.00  0.00    +0.125 C 
ATOM     17  C   UNL     1      27.959 -23.578 -17.168  0.00  0.00    +0.020 C 
ATOM     18  C   UNL     1      27.155 -22.888 -14.996  0.00  0.00    +0.020 C 
ATOM     19  C   UNL     1      27.028 -22.737 -17.779  0.00  0.00    +0.001 C 
ATOM     20  C   UNL     1      26.224 -22.047 -15.607  0.00  0.00    +0.001 C 
ATOM     21  C   UNL     1      26.160 -21.972 -16.999  0.00  0.00    +0.000 C 
ENDBRANCH  13  16
ENDBRANCH  11  13
ENDBRANCH   7  11
BRANCH   4  22
ATOM     22  C   UNL     1      35.296 -22.623 -19.536  0.00  0.00    +0.101 C 
BRANCH  22  23
ATOM     23  C   UNL     1      35.249 -21.205 -20.092  0.00  0.00    -0.014 C 
ATOM     24  C   UNL     1      34.023 -20.644 -20.382  0.00  0.00    -0.004 C 
ATOM     25  C   UNL     1      36.434 -20.528 -20.290  0.00  0.00    -0.004 C 
ATOM     26  C   UNL     1      33.980 -19.345 -20.891  0.00  0.00    +0.002 C 
ATOM     27  C   UNL     1      36.392 -19.231 -20.800  0.00  0.00    +0.002 C 
ATOM     28  C   UNL     1      35.164 -18.640 -21.100  0.00  0.00    +0.031 C 
BRANCH  28  31
ATOM     29  N   UNL     1      35.566 -17.000 -22.921  0.00  0.00    -0.343 N 
ATOM     30  N   UNL     1      34.652 -16.301 -20.887  0.00  0.00    -0.285 NA
ATOM     31  C   UNL     1      35.120 -17.287 -21.633  0.00  0.00    +0.117 C 
ATOM     32  H   UNL     1      35.526 -16.076 -23.261  0.00  0.00    +0.144 HD
ATOM     33  H   UNL     1      35.920 -17.719 -23.492  0.00  0.00    +0.144 HD
ATOM     34  H   UNL     1      34.621 -15.385 -21.245  0.00  0.00    +0.188 HD
ENDBRANCH  28  31
ENDBRANCH  22  23
ENDBRANCH   4  22
TORSDOF 6
ENDMDL
