MODEL 1
REMARK VINA RESULT:     -11.7      0.000      0.000
REMARK  Name = 42611257
REMARK  7 active torsions:
REMARK  status: ('A' for Active; 'I' for Inactive)
REMARK    1  A    between atoms: C_2  and  C_6
REMARK    2  A    between atoms: C_2  and  C_22
REMARK    3  A    between atoms: C_10  and  C_14
REMARK    4  A    between atoms: C_23  and  N_28
REMARK    5  A    between atoms: N_28  and  S_30
REMARK    6  A    between atoms: S_30  and  C_33
REMARK    7  A    between atoms: C_33  and  C_34
REMARK                            x       y       z     vdW  Elec       q    Type
REMARK                         _______ _______ _______ _____ _____    ______ ____
ROOT
ATOM      1  O   UNL     1      36.565 -19.783 -20.480  0.00  0.00    -0.286 OA
ATOM      2  C   UNL     1      35.396 -19.659 -20.905  0.00  0.00    +0.201 C 
ENDROOT
BRANCH   2   6
ATOM      3  N   UNL     1      32.282 -21.275 -20.065  0.00  0.00    -0.297 N 
ATOM      4  N   UNL     1      32.662 -22.750 -18.199  0.00  0.00    -0.229 NA
ATOM      5  C   UNL     1      34.366 -21.348 -19.267  0.00  0.00    +0.036 C 
ATOM      6  C   UNL     1      34.323 -20.437 -20.355  0.00  0.00    +0.056 C 
ATOM      7  C   UNL     1      33.078 -21.853 -19.112  0.00  0.00    +0.132 C 
ATOM      8  C   UNL     1      35.354 -21.813 -18.382  0.00  0.00    +0.004 C 
ATOM      9  C   UNL     1      33.028 -20.413 -20.826  0.00  0.00    +0.066 C 
ATOM     10  C   UNL     1      34.975 -22.742 -17.416  0.00  0.00    +0.019 C 
ATOM     11  C   UNL     1      33.651 -23.162 -17.374  0.00  0.00    +0.100 C 
ATOM     12  H   UNL     1      31.321 -21.453 -20.185  0.00  0.00    +0.154 HD
BRANCH  10  14
ATOM     13 CL   UNL     1      38.970 -24.879 -13.549  0.00  0.00    -0.082 Cl
ATOM     14  C   UNL     1      35.943 -23.260 -16.476  0.00  0.00    +0.002 C 
ATOM     15  C   UNL     1      35.569 -24.238 -15.554  0.00  0.00    +0.001 C 
ATOM     16  C   UNL     1      37.254 -22.782 -16.492  0.00  0.00    +0.001 C 
ATOM     17  C   UNL     1      36.505 -24.739 -14.650  0.00  0.00    +0.011 C 
ATOM     18  C   UNL     1      38.189 -23.282 -15.587  0.00  0.00    +0.011 C 
ATOM     19  C   UNL     1      37.815 -24.261 -14.666  0.00  0.00    +0.058 C 
ENDBRANCH  10  14
ENDBRANCH   2   6
BRANCH   2  22
ATOM     20  F   UNL     1      35.213 -16.881 -20.441  0.00  0.00    -0.203 F 
ATOM     21  F   UNL     1      35.178 -20.393 -23.632  0.00  0.00    -0.204 F 
ATOM     22  C   UNL     1      35.200 -18.658 -22.011  0.00  0.00    +0.095 C 
ATOM     23  C   UNL     1      34.935 -16.368 -22.737  0.00  0.00    +0.092 C 
ATOM     24  C   UNL     1      35.118 -17.297 -21.712  0.00  0.00    +0.160 C 
ATOM     25  C   UNL     1      35.100 -19.089 -23.334  0.00  0.00    +0.145 C 
ATOM     26  C   UNL     1      34.836 -16.800 -24.060  0.00  0.00    +0.020 C 
ATOM     27  C   UNL     1      34.919 -18.160 -24.358  0.00  0.00    +0.031 C 
BRANCH  23  28
ATOM     28  N   UNL     1      34.851 -14.975 -22.435  0.00  0.00    -0.217 N 
ATOM     29  H   UNL     1      35.457 -14.563 -21.777  0.00  0.00    +0.173 HD
BRANCH  28  30
ATOM     30  S   UNL     1      33.662 -14.037 -23.254  0.00  0.00    +0.054 S 
ATOM     31  O   UNL     1      34.207 -12.712 -23.490  0.00  0.00    -0.154 OA
ATOM     32  O   UNL     1      33.062 -14.790 -24.336  0.00  0.00    -0.154 OA
BRANCH  30  33
ATOM     33  C   UNL     1      32.449 -13.873 -21.964  0.00  0.00    +0.172 C 
BRANCH  33  34
ATOM     34  C   UNL     1      33.060 -14.119 -20.594  0.00  0.00    +0.027 C 
ATOM     35  C   UNL     1      32.328 -15.220 -19.847  0.00  0.00    +0.002 C 
ENDBRANCH  33  34
ENDBRANCH  30  33
ENDBRANCH  28  30
ENDBRANCH  23  28
ENDBRANCH   2  22
TORSDOF 7
ENDMDL
MODEL 2
REMARK VINA RESULT:     -11.7      5.777     11.239
REMARK  Name = 42611257
REMARK  7 active torsions:
REMARK  status: ('A' for Active; 'I' for Inactive)
REMARK    1  A    between atoms: C_2  and  C_6
REMARK    2  A    between atoms: C_2  and  C_22
REMARK    3  A    between atoms: C_10  and  C_14
REMARK    4  A    between atoms: C_23  and  N_28
REMARK    5  A    between atoms: N_28  and  S_30
REMARK    6  A    between atoms: S_30  and  C_33
REMARK    7  A    between atoms: C_33  and  C_34
REMARK                            x       y       z     vdW  Elec       q    Type
REMARK                         _______ _______ _______ _____ _____    ______ ____
ROOT
ATOM      1  O   UNL     1      33.820 -12.543 -24.177  0.00  0.00    -0.286 OA
ATOM      2  C   UNL     1      33.504 -13.480 -23.411  0.00  0.00    +0.201 C 
ENDROOT
BRANCH   2   6
ATOM      3  N   UNL     1      31.869 -13.595 -20.198  0.00  0.00    -0.297 N 
ATOM      4  N   UNL     1      31.190 -11.362 -19.602  0.00  0.00    -0.229 NA
ATOM      5  C   UNL     1      32.357 -11.985 -21.666  0.00  0.00    +0.036 C 
ATOM      6  C   UNL     1      32.825 -13.226 -22.173  0.00  0.00    +0.056 C 
ATOM      7  C   UNL     1      31.766 -12.250 -20.434  0.00  0.00    +0.132 C 
ATOM      8  C   UNL     1      32.361 -10.651 -22.108  0.00  0.00    +0.004 C 
ATOM      9  C   UNL     1      32.510 -14.198 -21.248  0.00  0.00    +0.066 C 
ATOM     10  C   UNL     1      31.776  -9.692 -21.284  0.00  0.00    +0.019 C 
ATOM     11  C   UNL     1      31.222 -10.096 -20.076  0.00  0.00    +0.100 C 
ATOM     12  H   UNL     1      31.534 -14.057 -19.396  0.00  0.00    +0.154 HD
BRANCH  10  14
ATOM     13 CL   UNL     1      31.661  -3.963 -22.912  0.00  0.00    -0.082 Cl
ATOM     14  C   UNL     1      31.749  -8.302 -21.680  0.00  0.00    +0.002 C 
ATOM     15  C   UNL     1      31.271  -7.944 -22.941  0.00  0.00    +0.001 C 
ATOM     16  C   UNL     1      32.201  -7.318 -20.801  0.00  0.00    +0.001 C 
ATOM     17  C   UNL     1      31.243  -6.603 -23.322  0.00  0.00    +0.011 C 
ATOM     18  C   UNL     1      32.174  -5.977 -21.182  0.00  0.00    +0.011 C 
ATOM     19  C   UNL     1      31.695  -5.619 -22.442  0.00  0.00    +0.058 C 
ENDBRANCH  10  14
ENDBRANCH   2   6
BRANCH   2  22
ATOM     20  F   UNL     1      35.320 -15.119 -22.003  0.00  0.00    -0.203 F 
ATOM     21  F   UNL     1      32.459 -14.664 -25.762  0.00  0.00    -0.204 F 
ATOM     22  C   UNL     1      33.882 -14.862 -23.871  0.00  0.00    +0.095 C 
ATOM     23  C   UNL     1      35.139 -16.901 -23.554  0.00  0.00    +0.092 C 
ATOM     24  C   UNL     1      34.787 -15.620 -23.128  0.00  0.00    +0.160 C 
ATOM     25  C   UNL     1      33.329 -15.384 -25.040  0.00  0.00    +0.145 C 
ATOM     26  C   UNL     1      34.585 -17.423 -24.724  0.00  0.00    +0.020 C 
ATOM     27  C   UNL     1      33.680 -16.665 -25.466  0.00  0.00    +0.031 C 
BRANCH  23  28
ATOM     28  N   UNL     1      36.064 -17.680 -22.796  0.00  0.00    -0.217 N 
ATOM     29  H   UNL     1      36.968 -17.868 -23.139  0.00  0.00    +0.173 HD
BRANCH  28  30
ATOM     30  S   UNL     1      35.556 -18.281 -21.264  0.00  0.00    +0.054 S 
ATOM     31  O   UNL     1      36.736 -18.645 -20.500  0.00  0.00    -0.154 OA
ATOM     32  O   UNL     1      34.538 -17.429 -20.684  0.00  0.00    -0.154 OA
BRANCH  30  33
ATOM     33  C   UNL     1      34.778 -19.799 -21.765  0.00  0.00    +0.172 C 
BRANCH  33  34
ATOM     34  C   UNL     1      34.450 -20.675 -20.567  0.00  0.00    +0.027 C 
ATOM     35  C   UNL     1      32.977 -20.593 -20.204  0.00  0.00    +0.002 C 
ENDBRANCH  33  34
ENDBRANCH  30  33
ENDBRANCH  28  30
ENDBRANCH  23  28
ENDBRANCH   2  22
TORSDOF 7
ENDMDL
MODEL 3
REMARK VINA RESULT:     -11.5      4.181      7.321
REMARK  Name = 42611257
REMARK  7 active torsions:
REMARK  status: ('A' for Active; 'I' for Inactive)
REMARK    1  A    between atoms: C_2  and  C_6
REMARK    2  A    between atoms: C_2  and  C_22
REMARK    3  A    between atoms: C_10  and  C_14
REMARK    4  A    between atoms: C_23  and  N_28
REMARK    5  A    between atoms: N_28  and  S_30
REMARK    6  A    between atoms: S_30  and  C_33
REMARK    7  A    between atoms: C_33  and  C_34
REMARK                            x       y       z     vdW  Elec       q    Type
REMARK                         _______ _______ _______ _____ _____    ______ ____
ROOT
ATOM      1  O   UNL     1      35.112 -13.447 -21.657  0.00  0.00    -0.286 OA
ATOM      2  C   UNL     1      34.127 -13.510 -22.425  0.00  0.00    +0.201 C 
ENDROOT
BRANCH   2   6
ATOM      3  N   UNL     1      33.743 -15.400 -25.474  0.00  0.00    -0.297 N 
ATOM      4  N   UNL     1      34.302 -17.700 -25.027  0.00  0.00    -0.229 NA
ATOM      5  C   UNL     1      34.354 -15.883 -23.381  0.00  0.00    +0.036 C 
ATOM      6  C   UNL     1      34.063 -14.496 -23.466  0.00  0.00    +0.056 C 
ATOM      7  C   UNL     1      34.145 -16.417 -24.649  0.00  0.00    +0.132 C 
ATOM      8  C   UNL     1      34.775 -16.763 -22.370  0.00  0.00    +0.004 C 
ATOM      9  C   UNL     1      33.689 -14.228 -24.765  0.00  0.00    +0.066 C 
ATOM     10  C   UNL     1      34.952 -18.103 -22.708  0.00  0.00    +0.019 C 
ATOM     11  C   UNL     1      34.708 -18.501 -24.016  0.00  0.00    +0.100 C 
ATOM     12  H   UNL     1      33.526 -15.496 -26.429  0.00  0.00    +0.154 HD
BRANCH  10  14
ATOM     13 CL   UNL     1      36.731 -22.041 -18.608  0.00  0.00    -0.082 Cl
ATOM     14  C   UNL     1      35.385 -19.059 -21.714  0.00  0.00    +0.002 C 
ATOM     15  C   UNL     1      36.709 -19.060 -21.276  0.00  0.00    +0.001 C 
ATOM     16  C   UNL     1      34.477 -19.981 -21.193  0.00  0.00    +0.001 C 
ATOM     17  C   UNL     1      37.125 -19.982 -20.315  0.00  0.00    +0.011 C 
ATOM     18  C   UNL     1      34.893 -20.903 -20.233  0.00  0.00    +0.011 C 
ATOM     19  C   UNL     1      36.217 -20.904 -19.793  0.00  0.00    +0.058 C 
ENDBRANCH  10  14
ENDBRANCH   2   6
BRANCH   2  22
ATOM     20  F   UNL     1      34.171 -10.919 -23.543  0.00  0.00    -0.203 F 
ATOM     21  F   UNL     1      31.858 -14.036 -20.812  0.00  0.00    -0.204 F 
ATOM     22  C   UNL     1      33.039 -12.499 -22.184  0.00  0.00    +0.095 C 
ATOM     23  C   UNL     1      32.115 -10.296 -22.545  0.00  0.00    +0.092 C 
ATOM     24  C   UNL     1      33.123 -11.234 -22.768  0.00  0.00    +0.160 C 
ATOM     25  C   UNL     1      31.949 -12.824 -21.378  0.00  0.00    +0.145 C 
ATOM     26  C   UNL     1      31.024 -10.622 -21.738  0.00  0.00    +0.020 C 
ATOM     27  C   UNL     1      30.941 -11.886 -21.156  0.00  0.00    +0.031 C 
BRANCH  23  28
ATOM     28  N   UNL     1      32.197  -9.001 -23.141  0.00  0.00    -0.217 N 
ATOM     29  H   UNL     1      32.110  -8.886 -24.115  0.00  0.00    +0.173 HD
BRANCH  28  30
ATOM     30  S   UNL     1      32.451  -7.646 -22.109  0.00  0.00    +0.054 S 
ATOM     31  O   UNL     1      31.224  -6.870 -22.062  0.00  0.00    -0.154 OA
ATOM     32  O   UNL     1      33.118  -8.043 -20.886  0.00  0.00    -0.154 OA
BRANCH  30  33
ATOM     33  C   UNL     1      33.610  -6.718 -23.088  0.00  0.00    +0.172 C 
BRANCH  33  34
ATOM     34  C   UNL     1      32.905  -5.917 -24.170  0.00  0.00    +0.027 C 
ATOM     35  C   UNL     1      33.872  -5.478 -25.256  0.00  0.00    +0.002 C 
ENDBRANCH  33  34
ENDBRANCH  30  33
ENDBRANCH  28  30
ENDBRANCH  23  28
ENDBRANCH   2  22
TORSDOF 7
ENDMDL
MODEL 4
REMARK VINA RESULT:     -11.3      3.637      6.273
REMARK  Name = 42611257
REMARK  7 active torsions:
REMARK  status: ('A' for Active; 'I' for Inactive)
REMARK    1  A    between atoms: C_2  and  C_6
REMARK    2  A    between atoms: C_2  and  C_22
REMARK    3  A    between atoms: C_10  and  C_14
REMARK    4  A    between atoms: C_23  and  N_28
REMARK    5  A    between atoms: N_28  and  S_30
REMARK    6  A    between atoms: S_30  and  C_33
REMARK    7  A    between atoms: C_33  and  C_34
REMARK                            x       y       z     vdW  Elec       q    Type
REMARK                         _______ _______ _______ _____ _____    ______ ____
ROOT
ATOM      1  O   UNL     1      35.038 -14.674 -20.226  0.00  0.00    -0.286 OA
ATOM      2  C   UNL     1      34.334 -14.638 -21.259  0.00  0.00    +0.201 C 
ENDROOT
BRANCH   2   6
ATOM      3  N   UNL     1      34.865 -16.372 -24.377  0.00  0.00    -0.297 N 
ATOM      4  N   UNL     1      34.941 -18.739 -23.935  0.00  0.00    -0.229 NA
ATOM      5  C   UNL     1      34.607 -16.992 -22.247  0.00  0.00    +0.036 C 
ATOM      6  C   UNL     1      34.536 -15.576 -22.325  0.00  0.00    +0.056 C 
ATOM      7  C   UNL     1      34.812 -17.457 -23.543  0.00  0.00    +0.132 C 
ATOM      8  C   UNL     1      34.520 -17.950 -21.223  0.00  0.00    +0.004 C 
ATOM      9  C   UNL     1      34.698 -15.224 -23.648  0.00  0.00    +0.066 C 
ATOM     10  C   UNL     1      34.646 -19.292 -21.575  0.00  0.00    +0.019 C 
ATOM     11  C   UNL     1      34.850 -19.616 -22.910  0.00  0.00    +0.100 C 
ATOM     12  H   UNL     1      35.002 -16.412 -25.351  0.00  0.00    +0.154 HD
BRANCH  10  14
ATOM     13 CL   UNL     1      34.319 -23.547 -17.420  0.00  0.00    -0.082 Cl
ATOM     14  C   UNL     1      34.568 -20.325 -20.568  0.00  0.00    +0.002 C 
ATOM     15  C   UNL     1      35.733 -20.917 -20.082  0.00  0.00    +0.001 C 
ATOM     16  C   UNL     1      33.324 -20.730 -20.081  0.00  0.00    +0.001 C 
ATOM     17  C   UNL     1      35.657 -21.913 -19.108  0.00  0.00    +0.011 C 
ATOM     18  C   UNL     1      33.248 -21.726 -19.108  0.00  0.00    +0.011 C 
ATOM     19  C   UNL     1      34.414 -22.318 -18.621  0.00  0.00    +0.058 C 
ENDBRANCH  10  14
ENDBRANCH   2   6
BRANCH   2  22
ATOM     20  F   UNL     1      34.494 -12.411 -22.986  0.00  0.00    -0.203 F 
ATOM     21  F   UNL     1      32.026 -14.664 -19.617  0.00  0.00    -0.204 F 
ATOM     22  C   UNL     1      33.284 -13.561 -21.302  0.00  0.00    +0.095 C 
ATOM     23  C   UNL     1      32.453 -11.486 -22.219  0.00  0.00    +0.092 C 
ATOM     24  C   UNL     1      33.425 -12.486 -22.180  0.00  0.00    +0.160 C 
ATOM     25  C   UNL     1      32.172 -13.636 -20.464  0.00  0.00    +0.145 C 
ATOM     26  C   UNL     1      31.339 -11.562 -21.382  0.00  0.00    +0.020 C 
ATOM     27  C   UNL     1      31.199 -12.637 -20.504  0.00  0.00    +0.031 C 
BRANCH  23  28
ATOM     28  N   UNL     1      32.593 -10.385 -23.117  0.00  0.00    -0.217 N 
ATOM     29  H   UNL     1      32.816 -10.530 -24.065  0.00  0.00    +0.173 HD
BRANCH  28  30
ATOM     30  S   UNL     1      32.362  -8.795 -22.496  0.00  0.00    +0.054 S 
ATOM     31  O   UNL     1      31.094  -8.289 -22.992  0.00  0.00    -0.154 OA
ATOM     32  O   UNL     1      32.674  -8.740 -21.082  0.00  0.00    -0.154 OA
BRANCH  30  33
ATOM     33  C   UNL     1      33.642  -7.926 -23.372  0.00  0.00    +0.172 C 
BRANCH  33  34
ATOM     34  C   UNL     1      33.310  -6.450 -23.517  0.00  0.00    +0.027 C 
ATOM     35  C   UNL     1      33.914  -5.865 -24.782  0.00  0.00    +0.002 C 
ENDBRANCH  33  34
ENDBRANCH  30  33
ENDBRANCH  28  30
ENDBRANCH  23  28
ENDBRANCH   2  22
TORSDOF 7
ENDMDL
MODEL 5
REMARK VINA RESULT:     -11.1      4.767      9.821
REMARK  Name = 42611257
REMARK  7 active torsions:
REMARK  status: ('A' for Active; 'I' for Inactive)
REMARK    1  A    between atoms: C_2  and  C_6
REMARK    2  A    between atoms: C_2  and  C_22
REMARK    3  A    between atoms: C_10  and  C_14
REMARK    4  A    between atoms: C_23  and  N_28
REMARK    5  A    between atoms: N_28  and  S_30
REMARK    6  A    between atoms: S_30  and  C_33
REMARK    7  A    between atoms: C_33  and  C_34
REMARK                            x       y       z     vdW  Elec       q    Type
REMARK                         _______ _______ _______ _____ _____    ______ ____
ROOT
ATOM      1  O   UNL     1      35.296 -17.342 -20.467  0.00  0.00    -0.286 OA
ATOM      2  C   UNL     1      35.168 -18.328 -21.225  0.00  0.00    +0.201 C 
ENDROOT
BRANCH   2   6
ATOM      3  N   UNL     1      34.612 -18.642 -24.775  0.00  0.00    -0.297 N 
ATOM      4  N   UNL     1      33.972 -16.489 -25.645  0.00  0.00    -0.229 NA
ATOM      5  C   UNL     1      34.495 -16.971 -23.299  0.00  0.00    +0.036 C 
ATOM      6  C   UNL     1      34.882 -18.157 -22.621  0.00  0.00    +0.056 C 
ATOM      7  C   UNL     1      34.335 -17.308 -24.640  0.00  0.00    +0.132 C 
ATOM      8  C   UNL     1      34.259 -15.635 -22.935  0.00  0.00    +0.004 C 
ATOM      9  C   UNL     1      34.946 -19.168 -23.554  0.00  0.00    +0.066 C 
ATOM     10  C   UNL     1      33.881 -14.745 -23.939  0.00  0.00    +0.019 C 
ATOM     11  C   UNL     1      33.757 -15.217 -25.239  0.00  0.00    +0.100 C 
ATOM     12  H   UNL     1      34.576 -19.146 -25.620  0.00  0.00    +0.154 HD
BRANCH  10  14
ATOM     13 CL   UNL     1      32.819  -9.025 -22.663  0.00  0.00    -0.082 Cl
ATOM     14  C   UNL     1      33.622 -13.358 -23.629  0.00  0.00    +0.002 C 
ATOM     15  C   UNL     1      32.786 -13.024 -22.563  0.00  0.00    +0.001 C 
ATOM     16  C   UNL     1      34.209 -12.351 -24.397  0.00  0.00    +0.001 C 
ATOM     17  C   UNL     1      32.538 -11.684 -22.264  0.00  0.00    +0.011 C 
ATOM     18  C   UNL     1      33.960 -11.012 -24.099  0.00  0.00    +0.011 C 
ATOM     19  C   UNL     1      33.125 -10.678 -23.032  0.00  0.00    +0.058 C 
ENDBRANCH  10  14
ENDBRANCH   2   6
BRANCH   2  22
ATOM     20  F   UNL     1      32.991 -19.823 -20.229  0.00  0.00    -0.203 F 
ATOM     21  F   UNL     1      37.683 -19.593 -20.903  0.00  0.00    -0.204 F 
ATOM     22  C   UNL     1      35.331 -19.678 -20.581  0.00  0.00    +0.095 C 
ATOM     23  C   UNL     1      34.362 -21.615 -19.510  0.00  0.00    +0.092 C 
ATOM     24  C   UNL     1      34.212 -20.364 -20.109  0.00  0.00    +0.160 C 
ATOM     25  C   UNL     1      36.600 -20.243 -20.454  0.00  0.00    +0.145 C 
ATOM     26  C   UNL     1      35.632 -22.181 -19.384  0.00  0.00    +0.020 C 
ATOM     27  C   UNL     1      36.750 -21.494 -19.856  0.00  0.00    +0.031 C 
BRANCH  23  28
ATOM     28  N   UNL     1      33.219 -22.321 -19.027  0.00  0.00    -0.217 N 
ATOM     29  H   UNL     1      32.340 -22.216 -19.459  0.00  0.00    +0.173 HD
BRANCH  28  30
ATOM     30  S   UNL     1      33.419 -23.360 -17.668  0.00  0.00    +0.054 S 
ATOM     31  O   UNL     1      33.402 -24.735 -18.136  0.00  0.00    -0.154 OA
ATOM     32  O   UNL     1      34.485 -22.889 -16.808  0.00  0.00    -0.154 OA
BRANCH  30  33
ATOM     33  C   UNL     1      31.877 -23.081 -16.830  0.00  0.00    +0.172 C 
BRANCH  33  34
ATOM     34  C   UNL     1      31.951 -23.516 -15.375  0.00  0.00    +0.027 C 
ATOM     35  C   UNL     1      30.670 -23.183 -14.629  0.00  0.00    +0.002 C 
ENDBRANCH  33  34
ENDBRANCH  30  33
ENDBRANCH  28  30
ENDBRANCH  23  28
ENDBRANCH   2  22
TORSDOF 7
ENDMDL
MODEL 6
REMARK VINA RESULT:     -10.8      4.534      9.601
REMARK  Name = 42611257
REMARK  7 active torsions:
REMARK  status: ('A' for Active; 'I' for Inactive)
REMARK    1  A    between atoms: C_2  and  C_6
REMARK    2  A    between atoms: C_2  and  C_22
REMARK    3  A    between atoms: C_10  and  C_14
REMARK    4  A    between atoms: C_23  and  N_28
REMARK    5  A    between atoms: N_28  and  S_30
REMARK    6  A    between atoms: S_30  and  C_33
REMARK    7  A    between atoms: C_33  and  C_34
REMARK                            x       y       z     vdW  Elec       q    Type
REMARK                         _______ _______ _______ _____ _____    ______ ____
ROOT
ATOM      1  O   UNL     1      36.284 -18.210 -20.536  0.00  0.00    -0.286 OA
ATOM      2  C   UNL     1      35.566 -19.051 -21.119  0.00  0.00    +0.201 C 
ENDROOT
BRANCH   2   6
ATOM      3  N   UNL     1      34.845 -19.367 -24.639  0.00  0.00    -0.297 N 
ATOM      4  N   UNL     1      34.053 -17.243 -25.454  0.00  0.00    -0.229 NA
ATOM      5  C   UNL     1      34.719 -17.715 -23.142  0.00  0.00    +0.036 C 
ATOM      6  C   UNL     1      35.201 -18.885 -22.497  0.00  0.00    +0.056 C 
ATOM      7  C   UNL     1      34.508 -18.050 -24.476  0.00  0.00    +0.132 C 
ATOM      8  C   UNL     1      34.434 -16.396 -22.753  0.00  0.00    +0.004 C 
ATOM      9  C   UNL     1      35.268 -19.885 -23.442  0.00  0.00    +0.066 C 
ATOM     10  C   UNL     1      33.961 -15.519 -23.727  0.00  0.00    +0.019 C 
ATOM     11  C   UNL     1      33.795 -15.987 -25.024  0.00  0.00    +0.100 C 
ATOM     12  H   UNL     1      34.791 -19.866 -25.486  0.00  0.00    +0.154 HD
BRANCH  10  14
ATOM     13 CL   UNL     1      32.662  -9.873 -22.344  0.00  0.00    -0.082 Cl
ATOM     14  C   UNL     1      33.647 -14.149 -23.391  0.00  0.00    +0.002 C 
ATOM     15  C   UNL     1      34.189 -13.104 -24.141  0.00  0.00    +0.001 C 
ATOM     16  C   UNL     1      32.801 -13.871 -22.318  0.00  0.00    +0.001 C 
ATOM     17  C   UNL     1      33.884 -11.782 -23.817  0.00  0.00    +0.011 C 
ATOM     18  C   UNL     1      32.497 -12.549 -21.994  0.00  0.00    +0.011 C 
ATOM     19  C   UNL     1      33.038 -11.504 -22.743  0.00  0.00    +0.058 C 
ENDBRANCH  10  14
ENDBRANCH   2   6
BRANCH   2  22
ATOM     20  F   UNL     1      37.359 -20.641 -19.629  0.00  0.00    -0.203 F 
ATOM     21  F   UNL     1      32.859 -19.859 -20.913  0.00  0.00    -0.204 F 
ATOM     22  C   UNL     1      35.121 -20.224 -20.288  0.00  0.00    +0.095 C 
ATOM     23  C   UNL     1      35.649 -22.058 -18.806  0.00  0.00    +0.092 C 
ATOM     24  C   UNL     1      36.060 -20.970 -19.575  0.00  0.00    +0.160 C 
ATOM     25  C   UNL     1      33.770 -20.568 -20.232  0.00  0.00    +0.145 C 
ATOM     26  C   UNL     1      34.297 -22.401 -18.749  0.00  0.00    +0.020 C 
ATOM     27  C   UNL     1      33.358 -21.655 -19.462  0.00  0.00    +0.031 C 
BRANCH  23  28
ATOM     28  N   UNL     1      36.607 -22.822 -18.075  0.00  0.00    -0.217 N 
ATOM     29  H   UNL     1      36.927 -23.690 -18.414  0.00  0.00    +0.173 HD
BRANCH  28  30
ATOM     30  S   UNL     1      37.189 -22.185 -16.584  0.00  0.00    +0.054 S 
ATOM     31  O   UNL     1      38.228 -23.067 -16.083  0.00  0.00    -0.154 OA
ATOM     32  O   UNL     1      37.420 -20.758 -16.686  0.00  0.00    -0.154 OA
BRANCH  30  33
ATOM     33  C   UNL     1      35.760 -22.435 -15.557  0.00  0.00    +0.172 C 
BRANCH  33  34
ATOM     34  C   UNL     1      35.331 -23.893 -15.550  0.00  0.00    +0.027 C 
ATOM     35  C   UNL     1      33.834 -24.031 -15.332  0.00  0.00    +0.002 C 
ENDBRANCH  33  34
ENDBRANCH  30  33
ENDBRANCH  28  30
ENDBRANCH  23  28
ENDBRANCH   2  22
TORSDOF 7
ENDMDL
MODEL 7
REMARK VINA RESULT:     -10.6      7.004     12.910
REMARK  Name = 42611257
REMARK  7 active torsions:
REMARK  status: ('A' for Active; 'I' for Inactive)
REMARK    1  A    between atoms: C_2  and  C_6
REMARK    2  A    between atoms: C_2  and  C_22
REMARK    3  A    between atoms: C_10  and  C_14
REMARK    4  A    between atoms: C_23  and  N_28
REMARK    5  A    between atoms: N_28  and  S_30
REMARK    6  A    between atoms: S_30  and  C_33
REMARK    7  A    between atoms: C_33  and  C_34
REMARK                            x       y       z     vdW  Elec       q    Type
REMARK                         _______ _______ _______ _____ _____    ______ ____
ROOT
ATOM      1  O   UNL     1      30.217 -11.871 -21.634  0.00  0.00    -0.286 OA
ATOM      2  C   UNL     1      31.417 -11.628 -21.384  0.00  0.00    +0.201 C 
ENDROOT
BRANCH   2   6
ATOM      3  N   UNL     1      32.254  -9.573 -18.540  0.00  0.00    -0.297 N 
ATOM      4  N   UNL     1      32.756  -7.350 -19.321  0.00  0.00    -0.229 NA
ATOM      5  C   UNL     1      32.111  -9.240 -20.744  0.00  0.00    +0.036 C 
ATOM      6  C   UNL     1      31.786 -10.593 -20.462  0.00  0.00    +0.056 C 
ATOM      7  C   UNL     1      32.398  -8.632 -19.525  0.00  0.00    +0.132 C 
ATOM      8  C   UNL     1      32.198  -8.445 -21.899  0.00  0.00    +0.004 C 
ATOM      9  C   UNL     1      31.882 -10.768 -19.098  0.00  0.00    +0.066 C 
ATOM     10  C   UNL     1      32.564  -7.110 -21.744  0.00  0.00    +0.019 C 
ATOM     11  C   UNL     1      32.824  -6.632 -20.466  0.00  0.00    +0.100 C 
ATOM     12  H   UNL     1      32.397  -9.414 -17.579  0.00  0.00    +0.154 HD
BRANCH  10  14
ATOM     13 CL   UNL     1      33.017  -3.524 -26.478  0.00  0.00    -0.082 Cl
ATOM     14  C   UNL     1      32.672  -6.240 -22.893  0.00  0.00    +0.002 C 
ATOM     15  C   UNL     1      31.862  -5.109 -22.992  0.00  0.00    +0.001 C 
ATOM     16  C   UNL     1      33.589  -6.532 -23.903  0.00  0.00    +0.001 C 
ATOM     17  C   UNL     1      31.969  -4.269 -24.100  0.00  0.00    +0.011 C 
ATOM     18  C   UNL     1      33.695  -5.692 -25.011  0.00  0.00    +0.011 C 
ATOM     19  C   UNL     1      32.886  -4.561 -25.110  0.00  0.00    +0.058 C 
ENDBRANCH  10  14
ENDBRANCH   2   6
BRANCH   2  22
ATOM     20  F   UNL     1      32.000 -14.284 -20.627  0.00  0.00    -0.203 F 
ATOM     21  F   UNL     1      32.896 -10.712 -23.620  0.00  0.00    -0.204 F 
ATOM     22  C   UNL     1      32.425 -12.481 -22.106  0.00  0.00    +0.095 C 
ATOM     23  C   UNL     1      33.601 -14.578 -22.348  0.00  0.00    +0.092 C 
ATOM     24  C   UNL     1      32.666 -13.787 -21.680  0.00  0.00    +0.160 C 
ATOM     25  C   UNL     1      33.119 -11.966 -23.201  0.00  0.00    +0.145 C 
ATOM     26  C   UNL     1      34.294 -14.062 -23.444  0.00  0.00    +0.020 C 
ATOM     27  C   UNL     1      34.053 -12.757 -23.870  0.00  0.00    +0.031 C 
BRANCH  23  28
ATOM     28  N   UNL     1      33.849 -15.915 -21.914  0.00  0.00    -0.217 N 
ATOM     29  H   UNL     1      33.389 -16.284 -21.125  0.00  0.00    +0.173 HD
BRANCH  28  30
ATOM     30  S   UNL     1      34.974 -16.864 -22.809  0.00  0.00    +0.054 S 
ATOM     31  O   UNL     1      34.236 -17.668 -23.767  0.00  0.00    -0.154 OA
ATOM     32  O   UNL     1      36.104 -16.064 -23.234  0.00  0.00    -0.154 OA
BRANCH  30  33
ATOM     33  C   UNL     1      35.536 -17.969 -21.534  0.00  0.00    +0.172 C 
BRANCH  33  34
ATOM     34  C   UNL     1      35.248 -19.418 -21.890  0.00  0.00    +0.027 C 
ATOM     35  C   UNL     1      34.500 -20.127 -20.775  0.00  0.00    +0.002 C 
ENDBRANCH  33  34
ENDBRANCH  30  33
ENDBRANCH  28  30
ENDBRANCH  23  28
ENDBRANCH   2  22
TORSDOF 7
ENDMDL
MODEL 8
REMARK VINA RESULT:     -10.6      7.598     12.862
REMARK  Name = 42611257
REMARK  7 active torsions:
REMARK  status: ('A' for Active; 'I' for Inactive)
REMARK    1  A    between atoms: C_2  and  C_6
REMARK    2  A    between atoms: C_2  and  C_22
REMARK    3  A    between atoms: C_10  and  C_14
REMARK    4  A    between atoms: C_23  and  N_28
REMARK    5  A    between atoms: N_28  and  S_30
REMARK    6  A    between atoms: S_30  and  C_33
REMARK    7  A    between atoms: C_33  and  C_34
REMARK                            x       y       z     vdW  Elec       q    Type
REMARK                         _______ _______ _______ _____ _____    ______ ____
ROOT
ATOM      1  O   UNL     1      30.370 -11.547 -21.887  0.00  0.00    -0.286 OA
ATOM      2  C   UNL     1      31.442 -11.583 -21.246  0.00  0.00    +0.201 C 
ENDROOT
BRANCH   2   6
ATOM      3  N   UNL     1      32.287  -9.393 -18.507  0.00  0.00    -0.297 N 
ATOM      4  N   UNL     1      32.837  -7.225 -19.399  0.00  0.00    -0.229 NA
ATOM      5  C   UNL     1      32.173  -9.176 -20.727  0.00  0.00    +0.036 C 
ATOM      6  C   UNL     1      31.820 -10.506 -20.376  0.00  0.00    +0.056 C 
ATOM      7  C   UNL     1      32.458  -8.509 -19.539  0.00  0.00    +0.132 C 
ATOM      8  C   UNL     1      32.287  -8.447 -21.922  0.00  0.00    +0.004 C 
ATOM      9  C   UNL     1      31.899 -10.610 -19.004  0.00  0.00    +0.066 C 
ATOM     10  C   UNL     1      32.676  -7.112 -21.833  0.00  0.00    +0.019 C 
ATOM     11  C   UNL     1      32.931  -6.571 -20.580  0.00  0.00    +0.100 C 
ATOM     12  H   UNL     1      32.422  -9.186 -17.554  0.00  0.00    +0.154 HD
BRANCH  10  14
ATOM     13 CL   UNL     1      33.234  -3.797 -26.750  0.00  0.00    -0.082 Cl
ATOM     14  C   UNL     1      32.813  -6.307 -23.026  0.00  0.00    +0.002 C 
ATOM     15  C   UNL     1      33.803  -6.608 -23.962  0.00  0.00    +0.001 C 
ATOM     16  C   UNL     1      31.955  -5.229 -23.241  0.00  0.00    +0.001 C 
ATOM     17  C   UNL     1      33.932  -5.832 -25.114  0.00  0.00    +0.011 C 
ATOM     18  C   UNL     1      32.085  -4.452 -24.392  0.00  0.00    +0.011 C 
ATOM     19  C   UNL     1      33.074  -4.754 -25.329  0.00  0.00    +0.058 C 
ENDBRANCH  10  14
ENDBRANCH   2   6
BRANCH   2  22
ATOM     20  F   UNL     1      32.911 -12.052 -23.611  0.00  0.00    -0.203 F 
ATOM     21  F   UNL     1      31.707 -13.621 -19.297  0.00  0.00    -0.204 F 
ATOM     22  C   UNL     1      32.291 -12.809 -21.451  0.00  0.00    +0.095 C 
ATOM     23  C   UNL     1      33.777 -14.116 -22.836  0.00  0.00    +0.092 C 
ATOM     24  C   UNL     1      32.991 -12.980 -22.645  0.00  0.00    +0.160 C 
ATOM     25  C   UNL     1      32.376 -13.775 -20.448  0.00  0.00    +0.145 C 
ATOM     26  C   UNL     1      33.863 -15.082 -21.832  0.00  0.00    +0.020 C 
ATOM     27  C   UNL     1      33.162 -14.911 -20.639  0.00  0.00    +0.031 C 
BRANCH  23  28
ATOM     28  N   UNL     1      34.496 -14.294 -24.057  0.00  0.00    -0.217 N 
ATOM     29  H   UNL     1      35.456 -14.081 -24.114  0.00  0.00    +0.173 HD
BRANCH  28  30
ATOM     30  S   UNL     1      33.638 -14.891 -25.426  0.00  0.00    +0.054 S 
ATOM     31  O   UNL     1      32.238 -14.535 -25.281  0.00  0.00    -0.154 OA
ATOM     32  O   UNL     1      34.350 -14.596 -26.652  0.00  0.00    -0.154 OA
BRANCH  30  33
ATOM     33  C   UNL     1      33.758 -16.641 -25.132  0.00  0.00    +0.172 C 
BRANCH  33  34
ATOM     34  C   UNL     1      35.050 -16.995 -24.414  0.00  0.00    +0.027 C 
ATOM     35  C   UNL     1      34.900 -18.263 -23.591  0.00  0.00    +0.002 C 
ENDBRANCH  33  34
ENDBRANCH  30  33
ENDBRANCH  28  30
ENDBRANCH  23  28
ENDBRANCH   2  22
TORSDOF 7
ENDMDL
MODEL 9
REMARK VINA RESULT:     -10.2      2.633      4.277
REMARK  Name = 42611257
REMARK  7 active torsions:
REMARK  status: ('A' for Active; 'I' for Inactive)
REMARK    1  A    between atoms: C_2  and  C_6
REMARK    2  A    between atoms: C_2  and  C_22
REMARK    3  A    between atoms: C_10  and  C_14
REMARK    4  A    between atoms: C_23  and  N_28
REMARK    5  A    between atoms: N_28  and  S_30
REMARK    6  A    between atoms: S_30  and  C_33
REMARK    7  A    between atoms: C_33  and  C_34
REMARK                            x       y       z     vdW  Elec       q    Type
REMARK                         _______ _______ _______ _____ _____    ______ ____
ROOT
ATOM      1  O   UNL     1      33.697 -24.109 -19.496  0.00  0.00    -0.286 OA
ATOM      2  C   UNL     1      33.930 -23.179 -18.695  0.00  0.00    +0.201 C 
ENDROOT
BRANCH   2   6
ATOM      3  N   UNL     1      32.096 -23.024 -15.592  0.00  0.00    -0.297 N 
ATOM      4  N   UNL     1      33.510 -23.843 -13.823  0.00  0.00    -0.229 NA
ATOM      5  C   UNL     1      34.146 -23.681 -16.186  0.00  0.00    +0.036 C 
ATOM      6  C   UNL     1      33.455 -23.232 -17.342  0.00  0.00    +0.056 C 
ATOM      7  C   UNL     1      33.271 -23.538 -15.113  0.00  0.00    +0.132 C 
ATOM      8  C   UNL     1      35.424 -24.197 -15.914  0.00  0.00    +0.004 C 
ATOM      9  C   UNL     1      32.196 -22.833 -16.946  0.00  0.00    +0.066 C 
ATOM     10  C   UNL     1      35.723 -24.529 -14.594  0.00  0.00    +0.019 C 
ATOM     11  C   UNL     1      34.753 -24.336 -13.619  0.00  0.00    +0.100 C 
ATOM     12  H   UNL     1      31.301 -22.822 -15.048  0.00  0.00    +0.154 HD
BRANCH  10  14
ATOM     13 CL   UNL     1      41.067 -26.746 -13.178  0.00  0.00    -0.082 Cl
ATOM     14  C   UNL     1      37.020 -25.067 -14.249  0.00  0.00    +0.002 C 
ATOM     15  C   UNL     1      37.145 -25.962 -13.187  0.00  0.00    +0.001 C 
ATOM     16  C   UNL     1      38.147 -24.689 -14.979  0.00  0.00    +0.001 C 
ATOM     17  C   UNL     1      38.396 -26.482 -12.856  0.00  0.00    +0.011 C 
ATOM     18  C   UNL     1      39.398 -25.208 -14.648  0.00  0.00    +0.011 C 
ATOM     19  C   UNL     1      39.523 -26.105 -13.586  0.00  0.00    +0.058 C 
ENDBRANCH  10  14
ENDBRANCH   2   6
BRANCH   2  22
ATOM     20  F   UNL     1      32.829 -21.250 -20.437  0.00  0.00    -0.203 F 
ATOM     21  F   UNL     1      36.658 -22.747 -18.068  0.00  0.00    -0.204 F 
ATOM     22  C   UNL     1      34.725 -22.024 -19.241  0.00  0.00    +0.095 C 
ATOM     23  C   UNL     1      34.855 -20.035 -20.607  0.00  0.00    +0.092 C 
ATOM     24  C   UNL     1      34.119 -21.105 -20.099  0.00  0.00    +0.160 C 
ATOM     25  C   UNL     1      36.066 -21.871 -18.891  0.00  0.00    +0.145 C 
ATOM     26  C   UNL     1      36.198 -19.882 -20.255  0.00  0.00    +0.020 C 
ATOM     27  C   UNL     1      36.802 -20.800 -19.398  0.00  0.00    +0.031 C 
BRANCH  23  28
ATOM     28  N   UNL     1      34.239 -19.093 -21.485  0.00  0.00    -0.217 N 
ATOM     29  H   UNL     1      33.316 -18.785 -21.329  0.00  0.00    +0.173 HD
BRANCH  28  30
ATOM     30  S   UNL     1      35.153 -18.508 -22.822  0.00  0.00    +0.054 S 
ATOM     31  O   UNL     1      36.543 -18.880 -22.624  0.00  0.00    -0.154 OA
ATOM     32  O   UNL     1      34.484 -18.798 -24.074  0.00  0.00    -0.154 OA
BRANCH  30  33
ATOM     33  C   UNL     1      35.042 -16.757 -22.536  0.00  0.00    +0.172 C 
BRANCH  33  34
ATOM     34  C   UNL     1      34.699 -16.452 -21.088  0.00  0.00    +0.027 C 
ATOM     35  C   UNL     1      34.367 -14.983 -20.891  0.00  0.00    +0.002 C 
ENDBRANCH  33  34
ENDBRANCH  30  33
ENDBRANCH  28  30
ENDBRANCH  23  28
ENDBRANCH   2  22
TORSDOF 7
ENDMDL
