MODEL 1
REMARK VINA RESULT:     -11.3      0.000      0.000
REMARK  Name = 5287459
REMARK  5 active torsions:
REMARK  status: ('A' for Active; 'I' for Inactive)
REMARK    1  A    between atoms: C_1  and  C_7
REMARK    2  A    between atoms: C_4  and  C_21
REMARK    3  A    between atoms: C_5  and  C_25
REMARK    4  A    between atoms: C_8  and  C_13
REMARK    5  A    between atoms: C_25  and  O_26
REMARK                            x       y       z     vdW  Elec       q    Type
REMARK                         _______ _______ _______ _____ _____    ______ ____
ROOT
ATOM      1  C   UNL     1      37.310 -24.205 -14.795  0.00  0.00    +0.000 C 
ATOM      2  C   UNL     1      36.734 -24.172 -13.525  0.00  0.00    +0.005 C 
ATOM      3  C   UNL     1      38.494 -24.910 -15.005  0.00  0.00    +0.006 C 
ATOM      4  C   UNL     1      37.342 -24.847 -12.466  0.00  0.00    +0.053 C 
ATOM      5  C   UNL     1      39.103 -25.584 -13.947  0.00  0.00    +0.076 C 
ATOM      6  C   UNL     1      38.526 -25.552 -12.677  0.00  0.00    +0.011 C 
ENDROOT
BRANCH   1   7
ATOM      7  C   UNL     1      36.680 -23.505 -15.893  0.00  0.00    +0.000 C 
ATOM      8  C   UNL     1      35.466 -22.155 -18.012  0.00  0.00    +0.000 C 
ATOM      9  C   UNL     1      37.432 -22.648 -16.697  0.00  0.00    +0.000 C 
ATOM     10  C   UNL     1      35.321 -23.687 -16.149  0.00  0.00    +0.000 C 
ATOM     11  C   UNL     1      36.825 -21.972 -17.756  0.00  0.00    +0.000 C 
ATOM     12  C   UNL     1      34.714 -23.012 -17.207  0.00  0.00    +0.000 C 
BRANCH   8  13
ATOM     13  C   UNL     1      34.835 -21.454 -19.109  0.00  0.00    +0.000 C 
ATOM     14  C   UNL     1      35.616 -20.794 -20.057  0.00  0.00    +0.000 C 
ATOM     15  C   UNL     1      33.445 -21.440 -19.219  0.00  0.00    +0.000 C 
ATOM     16  C   UNL     1      35.007 -20.119 -21.115  0.00  0.00    +0.000 C 
ATOM     17  C   UNL     1      32.835 -20.765 -20.277  0.00  0.00    +0.000 C 
ATOM     18  C   UNL     1      33.616 -20.104 -21.225  0.00  0.00    +0.000 C 
ENDBRANCH   8  13
ENDBRANCH   1   7
BRANCH   4  21
ATOM     19  O   UNL     1      36.069 -25.768 -10.711  0.00  0.00    -0.270 OA
ATOM     20  N   UNL     1      36.956 -23.682 -10.361  0.00  0.00    -0.325 N 
ATOM     21  C   UNL     1      36.741 -24.813 -11.142  0.00  0.00    +0.243 C 
ATOM     22  H   UNL     1      36.564 -23.623  -9.460  0.00  0.00    +0.145 HD
ATOM     23  H   UNL     1      37.500 -22.939 -10.710  0.00  0.00    +0.145 HD
ENDBRANCH   4  21
BRANCH   5  25
ATOM     24  O   UNL     1      41.026 -26.845 -13.285  0.00  0.00    -0.245 OA
ATOM     25  C   UNL     1      40.338 -26.319 -14.166  0.00  0.00    +0.338 C 
BRANCH  25  26
ATOM     26  O   UNL     1      40.681 -26.379 -15.483  0.00  0.00    -0.477 OA
ATOM     27  H   UNL     1      40.017 -26.476 -16.136  0.00  0.00    +0.295 HD
ENDBRANCH  25  26
ENDBRANCH   5  25
TORSDOF 5
ENDMDL
MODEL 2
REMARK VINA RESULT:     -10.9      1.371      3.253
REMARK  Name = 5287459
REMARK  5 active torsions:
REMARK  status: ('A' for Active; 'I' for Inactive)
REMARK    1  A    between atoms: C_1  and  C_7
REMARK    2  A    between atoms: C_4  and  C_21
REMARK    3  A    between atoms: C_5  and  C_25
REMARK    4  A    between atoms: C_8  and  C_13
REMARK    5  A    between atoms: C_25  and  O_26
REMARK                            x       y       z     vdW  Elec       q    Type
REMARK                         _______ _______ _______ _____ _____    ______ ____
ROOT
ATOM      1  C   UNL     1      37.082 -24.056 -14.770  0.00  0.00    +0.000 C 
ATOM      2  C   UNL     1      38.372 -24.577 -14.865  0.00  0.00    +0.005 C 
ATOM      3  C   UNL     1      36.363 -24.187 -13.582  0.00  0.00    +0.006 C 
ATOM      4  C   UNL     1      38.944 -25.227 -13.771  0.00  0.00    +0.053 C 
ATOM      5  C   UNL     1      36.934 -24.838 -12.488  0.00  0.00    +0.076 C 
ATOM      6  C   UNL     1      38.225 -25.358 -12.584  0.00  0.00    +0.011 C 
ENDROOT
BRANCH   1   7
ATOM      7  C   UNL     1      36.489 -23.382 -15.904  0.00  0.00    +0.000 C 
ATOM      8  C   UNL     1      35.346 -22.081 -18.091  0.00  0.00    +0.000 C 
ATOM      9  C   UNL     1      37.270 -22.550 -16.707  0.00  0.00    +0.000 C 
ATOM     10  C   UNL     1      35.137 -23.563 -16.194  0.00  0.00    +0.000 C 
ATOM     11  C   UNL     1      36.698 -21.899 -17.801  0.00  0.00    +0.000 C 
ATOM     12  C   UNL     1      34.565 -22.912 -17.287  0.00  0.00    +0.000 C 
BRANCH   8  13
ATOM     13  C   UNL     1      34.751 -21.405 -19.225  0.00  0.00    +0.000 C 
ATOM     14  C   UNL     1      33.364 -21.352 -19.357  0.00  0.00    +0.000 C 
ATOM     15  C   UNL     1      35.567 -20.807 -20.185  0.00  0.00    +0.000 C 
ATOM     16  C   UNL     1      32.792 -20.700 -20.449  0.00  0.00    +0.000 C 
ATOM     17  C   UNL     1      34.996 -20.156 -21.278  0.00  0.00    +0.000 C 
ATOM     18  C   UNL     1      33.608 -20.102 -21.411  0.00  0.00    +0.000 C 
ENDBRANCH   8  13
ENDBRANCH   1   7
BRANCH   4  21
ATOM     19  O   UNL     1      41.238 -25.080 -14.286  0.00  0.00    -0.270 OA
ATOM     20  N   UNL     1      40.489 -27.088 -13.469  0.00  0.00    -0.325 N 
ATOM     21  C   UNL     1      40.290 -25.770 -13.870  0.00  0.00    +0.243 C 
ATOM     22  H   UNL     1      41.386 -27.489 -13.523  0.00  0.00    +0.145 HD
ATOM     23  H   UNL     1      39.732 -27.619 -13.130  0.00  0.00    +0.145 HD
ENDBRANCH   4  21
BRANCH   5  25
ATOM     24  O   UNL     1      36.605 -24.694 -10.123  0.00  0.00    -0.245 OA
ATOM     25  C   UNL     1      36.185 -24.974 -11.250  0.00  0.00    +0.338 C 
BRANCH  25  26
ATOM     26  O   UNL     1      34.928 -25.456 -11.454  0.00  0.00    -0.477 OA
ATOM     27  H   UNL     1      34.360 -25.041 -12.072  0.00  0.00    +0.295 HD
ENDBRANCH  25  26
ENDBRANCH   5  25
TORSDOF 5
ENDMDL
MODEL 3
REMARK VINA RESULT:     -10.5      3.276      5.625
REMARK  Name = 5287459
REMARK  5 active torsions:
REMARK  status: ('A' for Active; 'I' for Inactive)
REMARK    1  A    between atoms: C_1  and  C_7
REMARK    2  A    between atoms: C_4  and  C_21
REMARK    3  A    between atoms: C_5  and  C_25
REMARK    4  A    between atoms: C_8  and  C_13
REMARK    5  A    between atoms: C_25  and  O_26
REMARK                            x       y       z     vdW  Elec       q    Type
REMARK                         _______ _______ _______ _____ _____    ______ ____
ROOT
ATOM      1  C   UNL     1      33.715 -22.901 -17.398  0.00  0.00    +0.000 C 
ATOM      2  C   UNL     1      34.788 -23.506 -16.746  0.00  0.00    +0.005 C 
ATOM      3  C   UNL     1      32.411 -23.145 -16.970  0.00  0.00    +0.006 C 
ATOM      4  C   UNL     1      34.558 -24.354 -15.663  0.00  0.00    +0.053 C 
ATOM      5  C   UNL     1      32.179 -23.994 -15.888  0.00  0.00    +0.076 C 
ATOM      6  C   UNL     1      33.254 -24.599 -15.234  0.00  0.00    +0.011 C 
ENDROOT
BRANCH   1   7
ATOM      7  C   UNL     1      33.955 -22.021 -18.522  0.00  0.00    +0.000 C 
ATOM      8  C   UNL     1      34.418 -20.324 -20.687  0.00  0.00    +0.000 C 
ATOM      9  C   UNL     1      35.258 -21.797 -18.967  0.00  0.00    +0.000 C 
ATOM     10  C   UNL     1      32.883 -21.396 -19.160  0.00  0.00    +0.000 C 
ATOM     11  C   UNL     1      35.489 -20.948 -20.049  0.00  0.00    +0.000 C 
ATOM     12  C   UNL     1      33.114 -20.547 -20.242  0.00  0.00    +0.000 C 
BRANCH   8  13
ATOM     13  C   UNL     1      34.657 -19.442 -21.810  0.00  0.00    +0.000 C 
ATOM     14  C   UNL     1      35.143 -18.154 -21.594  0.00  0.00    +0.000 C 
ATOM     15  C   UNL     1      34.400 -19.883 -23.108  0.00  0.00    +0.000 C 
ATOM     16  C   UNL     1      35.375 -17.305 -22.677  0.00  0.00    +0.000 C 
ATOM     17  C   UNL     1      34.631 -19.035 -24.191  0.00  0.00    +0.000 C 
ATOM     18  C   UNL     1      35.118 -17.745 -23.976  0.00  0.00    +0.000 C 
ENDBRANCH   8  13
ENDBRANCH   1   7
BRANCH   4  21
ATOM     19  O   UNL     1      36.540 -24.311 -14.392  0.00  0.00    -0.270 OA
ATOM     20  N   UNL     1      35.745 -26.375 -14.996  0.00  0.00    -0.325 N 
ATOM     21  C   UNL     1      35.677 -24.985 -14.982  0.00  0.00    +0.243 C 
ATOM     22  H   UNL     1      36.489 -26.837 -14.546  0.00  0.00    +0.145 HD
ATOM     23  H   UNL     1      35.048 -26.897 -15.456  0.00  0.00    +0.145 HD
ENDBRANCH   4  21
BRANCH   5  25
ATOM     24  O   UNL     1      30.461 -25.204 -14.745  0.00  0.00    -0.245 OA
ATOM     25  C   UNL     1      30.819 -24.249 -15.441  0.00  0.00    +0.338 C 
BRANCH  25  26
ATOM     26  O   UNL     1      29.943 -23.301 -15.876  0.00  0.00    -0.477 OA
ATOM     27  H   UNL     1      29.043 -23.343 -15.622  0.00  0.00    +0.295 HD
ENDBRANCH  25  26
ENDBRANCH   5  25
TORSDOF 5
ENDMDL
MODEL 4
REMARK VINA RESULT:     -10.5      2.248      4.174
REMARK  Name = 5287459
REMARK  5 active torsions:
REMARK  status: ('A' for Active; 'I' for Inactive)
REMARK    1  A    between atoms: C_1  and  C_7
REMARK    2  A    between atoms: C_4  and  C_21
REMARK    3  A    between atoms: C_5  and  C_25
REMARK    4  A    between atoms: C_8  and  C_13
REMARK    5  A    between atoms: C_25  and  O_26
REMARK                            x       y       z     vdW  Elec       q    Type
REMARK                         _______ _______ _______ _____ _____    ______ ____
ROOT
ATOM      1  C   UNL     1      35.572 -23.584 -15.750  0.00  0.00    +0.000 C 
ATOM      2  C   UNL     1      36.726 -24.186 -15.250  0.00  0.00    +0.005 C 
ATOM      3  C   UNL     1      34.355 -23.754 -15.090  0.00  0.00    +0.006 C 
ATOM      4  C   UNL     1      36.664 -24.957 -14.089  0.00  0.00    +0.053 C 
ATOM      5  C   UNL     1      34.292 -24.526 -13.930  0.00  0.00    +0.076 C 
ATOM      6  C   UNL     1      35.448 -25.127 -13.430  0.00  0.00    +0.011 C 
ENDROOT
BRANCH   1   7
ATOM      7  C   UNL     1      35.636 -22.784 -16.954  0.00  0.00    +0.000 C 
ATOM      8  C   UNL     1      35.759 -21.243 -19.276  0.00  0.00    +0.000 C 
ATOM      9  C   UNL     1      34.536 -22.724 -17.810  0.00  0.00    +0.000 C 
ATOM     10  C   UNL     1      36.797 -22.074 -17.259  0.00  0.00    +0.000 C 
ATOM     11  C   UNL     1      34.598 -21.953 -18.972  0.00  0.00    +0.000 C 
ATOM     12  C   UNL     1      36.859 -21.304 -18.420  0.00  0.00    +0.000 C 
BRANCH   8  13
ATOM     13  C   UNL     1      35.824 -20.444 -20.481  0.00  0.00    +0.000 C 
ATOM     14  C   UNL     1      34.739 -20.412 -21.357  0.00  0.00    +0.000 C 
ATOM     15  C   UNL     1      36.972 -19.706 -20.766  0.00  0.00    +0.000 C 
ATOM     16  C   UNL     1      34.802 -19.642 -22.518  0.00  0.00    +0.000 C 
ATOM     17  C   UNL     1      37.036 -18.935 -21.927  0.00  0.00    +0.000 C 
ATOM     18  C   UNL     1      35.952 -18.903 -22.803  0.00  0.00    +0.000 C 
ENDBRANCH   8  13
ENDBRANCH   1   7
BRANCH   4  21
ATOM     19  O   UNL     1      38.762 -24.914 -13.019  0.00  0.00    -0.270 OA
ATOM     20  N   UNL     1      37.983 -26.966 -13.686  0.00  0.00    -0.325 N 
ATOM     21  C   UNL     1      37.868 -25.584 -13.568  0.00  0.00    +0.243 C 
ATOM     22  H   UNL     1      38.785 -27.425 -13.345  0.00  0.00    +0.145 HD
ATOM     23  H   UNL     1      37.262 -27.485 -14.111  0.00  0.00    +0.145 HD
ENDBRANCH   4  21
BRANCH   5  25
ATOM     24  O   UNL     1      32.294 -25.696 -13.330  0.00  0.00    -0.245 OA
ATOM     25  C   UNL     1      33.023 -24.704 -13.242  0.00  0.00    +0.338 C 
BRANCH  25  26
ATOM     26  O   UNL     1      32.701 -23.636 -12.462  0.00  0.00    -0.477 OA
ATOM     27  H   UNL     1      32.113 -22.981 -12.782  0.00  0.00    +0.295 HD
ENDBRANCH  25  26
ENDBRANCH   5  25
TORSDOF 5
ENDMDL
MODEL 5
REMARK VINA RESULT:     -10.4      3.109      4.833
REMARK  Name = 5287459
REMARK  5 active torsions:
REMARK  status: ('A' for Active; 'I' for Inactive)
REMARK    1  A    between atoms: C_1  and  C_7
REMARK    2  A    between atoms: C_4  and  C_21
REMARK    3  A    between atoms: C_5  and  C_25
REMARK    4  A    between atoms: C_8  and  C_13
REMARK    5  A    between atoms: C_25  and  O_26
REMARK                            x       y       z     vdW  Elec       q    Type
REMARK                         _______ _______ _______ _____ _____    ______ ____
ROOT
ATOM      1  C   UNL     1      34.064 -22.765 -17.417  0.00  0.00    +0.000 C 
ATOM      2  C   UNL     1      32.790 -23.104 -16.965  0.00  0.00    +0.005 C 
ATOM      3  C   UNL     1      35.191 -23.246 -16.750  0.00  0.00    +0.006 C 
ATOM      4  C   UNL     1      32.641 -23.925 -15.847  0.00  0.00    +0.053 C 
ATOM      5  C   UNL     1      35.043 -24.066 -15.632  0.00  0.00    +0.076 C 
ATOM      6  C   UNL     1      33.768 -24.406 -15.181  0.00  0.00    +0.011 C 
ENDROOT
BRANCH   1   7
ATOM      7  C   UNL     1      34.218 -21.913 -18.576  0.00  0.00    +0.000 C 
ATOM      8  C   UNL     1      34.517 -20.270 -20.811  0.00  0.00    +0.000 C 
ATOM      9  C   UNL     1      35.492 -21.643 -19.079  0.00  0.00    +0.000 C 
ATOM     10  C   UNL     1      33.095 -21.362 -19.191  0.00  0.00    +0.000 C 
ATOM     11  C   UNL     1      35.641 -20.821 -20.196  0.00  0.00    +0.000 C 
ATOM     12  C   UNL     1      33.244 -20.540 -20.308  0.00  0.00    +0.000 C 
BRANCH   8  13
ATOM     13  C   UNL     1      34.671 -19.417 -21.970  0.00  0.00    +0.000 C 
ATOM     14  C   UNL     1      34.366 -19.904 -23.240  0.00  0.00    +0.000 C 
ATOM     15  C   UNL     1      35.123 -18.107 -21.814  0.00  0.00    +0.000 C 
ATOM     16  C   UNL     1      34.514 -19.081 -24.357  0.00  0.00    +0.000 C 
ATOM     17  C   UNL     1      35.272 -17.284 -22.930  0.00  0.00    +0.000 C 
ATOM     18  C   UNL     1      34.967 -17.770 -24.202  0.00  0.00    +0.000 C 
ENDBRANCH   8  13
ENDBRANCH   1   7
BRANCH   4  21
ATOM     19  O   UNL     1      30.290 -23.914 -15.986  0.00  0.00    -0.270 OA
ATOM     20  N   UNL     1      31.216 -25.055 -14.225  0.00  0.00    -0.325 N 
ATOM     21  C   UNL     1      31.311 -24.279 -15.376  0.00  0.00    +0.243 C 
ATOM     22  H   UNL     1      30.332 -25.313 -13.876  0.00  0.00    +0.145 HD
ATOM     23  H   UNL     1      32.033 -25.347 -13.759  0.00  0.00    +0.145 HD
ENDBRANCH   4  21
BRANCH   5  25
ATOM     24  O   UNL     1      36.870 -23.947 -14.091  0.00  0.00    -0.245 OA
ATOM     25  C   UNL     1      36.218 -24.568 -14.937  0.00  0.00    +0.338 C 
BRANCH  25  26
ATOM     26  O   UNL     1      36.547 -25.833 -15.318  0.00  0.00    -0.477 OA
ATOM     27  H   UNL     1      37.422 -26.030 -15.586  0.00  0.00    +0.295 HD
ENDBRANCH  25  26
ENDBRANCH   5  25
TORSDOF 5
ENDMDL
MODEL 6
REMARK VINA RESULT:     -10.3      2.490      3.454
REMARK  Name = 5287459
REMARK  5 active torsions:
REMARK  status: ('A' for Active; 'I' for Inactive)
REMARK    1  A    between atoms: C_1  and  C_7
REMARK    2  A    between atoms: C_4  and  C_21
REMARK    3  A    between atoms: C_5  and  C_25
REMARK    4  A    between atoms: C_8  and  C_13
REMARK    5  A    between atoms: C_25  and  O_26
REMARK                            x       y       z     vdW  Elec       q    Type
REMARK                         _______ _______ _______ _____ _____    ______ ____
ROOT
ATOM      1  C   UNL     1      35.061 -23.578 -16.006  0.00  0.00    +0.000 C 
ATOM      2  C   UNL     1      33.792 -23.837 -15.489  0.00  0.00    +0.005 C 
ATOM      3  C   UNL     1      36.190 -24.098 -15.375  0.00  0.00    +0.006 C 
ATOM      4  C   UNL     1      33.652 -24.619 -14.342  0.00  0.00    +0.053 C 
ATOM      5  C   UNL     1      36.051 -24.878 -14.227  0.00  0.00    +0.076 C 
ATOM      6  C   UNL     1      34.782 -25.138 -13.711  0.00  0.00    +0.011 C 
ENDROOT
BRANCH   1   7
ATOM      7  C   UNL     1      35.206 -22.767 -17.196  0.00  0.00    +0.000 C 
ATOM      8  C   UNL     1      35.486 -21.204 -19.489  0.00  0.00    +0.000 C 
ATOM      9  C   UNL     1      36.442 -22.202 -17.508  0.00  0.00    +0.000 C 
ATOM     10  C   UNL     1      34.110 -22.552 -18.031  0.00  0.00    +0.000 C 
ATOM     11  C   UNL     1      36.582 -21.419 -18.654  0.00  0.00    +0.000 C 
ATOM     12  C   UNL     1      34.250 -21.769 -19.177  0.00  0.00    +0.000 C 
BRANCH   8  13
ATOM     13  C   UNL     1      35.631 -20.392 -20.679  0.00  0.00    +0.000 C 
ATOM     14  C   UNL     1      34.620 -20.375 -21.639  0.00  0.00    +0.000 C 
ATOM     15  C   UNL     1      36.781 -19.627 -20.864  0.00  0.00    +0.000 C 
ATOM     16  C   UNL     1      34.759 -19.592 -22.785  0.00  0.00    +0.000 C 
ATOM     17  C   UNL     1      36.922 -18.844 -22.010  0.00  0.00    +0.000 C 
ATOM     18  C   UNL     1      35.911 -18.826 -22.971  0.00  0.00    +0.000 C 
ENDBRANCH   8  13
ENDBRANCH   1   7
BRANCH   4  21
ATOM     19  O   UNL     1      32.179 -25.472 -12.714  0.00  0.00    -0.270 OA
ATOM     20  N   UNL     1      31.228 -24.459 -14.539  0.00  0.00    -0.325 N 
ATOM     21  C   UNL     1      32.329 -24.889 -13.803  0.00  0.00    +0.243 C 
ATOM     22  H   UNL     1      30.317 -24.625 -14.205  0.00  0.00    +0.145 HD
ATOM     23  H   UNL     1      31.362 -23.988 -15.393  0.00  0.00    +0.145 HD
ENDBRANCH   4  21
BRANCH   5  25
ATOM     24  O   UNL     1      37.322 -26.553 -13.086  0.00  0.00    -0.245 OA
ATOM     25  C   UNL     1      37.229 -25.421 -13.569  0.00  0.00    +0.338 C 
BRANCH  25  26
ATOM     26  O   UNL     1      38.261 -24.532 -13.535  0.00  0.00    -0.477 OA
ATOM     27  H   UNL     1      38.088 -23.612 -13.554  0.00  0.00    +0.295 HD
ENDBRANCH  25  26
ENDBRANCH   5  25
TORSDOF 5
ENDMDL
MODEL 7
REMARK VINA RESULT:     -10.2      2.779      4.894
REMARK  Name = 5287459
REMARK  5 active torsions:
REMARK  status: ('A' for Active; 'I' for Inactive)
REMARK    1  A    between atoms: C_1  and  C_7
REMARK    2  A    between atoms: C_4  and  C_21
REMARK    3  A    between atoms: C_5  and  C_25
REMARK    4  A    between atoms: C_8  and  C_13
REMARK    5  A    between atoms: C_25  and  O_26
REMARK                            x       y       z     vdW  Elec       q    Type
REMARK                         _______ _______ _______ _____ _____    ______ ____
ROOT
ATOM      1  C   UNL     1      34.356 -23.440 -16.425  0.00  0.00    +0.000 C 
ATOM      2  C   UNL     1      35.392 -24.211 -15.899  0.00  0.00    +0.005 C 
ATOM      3  C   UNL     1      33.096 -23.464 -15.827  0.00  0.00    +0.006 C 
ATOM      4  C   UNL     1      35.169 -25.004 -14.773  0.00  0.00    +0.053 C 
ATOM      5  C   UNL     1      32.873 -24.257 -14.702  0.00  0.00    +0.076 C 
ATOM      6  C   UNL     1      33.910 -25.027 -14.175  0.00  0.00    +0.011 C 
ENDROOT
BRANCH   1   7
ATOM      7  C   UNL     1      34.587 -22.618 -17.593  0.00  0.00    +0.000 C 
ATOM      8  C   UNL     1      35.031 -21.032 -19.845  0.00  0.00    +0.000 C 
ATOM      9  C   UNL     1      33.509 -22.196 -18.373  0.00  0.00    +0.000 C 
ATOM     10  C   UNL     1      35.886 -22.245 -17.938  0.00  0.00    +0.000 C 
ATOM     11  C   UNL     1      33.732 -21.404 -19.500  0.00  0.00    +0.000 C 
ATOM     12  C   UNL     1      36.108 -21.453 -19.065  0.00  0.00    +0.000 C 
BRANCH   8  13
ATOM     13  C   UNL     1      35.262 -20.210 -21.013  0.00  0.00    +0.000 C 
ATOM     14  C   UNL     1      36.393 -19.398 -21.083  0.00  0.00    +0.000 C 
ATOM     15  C   UNL     1      34.353 -20.232 -22.071  0.00  0.00    +0.000 C 
ATOM     16  C   UNL     1      36.616 -18.607 -22.210  0.00  0.00    +0.000 C 
ATOM     17  C   UNL     1      34.575 -19.441 -23.198  0.00  0.00    +0.000 C 
ATOM     18  C   UNL     1      35.706 -18.628 -23.268  0.00  0.00    +0.000 C 
ENDBRANCH   8  13
ENDBRANCH   1   7
BRANCH   4  21
ATOM     19  O   UNL     1      36.427 -25.904 -12.997  0.00  0.00    -0.270 OA
ATOM     20  N   UNL     1      37.074 -26.485 -15.120  0.00  0.00    -0.325 N 
ATOM     21  C   UNL     1      36.250 -25.808 -14.225  0.00  0.00    +0.243 C 
ATOM     22  H   UNL     1      37.816 -27.038 -14.785  0.00  0.00    +0.145 HD
ATOM     23  H   UNL     1      36.914 -26.410 -16.088  0.00  0.00    +0.145 HD
ENDBRANCH   4  21
BRANCH   5  25
ATOM     24  O   UNL     1      30.496 -24.528 -14.656  0.00  0.00    -0.245 OA
ATOM     25  C   UNL     1      31.559 -24.281 -14.078  0.00  0.00    +0.338 C 
BRANCH  25  26
ATOM     26  O   UNL     1      31.611 -23.997 -12.747  0.00  0.00    -0.477 OA
ATOM     27  H   UNL     1      31.204 -23.220 -12.418  0.00  0.00    +0.295 HD
ENDBRANCH  25  26
ENDBRANCH   5  25
TORSDOF 5
ENDMDL
MODEL 8
REMARK VINA RESULT:      -9.8     10.656     14.410
REMARK  Name = 5287459
REMARK  5 active torsions:
REMARK  status: ('A' for Active; 'I' for Inactive)
REMARK    1  A    between atoms: C_1  and  C_7
REMARK    2  A    between atoms: C_4  and  C_21
REMARK    3  A    between atoms: C_5  and  C_25
REMARK    4  A    between atoms: C_8  and  C_13
REMARK    5  A    between atoms: C_25  and  O_26
REMARK                            x       y       z     vdW  Elec       q    Type
REMARK                         _______ _______ _______ _____ _____    ______ ____
ROOT
ATOM      1  C   UNL     1      33.505 -13.510 -22.810  0.00  0.00    +0.000 C 
ATOM      2  C   UNL     1      33.869 -14.265 -21.696  0.00  0.00    +0.005 C 
ATOM      3  C   UNL     1      33.577 -14.070 -24.085  0.00  0.00    +0.006 C 
ATOM      4  C   UNL     1      34.304 -15.580 -21.856  0.00  0.00    +0.053 C 
ATOM      5  C   UNL     1      34.012 -15.385 -24.246  0.00  0.00    +0.076 C 
ATOM      6  C   UNL     1      34.376 -16.140 -23.131  0.00  0.00    +0.011 C 
ENDROOT
BRANCH   1   7
ATOM      7  C   UNL     1      33.054 -12.145 -22.644  0.00  0.00    +0.000 C 
ATOM      8  C   UNL     1      32.183  -9.514 -22.323  0.00  0.00    +0.000 C 
ATOM      9  C   UNL     1      32.041 -11.852 -21.730  0.00  0.00    +0.000 C 
ATOM     10  C   UNL     1      33.632 -11.123 -23.397  0.00  0.00    +0.000 C 
ATOM     11  C   UNL     1      31.606 -10.536 -21.570  0.00  0.00    +0.000 C 
ATOM     12  C   UNL     1      33.196  -9.807 -23.237  0.00  0.00    +0.000 C 
BRANCH   8  13
ATOM     13  C   UNL     1      31.732  -8.149 -22.158  0.00  0.00    +0.000 C 
ATOM     14  C   UNL     1      31.855  -7.518 -20.921  0.00  0.00    +0.000 C 
ATOM     15  C   UNL     1      31.174  -7.465 -23.238  0.00  0.00    +0.000 C 
ATOM     16  C   UNL     1      31.420  -6.202 -20.763  0.00  0.00    +0.000 C 
ATOM     17  C   UNL     1      30.738  -6.150 -23.080  0.00  0.00    +0.000 C 
ATOM     18  C   UNL     1      30.861  -5.517 -21.843  0.00  0.00    +0.000 C 
ENDBRANCH   8  13
ENDBRANCH   1   7
BRANCH   4  21
ATOM     19  O   UNL     1      34.500 -15.945 -19.537  0.00  0.00    -0.270 OA
ATOM     20  N   UNL     1      35.247 -17.621 -20.914  0.00  0.00    -0.325 N 
ATOM     21  C   UNL     1      34.684 -16.367 -20.693  0.00  0.00    +0.243 C 
ATOM     22  H   UNL     1      35.517 -18.181 -20.151  0.00  0.00    +0.145 HD
ATOM     23  H   UNL     1      35.375 -17.947 -21.834  0.00  0.00    +0.145 HD
ENDBRANCH   4  21
BRANCH   5  25
ATOM     24  O   UNL     1      33.786 -15.397 -26.628  0.00  0.00    -0.245 OA
ATOM     25  C   UNL     1      34.087 -15.969 -25.576  0.00  0.00    +0.338 C 
BRANCH  25  26
ATOM     26  O   UNL     1      34.538 -17.254 -25.555  0.00  0.00    -0.477 OA
ATOM     27  H   UNL     1      34.762 -17.686 -26.355  0.00  0.00    +0.295 HD
ENDBRANCH  25  26
ENDBRANCH   5  25
TORSDOF 5
ENDMDL
MODEL 9
REMARK VINA RESULT:      -9.3     10.860     14.679
REMARK  Name = 5287459
REMARK  5 active torsions:
REMARK  status: ('A' for Active; 'I' for Inactive)
REMARK    1  A    between atoms: C_1  and  C_7
REMARK    2  A    between atoms: C_4  and  C_21
REMARK    3  A    between atoms: C_5  and  C_25
REMARK    4  A    between atoms: C_8  and  C_13
REMARK    5  A    between atoms: C_25  and  O_26
REMARK                            x       y       z     vdW  Elec       q    Type
REMARK                         _______ _______ _______ _____ _____    ______ ____
ROOT
ATOM      1  C   UNL     1      33.391 -13.391 -22.754  0.00  0.00    +0.000 C 
ATOM      2  C   UNL     1      33.411 -13.983 -24.016  0.00  0.00    +0.005 C 
ATOM      3  C   UNL     1      33.774 -14.125 -21.632  0.00  0.00    +0.006 C 
ATOM      4  C   UNL     1      33.817 -15.310 -24.157  0.00  0.00    +0.053 C 
ATOM      5  C   UNL     1      34.179 -15.453 -21.773  0.00  0.00    +0.076 C 
ATOM      6  C   UNL     1      34.200 -16.044 -23.036  0.00  0.00    +0.011 C 
ENDROOT
BRANCH   1   7
ATOM      7  C   UNL     1      32.970 -12.014 -22.607  0.00  0.00    +0.000 C 
ATOM      8  C   UNL     1      32.157  -9.360 -22.324  0.00  0.00    +0.000 C 
ATOM      9  C   UNL     1      31.949 -11.688 -21.714  0.00  0.00    +0.000 C 
ATOM     10  C   UNL     1      33.584 -11.013 -23.359  0.00  0.00    +0.000 C 
ATOM     11  C   UNL     1      31.542 -10.361 -21.573  0.00  0.00    +0.000 C 
ATOM     12  C   UNL     1      33.178  -9.686 -23.218  0.00  0.00    +0.000 C 
BRANCH   8  13
ATOM     13  C   UNL     1      31.735  -7.983 -22.179  0.00  0.00    +0.000 C 
ATOM     14  C   UNL     1      31.209  -7.296 -23.272  0.00  0.00    +0.000 C 
ATOM     15  C   UNL     1      31.856  -7.345 -20.945  0.00  0.00    +0.000 C 
ATOM     16  C   UNL     1      30.801  -5.969 -23.131  0.00  0.00    +0.000 C 
ATOM     17  C   UNL     1      31.449  -6.018 -20.804  0.00  0.00    +0.000 C 
ATOM     18  C   UNL     1      30.922  -5.329 -21.896  0.00  0.00    +0.000 C 
ENDBRANCH   8  13
ENDBRANCH   1   7
BRANCH   4  21
ATOM     19  O   UNL     1      34.800 -16.625 -25.846  0.00  0.00    -0.270 OA
ATOM     20  N   UNL     1      32.738 -15.728 -26.302  0.00  0.00    -0.325 N 
ATOM     21  C   UNL     1      33.839 -15.928 -25.473  0.00  0.00    +0.243 C 
ATOM     22  H   UNL     1      32.719 -16.131 -27.200  0.00  0.00    +0.145 HD
ATOM     23  H   UNL     1      31.979 -15.185 -25.989  0.00  0.00    +0.145 HD
ENDBRANCH   4  21
BRANCH   5  25
ATOM     24  O   UNL     1      35.264 -17.246 -20.619  0.00  0.00    -0.245 OA
ATOM     25  C   UNL     1      34.578 -16.219 -20.603  0.00  0.00    +0.338 C 
BRANCH  25  26
ATOM     26  O   UNL     1      34.111 -15.679 -19.443  0.00  0.00    -0.477 OA
ATOM     27  H   UNL     1      33.777 -14.804 -19.435  0.00  0.00    +0.295 HD
ENDBRANCH  25  26
ENDBRANCH   5  25
TORSDOF 5
ENDMDL
