MODEL 1
REMARK VINA RESULT:     -11.0      0.000      0.000
REMARK  Name = 44629554
REMARK  5 active torsions:
REMARK  status: ('A' for Active; 'I' for Inactive)
REMARK    1  A    between atoms: C_5  and  C_30
REMARK    2  A    between atoms: C_6  and  N_18
REMARK    3  A    between atoms: C_7  and  C_12
REMARK    4  A    between atoms: N_18  and  C_20
REMARK    5  A    between atoms: C_20  and  C_24
REMARK                            x       y       z     vdW  Elec       q    Type
REMARK                         _______ _______ _______ _____ _____    ______ ____
ROOT
ATOM      1  N   UNL     1      32.925 -23.471 -16.066  0.00  0.00    -0.152 N 
ATOM      2  N   UNL     1      35.275 -23.959 -15.878  0.00  0.00    -0.389 NA
ATOM      3  N   UNL     1      32.051 -22.893 -16.939  0.00  0.00    -0.174 NA
ATOM      4  C   UNL     1      34.227 -23.440 -16.570  0.00  0.00    +0.189 C 
ATOM      5  C   UNL     1      34.158 -22.821 -17.797  0.00  0.00    +0.112 C 
ATOM      6  C   UNL     1      32.641 -24.036 -14.813  0.00  0.00    +0.126 C 
ATOM      7  C   UNL     1      35.011 -24.497 -14.721  0.00  0.00    +0.140 C 
ATOM      8  C   UNL     1      33.652 -24.560 -14.099  0.00  0.00    +0.064 C 
ATOM      9  C   UNL     1      32.804 -22.511 -17.968  0.00  0.00    +0.100 C 
ENDROOT
BRANCH   7  12
ATOM     10  F   UNL     1      36.148 -23.192 -12.492  0.00  0.00    -0.204 F 
ATOM     11  F   UNL     1      36.161 -27.001 -15.331  0.00  0.00    -0.204 F 
ATOM     12  C   UNL     1      36.126 -25.082 -13.932  0.00  0.00    +0.085 C 
ATOM     13  C   UNL     1      36.645 -24.389 -12.839  0.00  0.00    +0.145 C 
ATOM     14  C   UNL     1      36.652 -26.325 -14.282  0.00  0.00    +0.145 C 
ATOM     15  C   UNL     1      37.692 -24.938 -12.096  0.00  0.00    +0.030 C 
ATOM     16  C   UNL     1      37.698 -26.875 -13.541  0.00  0.00    +0.030 C 
ATOM     17  C   UNL     1      38.218 -26.180 -12.448  0.00  0.00    +0.005 C 
ENDBRANCH   7  12
BRANCH   6  18
ATOM     18  N   UNL     1      31.342 -24.010 -14.389  0.00  0.00    -0.316 N 
ATOM     19  H   UNL     1      31.082 -23.335 -13.721  0.00  0.00    +0.148 HD
BRANCH  18  20
ATOM     20  C   UNL     1      30.335 -24.919 -14.870  0.00  0.00    +0.114 C 
BRANCH  20  24
ATOM     21  N   UNL     1      27.950 -22.169 -15.905  0.00  0.00    -0.181 NA
ATOM     22  N   UNL     1      27.558 -24.091 -17.304  0.00  0.00    -0.204 NA
ATOM     23  N   UNL     1      26.305 -22.127 -17.579  0.00  0.00    -0.303 N 
ATOM     24  C   UNL     1      29.254 -24.169 -15.598  0.00  0.00    +0.020 C 
ATOM     25  C   UNL     1      28.914 -22.871 -15.274  0.00  0.00    +0.106 C 
ATOM     26  C   UNL     1      28.534 -24.735 -16.631  0.00  0.00    +0.163 C 
ATOM     27  C   UNL     1      27.321 -22.830 -16.895  0.00  0.00    +0.084 C 
ATOM     28  H   UNL     1      26.089 -21.201 -17.322  0.00  0.00    +0.154 HD
ATOM     29  H   UNL     1      25.812 -22.561 -18.311  0.00  0.00    +0.154 HD
ENDBRANCH  20  24
ENDBRANCH  18  20
ENDBRANCH   6  18
BRANCH   5  30
ATOM     30  C   UNL     1      35.265 -22.546 -18.728  0.00  0.00    +0.015 C 
ATOM     31  C   UNL     1      34.986 -21.357 -19.656  0.00  0.00    +0.001 C 
ENDBRANCH   5  30
TORSDOF 5
ENDMDL
MODEL 2
REMARK VINA RESULT:     -10.9      2.505      7.380
REMARK  Name = 44629554
REMARK  5 active torsions:
REMARK  status: ('A' for Active; 'I' for Inactive)
REMARK    1  A    between atoms: C_5  and  C_30
REMARK    2  A    between atoms: C_6  and  N_18
REMARK    3  A    between atoms: C_7  and  C_12
REMARK    4  A    between atoms: N_18  and  C_20
REMARK    5  A    between atoms: C_20  and  C_24
REMARK                            x       y       z     vdW  Elec       q    Type
REMARK                         _______ _______ _______ _____ _____    ______ ____
ROOT
ATOM      1  N   UNL     1      32.694 -24.535 -13.696  0.00  0.00    -0.152 N 
ATOM      2  N   UNL     1      32.769 -23.299 -15.762  0.00  0.00    -0.389 NA
ATOM      3  N   UNL     1      31.783 -24.979 -12.784  0.00  0.00    -0.174 NA
ATOM      4  C   UNL     1      32.066 -23.838 -14.730  0.00  0.00    +0.189 C 
ATOM      5  C   UNL     1      30.719 -23.847 -14.448  0.00  0.00    +0.112 C 
ATOM      6  C   UNL     1      34.087 -24.707 -13.673  0.00  0.00    +0.126 C 
ATOM      7  C   UNL     1      34.060 -23.470 -15.749  0.00  0.00    +0.140 C 
ATOM      8  C   UNL     1      34.816 -24.189 -14.677  0.00  0.00    +0.064 C 
ATOM      9  C   UNL     1      30.608 -24.560 -13.249  0.00  0.00    +0.100 C 
ENDROOT
BRANCH   7  12
ATOM     10  F   UNL     1      33.097 -23.286 -18.395  0.00  0.00    -0.204 F 
ATOM     11  F   UNL     1      36.681 -22.490 -15.381  0.00  0.00    -0.204 F 
ATOM     12  C   UNL     1      34.868 -22.903 -16.860  0.00  0.00    +0.085 C 
ATOM     13  C   UNL     1      34.336 -22.838 -18.147  0.00  0.00    +0.145 C 
ATOM     14  C   UNL     1      36.158 -22.433 -16.615  0.00  0.00    +0.145 C 
ATOM     15  C   UNL     1      35.094 -22.305 -19.191  0.00  0.00    +0.030 C 
ATOM     16  C   UNL     1      36.917 -21.901 -17.657  0.00  0.00    +0.030 C 
ATOM     17  C   UNL     1      36.385 -21.837 -18.945  0.00  0.00    +0.005 C 
ENDBRANCH   7  12
BRANCH   6  18
ATOM     18  N   UNL     1      34.621 -25.389 -12.616  0.00  0.00    -0.316 N 
ATOM     19  H   UNL     1      34.227 -26.257 -12.374  0.00  0.00    +0.148 HD
BRANCH  18  20
ATOM     20  C   UNL     1      35.730 -24.901 -11.840  0.00  0.00    +0.114 C 
BRANCH  20  24
ATOM     21  N   UNL     1      39.353 -24.975 -12.934  0.00  0.00    -0.181 NA
ATOM     22  N   UNL     1      38.317 -27.055 -13.571  0.00  0.00    -0.204 NA
ATOM     23  N   UNL     1      40.576 -26.640 -14.045  0.00  0.00    -0.303 N 
ATOM     24  C   UNL     1      37.032 -25.368 -12.431  0.00  0.00    +0.020 C 
ATOM     25  C   UNL     1      38.170 -24.588 -12.412  0.00  0.00    +0.106 C 
ATOM     26  C   UNL     1      37.165 -26.604 -13.030  0.00  0.00    +0.163 C 
ATOM     27  C   UNL     1      39.355 -26.201 -13.488  0.00  0.00    +0.084 C 
ATOM     28  H   UNL     1      41.370 -26.057 -14.013  0.00  0.00    +0.154 HD
ATOM     29  H   UNL     1      40.636 -27.529 -14.464  0.00  0.00    +0.154 HD
ENDBRANCH  20  24
ENDBRANCH  18  20
ENDBRANCH   6  18
BRANCH   5  30
ATOM     30  C   UNL     1      29.632 -23.244 -15.236  0.00  0.00    +0.015 C 
ATOM     31  C   UNL     1      28.694 -24.285 -15.859  0.00  0.00    +0.001 C 
ENDBRANCH   5  30
TORSDOF 5
ENDMDL
MODEL 3
REMARK VINA RESULT:     -10.7      2.755      7.425
REMARK  Name = 44629554
REMARK  5 active torsions:
REMARK  status: ('A' for Active; 'I' for Inactive)
REMARK    1  A    between atoms: C_5  and  C_30
REMARK    2  A    between atoms: C_6  and  N_18
REMARK    3  A    between atoms: C_7  and  C_12
REMARK    4  A    between atoms: N_18  and  C_20
REMARK    5  A    between atoms: C_20  and  C_24
REMARK                            x       y       z     vdW  Elec       q    Type
REMARK                         _______ _______ _______ _____ _____    ______ ____
ROOT
ATOM      1  N   UNL     1      35.316 -23.305 -14.990  0.00  0.00    -0.152 N 
ATOM      2  N   UNL     1      33.282 -23.455 -16.271  0.00  0.00    -0.389 NA
ATOM      3  N   UNL     1      36.626 -22.968 -15.158  0.00  0.00    -0.174 NA
ATOM      4  C   UNL     1      34.610 -23.176 -16.188  0.00  0.00    +0.189 C 
ATOM      5  C   UNL     1      35.514 -22.745 -17.132  0.00  0.00    +0.112 C 
ATOM      6  C   UNL     1      34.684 -23.738 -13.814  0.00  0.00    +0.126 C 
ATOM      7  C   UNL     1      32.691 -23.842 -15.178  0.00  0.00    +0.140 C 
ATOM      8  C   UNL     1      33.371 -24.022 -13.857  0.00  0.00    +0.064 C 
ATOM      9  C   UNL     1      36.728 -22.635 -16.443  0.00  0.00    +0.100 C 
ENDROOT
BRANCH   7  12
ATOM     10  F   UNL     1      30.862 -22.372 -16.745  0.00  0.00    -0.204 F 
ATOM     11  F   UNL     1      31.540 -25.952 -13.697  0.00  0.00    -0.204 F 
ATOM     12  C   UNL     1      31.238 -24.154 -15.220  0.00  0.00    +0.085 C 
ATOM     13  C   UNL     1      30.385 -23.390 -16.015  0.00  0.00    +0.145 C 
ATOM     14  C   UNL     1      30.729 -25.211 -14.466  0.00  0.00    +0.145 C 
ATOM     15  C   UNL     1      29.020 -23.682 -16.056  0.00  0.00    +0.030 C 
ATOM     16  C   UNL     1      29.366 -25.503 -14.506  0.00  0.00    +0.030 C 
ATOM     17  C   UNL     1      28.512 -24.739 -15.301  0.00  0.00    +0.005 C 
ENDBRANCH   7  12
BRANCH   6  18
ATOM     18  N   UNL     1      35.452 -23.851 -12.690  0.00  0.00    -0.316 N 
ATOM     19  H   UNL     1      35.750 -23.026 -12.243  0.00  0.00    +0.148 HD
BRANCH  18  20
ATOM     20  C   UNL     1      35.848 -25.115 -12.127  0.00  0.00    +0.114 C 
BRANCH  20  24
ATOM     21  N   UNL     1      39.512 -25.234 -13.069  0.00  0.00    -0.181 NA
ATOM     22  N   UNL     1      38.414 -27.157 -14.017  0.00  0.00    -0.204 NA
ATOM     23  N   UNL     1      40.710 -26.803 -14.337  0.00  0.00    -0.303 N 
ATOM     24  C   UNL     1      37.154 -25.568 -12.720  0.00  0.00    +0.020 C 
ATOM     25  C   UNL     1      38.324 -24.857 -12.551  0.00  0.00    +0.106 C 
ATOM     26  C   UNL     1      37.260 -26.722 -13.470  0.00  0.00    +0.163 C 
ATOM     27  C   UNL     1      39.485 -26.376 -13.780  0.00  0.00    +0.084 C 
ATOM     28  H   UNL     1      41.527 -26.270 -14.197  0.00  0.00    +0.154 HD
ATOM     29  H   UNL     1      40.750 -27.631 -14.867  0.00  0.00    +0.154 HD
ENDBRANCH  20  24
ENDBRANCH  18  20
ENDBRANCH   6  18
BRANCH   5  30
ATOM     30  C   UNL     1      35.262 -22.460 -18.554  0.00  0.00    +0.015 C 
ATOM     31  C   UNL     1      36.381 -21.640 -19.209  0.00  0.00    +0.001 C 
ENDBRANCH   5  30
TORSDOF 5
ENDMDL
MODEL 4
REMARK VINA RESULT:     -10.7      2.756      7.461
REMARK  Name = 44629554
REMARK  5 active torsions:
REMARK  status: ('A' for Active; 'I' for Inactive)
REMARK    1  A    between atoms: C_5  and  C_30
REMARK    2  A    between atoms: C_6  and  N_18
REMARK    3  A    between atoms: C_7  and  C_12
REMARK    4  A    between atoms: N_18  and  C_20
REMARK    5  A    between atoms: C_20  and  C_24
REMARK                            x       y       z     vdW  Elec       q    Type
REMARK                         _______ _______ _______ _____ _____    ______ ____
ROOT
ATOM      1  N   UNL     1      35.319 -23.311 -14.980  0.00  0.00    -0.152 N 
ATOM      2  N   UNL     1      33.285 -23.463 -16.260  0.00  0.00    -0.389 NA
ATOM      3  N   UNL     1      36.628 -22.971 -15.148  0.00  0.00    -0.174 NA
ATOM      4  C   UNL     1      34.612 -23.182 -16.177  0.00  0.00    +0.189 C 
ATOM      5  C   UNL     1      35.515 -22.750 -17.121  0.00  0.00    +0.112 C 
ATOM      6  C   UNL     1      34.687 -23.745 -13.803  0.00  0.00    +0.126 C 
ATOM      7  C   UNL     1      32.695 -23.852 -15.166  0.00  0.00    +0.140 C 
ATOM      8  C   UNL     1      33.375 -24.032 -13.846  0.00  0.00    +0.064 C 
ATOM      9  C   UNL     1      36.729 -22.638 -16.433  0.00  0.00    +0.100 C 
ENDROOT
BRANCH   7  12
ATOM     10  F   UNL     1      31.548 -25.965 -13.688  0.00  0.00    -0.204 F 
ATOM     11  F   UNL     1      30.863 -22.382 -16.731  0.00  0.00    -0.204 F 
ATOM     12  C   UNL     1      31.242 -24.166 -15.208  0.00  0.00    +0.085 C 
ATOM     13  C   UNL     1      30.735 -25.222 -14.453  0.00  0.00    +0.145 C 
ATOM     14  C   UNL     1      30.386 -23.401 -16.001  0.00  0.00    +0.145 C 
ATOM     15  C   UNL     1      29.371 -25.517 -14.492  0.00  0.00    +0.030 C 
ATOM     16  C   UNL     1      29.023 -23.695 -16.040  0.00  0.00    +0.030 C 
ATOM     17  C   UNL     1      28.516 -24.753 -15.285  0.00  0.00    +0.005 C 
ENDBRANCH   7  12
BRANCH   6  18
ATOM     18  N   UNL     1      35.457 -23.858 -12.680  0.00  0.00    -0.316 N 
ATOM     19  H   UNL     1      35.754 -23.033 -12.232  0.00  0.00    +0.148 HD
BRANCH  18  20
ATOM     20  C   UNL     1      35.854 -25.122 -12.118  0.00  0.00    +0.114 C 
BRANCH  20  24
ATOM     21  N   UNL     1      39.513 -25.233 -13.077  0.00  0.00    -0.181 NA
ATOM     22  N   UNL     1      38.419 -27.170 -14.002  0.00  0.00    -0.204 NA
ATOM     23  N   UNL     1      40.712 -26.808 -14.338  0.00  0.00    -0.303 N 
ATOM     24  C   UNL     1      37.159 -25.574 -12.713  0.00  0.00    +0.020 C 
ATOM     25  C   UNL     1      38.327 -24.857 -12.556  0.00  0.00    +0.106 C 
ATOM     26  C   UNL     1      37.266 -26.735 -13.454  0.00  0.00    +0.163 C 
ATOM     27  C   UNL     1      39.488 -26.382 -13.778  0.00  0.00    +0.084 C 
ATOM     28  H   UNL     1      41.527 -26.271 -14.206  0.00  0.00    +0.154 HD
ATOM     29  H   UNL     1      40.752 -27.641 -14.861  0.00  0.00    +0.154 HD
ENDBRANCH  20  24
ENDBRANCH  18  20
ENDBRANCH   6  18
BRANCH   5  30
ATOM     30  C   UNL     1      35.262 -22.464 -18.543  0.00  0.00    +0.015 C 
ATOM     31  C   UNL     1      36.382 -21.645 -19.198  0.00  0.00    +0.001 C 
ENDBRANCH   5  30
TORSDOF 5
ENDMDL
MODEL 5
REMARK VINA RESULT:     -10.6      2.489      5.813
REMARK  Name = 44629554
REMARK  5 active torsions:
REMARK  status: ('A' for Active; 'I' for Inactive)
REMARK    1  A    between atoms: C_5  and  C_30
REMARK    2  A    between atoms: C_6  and  N_18
REMARK    3  A    between atoms: C_7  and  C_12
REMARK    4  A    between atoms: N_18  and  C_20
REMARK    5  A    between atoms: C_20  and  C_24
REMARK                            x       y       z     vdW  Elec       q    Type
REMARK                         _______ _______ _______ _____ _____    ______ ____
ROOT
ATOM      1  N   UNL     1      32.943 -23.392 -16.302  0.00  0.00    -0.152 N 
ATOM      2  N   UNL     1      33.680 -24.589 -14.347  0.00  0.00    -0.389 NA
ATOM      3  N   UNL     1      31.789 -22.934 -16.865  0.00  0.00    -0.174 NA
ATOM      4  C   UNL     1      32.684 -24.045 -15.096  0.00  0.00    +0.189 C 
ATOM      5  C   UNL     1      31.322 -23.992 -14.905  0.00  0.00    +0.112 C 
ATOM      6  C   UNL     1      34.249 -23.272 -16.801  0.00  0.00    +0.126 C 
ATOM      7  C   UNL     1      34.894 -24.466 -14.801  0.00  0.00    +0.140 C 
ATOM      8  C   UNL     1      35.261 -23.796 -16.088  0.00  0.00    +0.064 C 
ATOM      9  C   UNL     1      30.830 -23.300 -16.017  0.00  0.00    +0.100 C 
ENDROOT
BRANCH   7  12
ATOM     10  F   UNL     1      36.053 -26.968 -15.399  0.00  0.00    -0.204 F 
ATOM     11  F   UNL     1      36.036 -23.140 -12.586  0.00  0.00    -0.204 F 
ATOM     12  C   UNL     1      36.016 -25.040 -14.013  0.00  0.00    +0.085 C 
ATOM     13  C   UNL     1      36.548 -26.282 -14.359  0.00  0.00    +0.145 C 
ATOM     14  C   UNL     1      36.539 -24.336 -12.928  0.00  0.00    +0.145 C 
ATOM     15  C   UNL     1      37.601 -26.821 -13.619  0.00  0.00    +0.030 C 
ATOM     16  C   UNL     1      37.592 -24.874 -12.189  0.00  0.00    +0.030 C 
ATOM     17  C   UNL     1      38.123 -26.117 -12.534  0.00  0.00    +0.005 C 
ENDBRANCH   7  12
BRANCH   6  18
ATOM     18  N   UNL     1      34.411 -22.631 -17.997  0.00  0.00    -0.316 N 
ATOM     19  H   UNL     1      33.607 -22.342 -18.484  0.00  0.00    +0.148 HD
BRANCH  18  20
ATOM     20  C   UNL     1      35.699 -22.358 -18.579  0.00  0.00    +0.114 C 
BRANCH  20  24
ATOM     21  N   UNL     1      34.299 -19.851 -21.044  0.00  0.00    -0.181 NA
ATOM     22  N   UNL     1      36.649 -19.411 -20.755  0.00  0.00    -0.204 NA
ATOM     23  N   UNL     1      35.348 -18.100 -22.201  0.00  0.00    -0.303 N 
ATOM     24  C   UNL     1      35.604 -21.215 -19.551  0.00  0.00    +0.020 C 
ATOM     25  C   UNL     1      34.419 -20.870 -20.167  0.00  0.00    +0.106 C 
ATOM     26  C   UNL     1      36.699 -20.443 -19.887  0.00  0.00    +0.163 C 
ATOM     27  C   UNL     1      35.436 -19.174 -21.288  0.00  0.00    +0.084 C 
ATOM     28  H   UNL     1      34.485 -17.881 -22.622  0.00  0.00    +0.154 HD
ATOM     29  H   UNL     1      36.149 -17.570 -22.418  0.00  0.00    +0.154 HD
ENDBRANCH  20  24
ENDBRANCH  18  20
ENDBRANCH   6  18
BRANCH   5  30
ATOM     30  C   UNL     1      30.551 -24.539 -13.777  0.00  0.00    +0.015 C 
ATOM     31  C   UNL     1      29.497 -25.565 -14.213  0.00  0.00    +0.001 C 
ENDBRANCH   5  30
TORSDOF 5
ENDMDL
MODEL 6
REMARK VINA RESULT:     -10.5      1.928      4.746
REMARK  Name = 44629554
REMARK  5 active torsions:
REMARK  status: ('A' for Active; 'I' for Inactive)
REMARK    1  A    between atoms: C_5  and  C_30
REMARK    2  A    between atoms: C_6  and  N_18
REMARK    3  A    between atoms: C_7  and  C_12
REMARK    4  A    between atoms: N_18  and  C_20
REMARK    5  A    between atoms: C_20  and  C_24
REMARK                            x       y       z     vdW  Elec       q    Type
REMARK                         _______ _______ _______ _____ _____    ______ ____
ROOT
ATOM      1  N   UNL     1      34.552 -24.456 -13.139  0.00  0.00    -0.152 N 
ATOM      2  N   UNL     1      36.068 -23.886 -14.921  0.00  0.00    -0.389 NA
ATOM      3  N   UNL     1      34.576 -24.998 -11.889  0.00  0.00    -0.174 NA
ATOM      4  C   UNL     1      35.837 -24.392 -13.680  0.00  0.00    +0.189 C 
ATOM      5  C   UNL     1      36.688 -24.914 -12.734  0.00  0.00    +0.112 C 
ATOM      6  C   UNL     1      33.434 -24.004 -13.859  0.00  0.00    +0.126 C 
ATOM      7  C   UNL     1      35.034 -23.453 -15.584  0.00  0.00    +0.140 C 
ATOM      8  C   UNL     1      33.623 -23.496 -15.088  0.00  0.00    +0.064 C 
ATOM      9  C   UNL     1      35.860 -25.266 -11.662  0.00  0.00    +0.100 C 
ENDROOT
BRANCH   7  12
ATOM     10  F   UNL     1      33.065 -23.577 -17.601  0.00  0.00    -0.204 F 
ATOM     11  F   UNL     1      37.425 -22.166 -16.352  0.00  0.00    -0.204 F 
ATOM     12  C   UNL     1      35.240 -22.886 -16.942  0.00  0.00    +0.085 C 
ATOM     13  C   UNL     1      34.228 -22.978 -17.897  0.00  0.00    +0.145 C 
ATOM     14  C   UNL     1      36.445 -22.260 -17.262  0.00  0.00    +0.145 C 
ATOM     15  C   UNL     1      34.419 -22.445 -19.172  0.00  0.00    +0.030 C 
ATOM     16  C   UNL     1      36.637 -21.727 -18.537  0.00  0.00    +0.030 C 
ATOM     17  C   UNL     1      35.625 -21.820 -19.492  0.00  0.00    +0.005 C 
ENDBRANCH   7  12
BRANCH   6  18
ATOM     18  N   UNL     1      32.211 -24.118 -13.260  0.00  0.00    -0.316 N 
ATOM     19  H   UNL     1      31.991 -23.501 -12.526  0.00  0.00    +0.148 HD
BRANCH  18  20
ATOM     20  C   UNL     1      31.228 -25.095 -13.650  0.00  0.00    +0.114 C 
BRANCH  20  24
ATOM     21  N   UNL     1      28.968 -22.521 -15.257  0.00  0.00    -0.181 NA
ATOM     22  N   UNL     1      28.493 -24.672 -16.231  0.00  0.00    -0.204 NA
ATOM     23  N   UNL     1      27.329 -22.756 -16.920  0.00  0.00    -0.303 N 
ATOM     24  C   UNL     1      30.182 -24.467 -14.528  0.00  0.00    +0.020 C 
ATOM     25  C   UNL     1      29.900 -23.117 -14.485  0.00  0.00    +0.106 C 
ATOM     26  C   UNL     1      29.439 -25.203 -15.429  0.00  0.00    +0.163 C 
ATOM     27  C   UNL     1      28.312 -23.345 -16.095  0.00  0.00    +0.084 C 
ATOM     28  H   UNL     1      27.154 -21.789 -16.863  0.00  0.00    +0.154 HD
ATOM     29  H   UNL     1      26.818 -23.312 -17.552  0.00  0.00    +0.154 HD
ENDBRANCH  20  24
ENDBRANCH  18  20
ENDBRANCH   6  18
BRANCH   5  30
ATOM     30  C   UNL     1      38.149 -25.068 -12.825  0.00  0.00    +0.015 C 
ATOM     31  C   UNL     1      38.574 -26.241 -13.717  0.00  0.00    +0.001 C 
ENDBRANCH   5  30
TORSDOF 5
ENDMDL
MODEL 7
REMARK VINA RESULT:     -10.4      3.188      7.039
REMARK  Name = 44629554
REMARK  5 active torsions:
REMARK  status: ('A' for Active; 'I' for Inactive)
REMARK    1  A    between atoms: C_5  and  C_30
REMARK    2  A    between atoms: C_6  and  N_18
REMARK    3  A    between atoms: C_7  and  C_12
REMARK    4  A    between atoms: N_18  and  C_20
REMARK    5  A    between atoms: C_20  and  C_24
REMARK                            x       y       z     vdW  Elec       q    Type
REMARK                         _______ _______ _______ _____ _____    ______ ____
ROOT
ATOM      1  N   UNL     1      35.527 -23.264 -15.611  0.00  0.00    -0.152 N 
ATOM      2  N   UNL     1      33.734 -23.958 -14.162  0.00  0.00    -0.389 NA
ATOM      3  N   UNL     1      36.864 -23.004 -15.557  0.00  0.00    -0.174 NA
ATOM      4  C   UNL     1      35.042 -23.645 -14.358  0.00  0.00    +0.189 C 
ATOM      5  C   UNL     1      36.115 -23.619 -13.497  0.00  0.00    +0.112 C 
ATOM      6  C   UNL     1      34.680 -23.179 -16.727  0.00  0.00    +0.126 C 
ATOM      7  C   UNL     1      32.949 -23.894 -15.199  0.00  0.00    +0.140 C 
ATOM      8  C   UNL     1      33.380 -23.482 -16.572  0.00  0.00    +0.064 C 
ATOM      9  C   UNL     1      37.200 -23.221 -14.287  0.00  0.00    +0.100 C 
ENDROOT
BRANCH   7  12
ATOM     10  F   UNL     1      32.056 -25.948 -13.482  0.00  0.00    -0.204 F 
ATOM     11  F   UNL     1      30.893 -22.534 -16.574  0.00  0.00    -0.204 F 
ATOM     12  C   UNL     1      31.511 -24.233 -15.032  0.00  0.00    +0.085 C 
ATOM     13  C   UNL     1      31.132 -25.258 -14.167  0.00  0.00    +0.145 C 
ATOM     14  C   UNL     1      30.541 -23.523 -15.739  0.00  0.00    +0.145 C 
ATOM     15  C   UNL     1      29.783 -25.576 -14.009  0.00  0.00    +0.030 C 
ATOM     16  C   UNL     1      29.191 -23.840 -15.582  0.00  0.00    +0.030 C 
ATOM     17  C   UNL     1      28.813 -24.867 -14.717  0.00  0.00    +0.005 C 
ENDBRANCH   7  12
BRANCH   6  18
ATOM     18  N   UNL     1      35.234 -22.783 -17.911  0.00  0.00    -0.316 N 
ATOM     19  H   UNL     1      36.212 -22.682 -17.959  0.00  0.00    +0.148 HD
BRANCH  18  20
ATOM     20  C   UNL     1      34.460 -22.505 -19.093  0.00  0.00    +0.114 C 
BRANCH  20  24
ATOM     21  N   UNL     1      36.906 -19.929 -20.397  0.00  0.00    -0.181 NA
ATOM     22  N   UNL     1      34.724 -19.435 -21.290  0.00  0.00    -0.204 NA
ATOM     23  N   UNL     1      36.575 -18.098 -21.827  0.00  0.00    -0.303 N 
ATOM     24  C   UNL     1      35.028 -21.322 -19.827  0.00  0.00    +0.020 C 
ATOM     25  C   UNL     1      36.364 -20.983 -19.753  0.00  0.00    +0.106 C 
ATOM     26  C   UNL     1      34.247 -20.504 -20.618  0.00  0.00    +0.163 C 
ATOM     27  C   UNL     1      36.043 -19.209 -21.137  0.00  0.00    +0.084 C 
ATOM     28  H   UNL     1      37.533 -17.885 -21.752  0.00  0.00    +0.154 HD
ATOM     29  H   UNL     1      35.989 -17.536 -22.383  0.00  0.00    +0.154 HD
ENDBRANCH  20  24
ENDBRANCH  18  20
ENDBRANCH   6  18
BRANCH   5  30
ATOM     30  C   UNL     1      36.122 -23.941 -12.061  0.00  0.00    +0.015 C 
ATOM     31  C   UNL     1      37.221 -23.202 -11.286  0.00  0.00    +0.001 C 
ENDBRANCH   5  30
TORSDOF 5
ENDMDL
MODEL 8
REMARK VINA RESULT:     -10.4      3.189      7.026
REMARK  Name = 44629554
REMARK  5 active torsions:
REMARK  status: ('A' for Active; 'I' for Inactive)
REMARK    1  A    between atoms: C_5  and  C_30
REMARK    2  A    between atoms: C_6  and  N_18
REMARK    3  A    between atoms: C_7  and  C_12
REMARK    4  A    between atoms: N_18  and  C_20
REMARK    5  A    between atoms: C_20  and  C_24
REMARK                            x       y       z     vdW  Elec       q    Type
REMARK                         _______ _______ _______ _____ _____    ______ ____
ROOT
ATOM      1  N   UNL     1      35.531 -23.270 -15.583  0.00  0.00    -0.152 N 
ATOM      2  N   UNL     1      33.725 -23.962 -14.149  0.00  0.00    -0.389 NA
ATOM      3  N   UNL     1      36.869 -23.015 -15.518  0.00  0.00    -0.174 NA
ATOM      4  C   UNL     1      35.036 -23.654 -14.336  0.00  0.00    +0.189 C 
ATOM      5  C   UNL     1      36.102 -23.636 -13.467  0.00  0.00    +0.112 C 
ATOM      6  C   UNL     1      34.692 -23.177 -16.705  0.00  0.00    +0.126 C 
ATOM      7  C   UNL     1      32.948 -23.891 -15.192  0.00  0.00    +0.140 C 
ATOM      8  C   UNL     1      33.390 -23.474 -16.560  0.00  0.00    +0.064 C 
ATOM      9  C   UNL     1      37.195 -23.239 -14.247  0.00  0.00    +0.100 C 
ENDROOT
BRANCH   7  12
ATOM     10  F   UNL     1      30.909 -22.525 -16.585  0.00  0.00    -0.204 F 
ATOM     11  F   UNL     1      32.033 -25.939 -13.481  0.00  0.00    -0.204 F 
ATOM     12  C   UNL     1      31.507 -24.224 -15.037  0.00  0.00    +0.085 C 
ATOM     13  C   UNL     1      30.546 -23.513 -15.754  0.00  0.00    +0.145 C 
ATOM     14  C   UNL     1      31.117 -25.249 -14.176  0.00  0.00    +0.145 C 
ATOM     15  C   UNL     1      29.194 -23.825 -15.610  0.00  0.00    +0.030 C 
ATOM     16  C   UNL     1      29.766 -25.562 -14.030  0.00  0.00    +0.030 C 
ATOM     17  C   UNL     1      28.804 -24.850 -14.747  0.00  0.00    +0.005 C 
ENDBRANCH   7  12
BRANCH   6  18
ATOM     18  N   UNL     1      35.257 -22.778 -17.883  0.00  0.00    -0.316 N 
ATOM     19  H   UNL     1      36.233 -22.657 -17.916  0.00  0.00    +0.148 HD
BRANCH  18  20
ATOM     20  C   UNL     1      34.496 -22.526 -19.079  0.00  0.00    +0.114 C 
BRANCH  20  24
ATOM     21  N   UNL     1      34.731 -19.462 -21.288  0.00  0.00    -0.181 NA
ATOM     22  N   UNL     1      36.916 -19.925 -20.385  0.00  0.00    -0.204 NA
ATOM     23  N   UNL     1      36.568 -18.104 -21.822  0.00  0.00    -0.303 N 
ATOM     24  C   UNL     1      35.052 -21.339 -19.815  0.00  0.00    +0.020 C 
ATOM     25  C   UNL     1      34.265 -20.535 -20.613  0.00  0.00    +0.106 C 
ATOM     26  C   UNL     1      36.384 -20.983 -19.738  0.00  0.00    +0.163 C 
ATOM     27  C   UNL     1      36.045 -19.219 -21.131  0.00  0.00    +0.084 C 
ATOM     28  H   UNL     1      35.977 -17.551 -22.383  0.00  0.00    +0.154 HD
ATOM     29  H   UNL     1      37.523 -17.879 -21.744  0.00  0.00    +0.154 HD
ENDBRANCH  20  24
ENDBRANCH  18  20
ENDBRANCH   6  18
BRANCH   5  30
ATOM     30  C   UNL     1      36.098 -23.964 -12.031  0.00  0.00    +0.015 C 
ATOM     31  C   UNL     1      37.178 -23.213 -11.242  0.00  0.00    +0.001 C 
ENDBRANCH   5  30
TORSDOF 5
ENDMDL
MODEL 9
REMARK VINA RESULT:     -10.1      8.178     11.917
REMARK  Name = 44629554
REMARK  5 active torsions:
REMARK  status: ('A' for Active; 'I' for Inactive)
REMARK    1  A    between atoms: C_5  and  C_30
REMARK    2  A    between atoms: C_6  and  N_18
REMARK    3  A    between atoms: C_7  and  C_12
REMARK    4  A    between atoms: N_18  and  C_20
REMARK    5  A    between atoms: C_20  and  C_24
REMARK                            x       y       z     vdW  Elec       q    Type
REMARK                         _______ _______ _______ _____ _____    ______ ____
ROOT
ATOM      1  N   UNL     1      34.468 -16.369 -23.040  0.00  0.00    -0.152 N 
ATOM      2  N   UNL     1      33.150 -14.360 -23.199  0.00  0.00    -0.389 NA
ATOM      3  N   UNL     1      35.010 -17.323 -23.850  0.00  0.00    -0.174 NA
ATOM      4  C   UNL     1      33.776 -15.414 -23.787  0.00  0.00    +0.189 C 
ATOM      5  C   UNL     1      33.891 -15.788 -25.106  0.00  0.00    +0.112 C 
ATOM      6  C   UNL     1      34.542 -16.288 -21.640  0.00  0.00    +0.126 C 
ATOM      7  C   UNL     1      33.230 -14.275 -21.902  0.00  0.00    +0.140 C 
ATOM      8  C   UNL     1      33.936 -15.260 -21.023  0.00  0.00    +0.064 C 
ATOM      9  C   UNL     1      34.656 -16.960 -25.081  0.00  0.00    +0.100 C 
ENDROOT
BRANCH   7  12
ATOM     10  F   UNL     1      32.960 -11.729 -23.088  0.00  0.00    -0.204 F 
ATOM     11  F   UNL     1      32.136 -14.487 -19.309  0.00  0.00    -0.204 F 
ATOM     12  C   UNL     1      32.565 -13.137 -21.216  0.00  0.00    +0.085 C 
ATOM     13  C   UNL     1      32.461 -11.902 -21.855  0.00  0.00    +0.145 C 
ATOM     14  C   UNL     1      32.042 -13.304 -19.933  0.00  0.00    +0.145 C 
ATOM     15  C   UNL     1      31.836 -10.832 -21.212  0.00  0.00    +0.030 C 
ATOM     16  C   UNL     1      31.417 -12.235 -19.290  0.00  0.00    +0.030 C 
ATOM     17  C   UNL     1      31.315 -11.000 -19.929  0.00  0.00    +0.005 C 
ENDBRANCH   7  12
BRANCH   6  18
ATOM     18  N   UNL     1      35.226 -17.274 -20.987  0.00  0.00    -0.316 N 
ATOM     19  H   UNL     1      35.521 -17.104 -20.063  0.00  0.00    +0.148 HD
BRANCH  18  20
ATOM     20  C   UNL     1      35.538 -18.547 -21.581  0.00  0.00    +0.114 C 
BRANCH  20  24
ATOM     21  N   UNL     1      35.027 -21.644 -19.466  0.00  0.00    -0.181 NA
ATOM     22  N   UNL     1      32.868 -20.760 -20.065  0.00  0.00    -0.204 NA
ATOM     23  N   UNL     1      33.055 -22.691 -18.748  0.00  0.00    -0.303 N 
ATOM     24  C   UNL     1      34.872 -19.659 -20.819  0.00  0.00    +0.020 C 
ATOM     25  C   UNL     1      35.593 -20.632 -20.158  0.00  0.00    +0.106 C 
ATOM     26  C   UNL     1      33.498 -19.775 -20.739  0.00  0.00    +0.163 C 
ATOM     27  C   UNL     1      33.682 -21.647 -19.461  0.00  0.00    +0.084 C 
ATOM     28  H   UNL     1      33.600 -23.369 -18.286  0.00  0.00    +0.154 HD
ATOM     29  H   UNL     1      32.072 -22.743 -18.711  0.00  0.00    +0.154 HD
ENDBRANCH  20  24
ENDBRANCH  18  20
ENDBRANCH   6  18
BRANCH   5  30
ATOM     30  C   UNL     1      33.335 -15.106 -26.286  0.00  0.00    +0.015 C 
ATOM     31  C   UNL     1      33.580 -13.592 -26.274  0.00  0.00    +0.001 C 
ENDBRANCH   5  30
TORSDOF 5
ENDMDL
