MODEL 1
REMARK VINA RESULT:     -12.5      0.000      0.000
REMARK  Name = 5326868
REMARK  6 active torsions:
REMARK  status: ('A' for Active; 'I' for Inactive)
REMARK    1  A    between atoms: C_2  and  C_28
REMARK    2  A    between atoms: C_7  and  N_12
REMARK    3  A    between atoms: C_13  and  C_18
REMARK    4  A    between atoms: C_16  and  N_23
REMARK    5  A    between atoms: C_28  and  C_29
REMARK    6  A    between atoms: C_29  and  C_31
REMARK                            x       y       z     vdW  Elec       q    Type
REMARK                         _______ _______ _______ _____ _____    ______ ____
ROOT
ATOM      1  N   UNL     1      35.037 -16.862 -24.258  0.00  0.00    -0.312 N 
ATOM      2  C   UNL     1      34.721 -15.949 -22.259  0.00  0.00    -0.006 C 
ATOM      3  C   UNL     1      34.814 -17.360 -22.094  0.00  0.00    +0.012 C 
ATOM      4  C   UNL     1      35.012 -17.908 -23.363  0.00  0.00    +0.048 C 
ATOM      5  C   UNL     1      34.861 -15.674 -23.600  0.00  0.00    +0.058 C 
ATOM      6  C   UNL     1      34.748 -18.225 -20.984  0.00  0.00    +0.016 C 
ATOM      7  C   UNL     1      34.883 -19.603 -21.184  0.00  0.00    +0.051 C 
ATOM      8  C   UNL     1      35.148 -19.285 -23.578  0.00  0.00    +0.016 C 
ATOM      9  C   UNL     1      35.080 -20.123 -22.461  0.00  0.00    +0.016 C 
ATOM     10  H   UNL     1      35.162 -16.955 -25.229  0.00  0.00    +0.152 HD
ENDROOT
BRANCH   7  12
ATOM     11  O   UNL     1      32.652 -21.371 -20.241  0.00  0.00    -0.270 OA
ATOM     12  N   UNL     1      34.818 -20.467 -20.088  0.00  0.00    -0.280 N 
ATOM     13  C   UNL     1      33.745 -21.275 -19.691  0.00  0.00    +0.250 C 
ATOM     14  H   UNL     1      35.625 -20.514 -19.527  0.00  0.00    +0.155 HD
BRANCH  13  18
ATOM     15  F   UNL     1      36.725 -23.272 -16.449  0.00  0.00    -0.204 F 
ATOM     16  C   UNL     1      33.090 -23.300 -16.608  0.00  0.00    +0.050 C 
ATOM     17  C   UNL     1      32.877 -22.555 -17.768  0.00  0.00    +0.019 C 
ATOM     18  C   UNL     1      33.970 -22.071 -18.456  0.00  0.00    +0.057 C 
ATOM     19  C   UNL     1      34.389 -23.542 -16.162  0.00  0.00    +0.044 C 
ATOM     20  C   UNL     1      35.265 -22.295 -18.036  0.00  0.00    +0.034 C 
ATOM     21  C   UNL     1      35.477 -23.040 -16.877  0.00  0.00    +0.142 C 
BRANCH  16  23
ATOM     22  O   UNL     1      29.833 -24.593 -14.283  0.00  0.00    -0.350 OA
ATOM     23  N   UNL     1      32.000 -23.803 -15.890  0.00  0.00    -0.303 N 
ATOM     24  C   UNL     1      30.645 -23.327 -16.188  0.00  0.00    +0.123 C 
ATOM     25  C   UNL     1      32.221 -24.230 -14.501  0.00  0.00    +0.123 C 
ATOM     26  C   UNL     1      29.620 -24.331 -15.670  0.00  0.00    +0.164 C 
ATOM     27  C   UNL     1      31.114 -25.187 -14.074  0.00  0.00    +0.164 C 
ENDBRANCH  16  23
ENDBRANCH  13  18
ENDBRANCH   7  12
BRANCH   2  28
ATOM     28  C   UNL     1      34.511 -14.952 -21.190  0.00  0.00    +0.032 C 
BRANCH  28  29
ATOM     29  C   UNL     1      33.062 -14.877 -20.659  0.00  0.00    +0.031 C 
BRANCH  29  31
ATOM     30  N   UNL     1      31.369 -10.948 -20.910  0.00  0.00    -0.242 NA
ATOM     31  C   UNL     1      32.467 -13.494 -20.747  0.00  0.00    -0.019 C 
ATOM     32  C   UNL     1      32.567 -12.785 -21.928  0.00  0.00    +0.016 C 
ATOM     33  C   UNL     1      31.830 -12.956 -19.645  0.00  0.00    +0.016 C 
ATOM     34  C   UNL     1      32.003 -11.519 -21.958  0.00  0.00    +0.099 C 
ATOM     35  C   UNL     1      31.299 -11.683 -19.777  0.00  0.00    +0.099 C 
ENDBRANCH  29  31
ENDBRANCH  28  29
ENDBRANCH   2  28
TORSDOF 6
ENDMDL
MODEL 2
REMARK VINA RESULT:     -12.3      2.353      3.188
REMARK  Name = 5326868
REMARK  6 active torsions:
REMARK  status: ('A' for Active; 'I' for Inactive)
REMARK    1  A    between atoms: C_2  and  C_28
REMARK    2  A    between atoms: C_7  and  N_12
REMARK    3  A    between atoms: C_13  and  C_18
REMARK    4  A    between atoms: C_16  and  N_23
REMARK    5  A    between atoms: C_28  and  C_29
REMARK    6  A    between atoms: C_29  and  C_31
REMARK                            x       y       z     vdW  Elec       q    Type
REMARK                         _______ _______ _______ _____ _____    ______ ____
ROOT
ATOM      1  N   UNL     1      35.147 -16.812 -24.236  0.00  0.00    -0.312 N 
ATOM      2  C   UNL     1      34.717 -15.893 -22.261  0.00  0.00    -0.006 C 
ATOM      3  C   UNL     1      34.759 -17.306 -22.095  0.00  0.00    +0.012 C 
ATOM      4  C   UNL     1      35.030 -17.858 -23.349  0.00  0.00    +0.048 C 
ATOM      5  C   UNL     1      34.959 -15.621 -23.587  0.00  0.00    +0.058 C 
ATOM      6  C   UNL     1      34.590 -18.171 -20.995  0.00  0.00    +0.016 C 
ATOM      7  C   UNL     1      34.700 -19.552 -21.190  0.00  0.00    +0.051 C 
ATOM      8  C   UNL     1      35.142 -19.238 -23.558  0.00  0.00    +0.016 C 
ATOM      9  C   UNL     1      34.973 -20.076 -22.452  0.00  0.00    +0.016 C 
ATOM     10  H   UNL     1      35.338 -16.907 -25.196  0.00  0.00    +0.152 HD
ENDROOT
BRANCH   7  12
ATOM     11  O   UNL     1      36.650 -21.419 -19.884  0.00  0.00    -0.270 OA
ATOM     12  N   UNL     1      34.534 -20.416 -20.105  0.00  0.00    -0.280 N 
ATOM     13  C   UNL     1      35.483 -21.272 -19.532  0.00  0.00    +0.250 C 
ATOM     14  H   UNL     1      33.640 -20.425 -19.693  0.00  0.00    +0.155 HD
BRANCH  13  18
ATOM     15  F   UNL     1      31.922 -23.618 -17.253  0.00  0.00    -0.204 F 
ATOM     16  C   UNL     1      35.424 -23.237 -16.343  0.00  0.00    +0.050 C 
ATOM     17  C   UNL     1      35.884 -22.463 -17.408  0.00  0.00    +0.019 C 
ATOM     18  C   UNL     1      34.994 -22.096 -18.395  0.00  0.00    +0.057 C 
ATOM     19  C   UNL     1      34.086 -23.627 -16.290  0.00  0.00    +0.044 C 
ATOM     20  C   UNL     1      33.666 -22.468 -18.368  0.00  0.00    +0.034 C 
ATOM     21  C   UNL     1      33.206 -23.242 -17.303  0.00  0.00    +0.142 C 
BRANCH  16  23
ATOM     22  O   UNL     1      38.143 -24.133 -13.263  0.00  0.00    -0.350 OA
ATOM     23  N   UNL     1      36.305 -23.624 -15.327  0.00  0.00    -0.303 N 
ATOM     24  C   UNL     1      35.881 -23.555 -13.925  0.00  0.00    +0.123 C 
ATOM     25  C   UNL     1      37.746 -23.445 -15.554  0.00  0.00    +0.123 C 
ATOM     26  C   UNL     1      36.767 -24.459 -13.074  0.00  0.00    +0.164 C 
ATOM     27  C   UNL     1      38.531 -24.357 -14.619  0.00  0.00    +0.164 C 
ENDBRANCH  16  23
ENDBRANCH  13  18
ENDBRANCH   7  12
BRANCH   2  28
ATOM     28  C   UNL     1      34.460 -14.892 -21.206  0.00  0.00    +0.032 C 
BRANCH  28  29
ATOM     29  C   UNL     1      33.000 -14.850 -20.705  0.00  0.00    +0.031 C 
BRANCH  29  31
ATOM     30  N   UNL     1      31.344 -10.897 -20.653  0.00  0.00    -0.242 NA
ATOM     31  C   UNL     1      32.417 -13.458 -20.686  0.00  0.00    -0.019 C 
ATOM     32  C   UNL     1      32.352 -12.733 -21.860  0.00  0.00    +0.016 C 
ATOM     33  C   UNL     1      31.957 -12.929 -19.496  0.00  0.00    +0.016 C 
ATOM     34  C   UNL     1      31.808 -11.461 -21.791  0.00  0.00    +0.099 C 
ATOM     35  C   UNL     1      31.431 -11.648 -19.532  0.00  0.00    +0.099 C 
ENDBRANCH  29  31
ENDBRANCH  28  29
ENDBRANCH   2  28
TORSDOF 6
ENDMDL
MODEL 3
REMARK VINA RESULT:     -11.6      4.676     11.682
REMARK  Name = 5326868
REMARK  6 active torsions:
REMARK  status: ('A' for Active; 'I' for Inactive)
REMARK    1  A    between atoms: C_2  and  C_28
REMARK    2  A    between atoms: C_7  and  N_12
REMARK    3  A    between atoms: C_13  and  C_18
REMARK    4  A    between atoms: C_16  and  N_23
REMARK    5  A    between atoms: C_28  and  C_29
REMARK    6  A    between atoms: C_29  and  C_31
REMARK                            x       y       z     vdW  Elec       q    Type
REMARK                         _______ _______ _______ _____ _____    ______ ____
ROOT
ATOM      1  N   UNL     1      34.585 -17.605 -25.045  0.00  0.00    -0.312 N 
ATOM      2  C   UNL     1      35.033 -17.525 -22.872  0.00  0.00    -0.006 C 
ATOM      3  C   UNL     1      34.440 -16.288 -23.250  0.00  0.00    +0.012 C 
ATOM      4  C   UNL     1      34.169 -16.365 -24.617  0.00  0.00    +0.048 C 
ATOM      5  C   UNL     1      35.109 -18.314 -23.997  0.00  0.00    +0.058 C 
ATOM      6  C   UNL     1      34.108 -15.106 -22.557  0.00  0.00    +0.016 C 
ATOM      7  C   UNL     1      33.517 -14.049 -23.257  0.00  0.00    +0.051 C 
ATOM      8  C   UNL     1      33.579 -15.314 -25.330  0.00  0.00    +0.016 C 
ATOM      9  C   UNL     1      33.257 -14.152 -24.622  0.00  0.00    +0.016 C 
ATOM     10  H   UNL     1      34.516 -17.935 -25.969  0.00  0.00    +0.152 HD
ENDROOT
BRANCH   7  12
ATOM     11  O   UNL     1      31.526 -13.574 -21.066  0.00  0.00    -0.270 OA
ATOM     12  N   UNL     1      33.186 -12.874 -22.578  0.00  0.00    -0.280 N 
ATOM     13  C   UNL     1      32.242 -12.707 -21.557  0.00  0.00    +0.250 C 
ATOM     14  H   UNL     1      33.674 -12.065 -22.851  0.00  0.00    +0.155 HD
BRANCH  13  18
ATOM     15  F   UNL     1      31.458  -9.608 -17.929  0.00  0.00    -0.204 F 
ATOM     16  C   UNL     1      32.079  -8.965 -21.456  0.00  0.00    +0.050 C 
ATOM     17  C   UNL     1      32.217 -10.268 -21.934  0.00  0.00    +0.019 C 
ATOM     18  C   UNL     1      32.093 -11.318 -21.048  0.00  0.00    +0.057 C 
ATOM     19  C   UNL     1      31.823  -8.742 -20.103  0.00  0.00    +0.044 C 
ATOM     20  C   UNL     1      31.841 -11.125 -19.706  0.00  0.00    +0.034 C 
ATOM     21  C   UNL     1      31.703  -9.822 -19.228  0.00  0.00    +0.142 C 
BRANCH  16  23
ATOM     22  O   UNL     1      32.404  -5.885 -24.301  0.00  0.00    -0.350 OA
ATOM     23  N   UNL     1      32.200  -7.881 -22.332  0.00  0.00    -0.303 N 
ATOM     24  C   UNL     1      30.997  -7.200 -22.823  0.00  0.00    +0.123 C 
ATOM     25  C   UNL     1      33.351  -7.852 -23.245  0.00  0.00    +0.123 C 
ATOM     26  C   UNL     1      31.363  -5.808 -23.327  0.00  0.00    +0.164 C 
ATOM     27  C   UNL     1      33.593  -6.425 -23.723  0.00  0.00    +0.164 C 
ENDBRANCH  16  23
ENDBRANCH  13  18
ENDBRANCH   7  12
BRANCH   2  28
ATOM     28  C   UNL     1      35.489 -17.904 -21.519  0.00  0.00    +0.032 C 
BRANCH  28  29
ATOM     29  C   UNL     1      36.098 -19.321 -21.422  0.00  0.00    +0.031 C 
BRANCH  29  31
ATOM     30  N   UNL     1      33.732 -22.020 -19.078  0.00  0.00    -0.242 NA
ATOM     31  C   UNL     1      35.265 -20.270 -20.596  0.00  0.00    -0.019 C 
ATOM     32  C   UNL     1      33.888 -20.168 -20.626  0.00  0.00    +0.016 C 
ATOM     33  C   UNL     1      35.892 -21.228 -19.823  0.00  0.00    +0.016 C 
ATOM     34  C   UNL     1      33.169 -21.064 -19.851  0.00  0.00    +0.099 C 
ATOM     35  C   UNL     1      35.083 -22.077 -19.084  0.00  0.00    +0.099 C 
ENDBRANCH  29  31
ENDBRANCH  28  29
ENDBRANCH   2  28
TORSDOF 6
ENDMDL
MODEL 4
REMARK VINA RESULT:     -11.0      7.514     14.548
REMARK  Name = 5326868
REMARK  6 active torsions:
REMARK  status: ('A' for Active; 'I' for Inactive)
REMARK    1  A    between atoms: C_2  and  C_28
REMARK    2  A    between atoms: C_7  and  N_12
REMARK    3  A    between atoms: C_13  and  C_18
REMARK    4  A    between atoms: C_16  and  N_23
REMARK    5  A    between atoms: C_28  and  C_29
REMARK    6  A    between atoms: C_29  and  C_31
REMARK                            x       y       z     vdW  Elec       q    Type
REMARK                         _______ _______ _______ _____ _____    ______ ____
ROOT
ATOM      1  N   UNL     1      32.129 -14.226 -19.821  0.00  0.00    -0.312 N 
ATOM      2  C   UNL     1      32.711 -13.903 -21.939  0.00  0.00    -0.006 C 
ATOM      3  C   UNL     1      32.295 -12.655 -21.396  0.00  0.00    +0.012 C 
ATOM      4  C   UNL     1      31.935 -12.886 -20.067  0.00  0.00    +0.048 C 
ATOM      5  C   UNL     1      32.598 -14.850 -20.947  0.00  0.00    +0.058 C 
ATOM      6  C   UNL     1      32.189 -11.347 -21.912  0.00  0.00    +0.016 C 
ATOM      7  C   UNL     1      31.730 -10.321 -21.079  0.00  0.00    +0.051 C 
ATOM      8  C   UNL     1      31.474 -11.869 -19.223  0.00  0.00    +0.016 C 
ATOM      9  C   UNL     1      31.378 -10.580 -19.755  0.00  0.00    +0.016 C 
ATOM     10  H   UNL     1      31.956 -14.671 -18.961  0.00  0.00    +0.152 HD
ENDROOT
BRANCH   7  12
ATOM     11  O   UNL     1      33.370  -7.879 -20.503  0.00  0.00    -0.270 OA
ATOM     12  N   UNL     1      31.621  -9.023 -21.581  0.00  0.00    -0.280 N 
ATOM     13  C   UNL     1      32.419  -7.912 -21.277  0.00  0.00    +0.250 C 
ATOM     14  H   UNL     1      30.895  -8.869 -22.228  0.00  0.00    +0.155 HD
BRANCH  13  18
ATOM     15  F   UNL     1      29.659  -3.953 -21.568  0.00  0.00    -0.204 F 
ATOM     16  C   UNL     1      32.357  -5.082 -23.731  0.00  0.00    +0.050 C 
ATOM     17  C   UNL     1      32.718  -6.270 -23.094  0.00  0.00    +0.019 C 
ATOM     18  C   UNL     1      32.035  -6.647 -21.957  0.00  0.00    +0.057 C 
ATOM     19  C   UNL     1      31.324  -4.299 -23.215  0.00  0.00    +0.044 C 
ATOM     20  C   UNL     1      31.010  -5.892 -21.427  0.00  0.00    +0.034 C 
ATOM     21  C   UNL     1      30.650  -4.705 -22.063  0.00  0.00    +0.142 C 
BRANCH  16  23
ATOM     22  O   UNL     1      34.259  -4.058 -27.339  0.00  0.00    -0.350 OA
ATOM     23  N   UNL     1      33.034  -4.674 -24.886  0.00  0.00    -0.303 N 
ATOM     24  C   UNL     1      32.386  -3.753 -25.826  0.00  0.00    +0.123 C 
ATOM     25  C   UNL     1      34.002  -5.601 -25.486  0.00  0.00    +0.123 C 
ATOM     26  C   UNL     1      33.441  -3.080 -26.697  0.00  0.00    +0.164 C 
ATOM     27  C   UNL     1      34.973  -4.829 -26.372  0.00  0.00    +0.164 C 
ENDBRANCH  16  23
ENDBRANCH  13  18
ENDBRANCH   7  12
BRANCH   2  28
ATOM     28  C   UNL     1      33.181 -14.150 -23.317  0.00  0.00    +0.032 C 
BRANCH  28  29
ATOM     29  C   UNL     1      34.633 -14.667 -23.416  0.00  0.00    +0.031 C 
BRANCH  29  31
ATOM     30  N   UNL     1      34.898 -18.943 -23.556  0.00  0.00    -0.242 NA
ATOM     31  C   UNL     1      34.726 -16.172 -23.466  0.00  0.00    -0.019 C 
ATOM     32  C   UNL     1      35.185 -16.861 -22.360  0.00  0.00    +0.016 C 
ATOM     33  C   UNL     1      34.353 -16.839 -24.616  0.00  0.00    +0.016 C 
ATOM     34  C   UNL     1      35.251 -18.242 -22.455  0.00  0.00    +0.099 C 
ATOM     35  C   UNL     1      34.457 -18.221 -24.611  0.00  0.00    +0.099 C 
ENDBRANCH  29  31
ENDBRANCH  28  29
ENDBRANCH   2  28
TORSDOF 6
ENDMDL
MODEL 5
REMARK VINA RESULT:     -11.0      7.114     11.580
REMARK  Name = 5326868
REMARK  6 active torsions:
REMARK  status: ('A' for Active; 'I' for Inactive)
REMARK    1  A    between atoms: C_2  and  C_28
REMARK    2  A    between atoms: C_7  and  N_12
REMARK    3  A    between atoms: C_13  and  C_18
REMARK    4  A    between atoms: C_16  and  N_23
REMARK    5  A    between atoms: C_28  and  C_29
REMARK    6  A    between atoms: C_29  and  C_31
REMARK                            x       y       z     vdW  Elec       q    Type
REMARK                         _______ _______ _______ _____ _____    ______ ____
ROOT
ATOM      1  N   UNL     1      31.797  -4.581 -22.183  0.00  0.00    -0.312 N 
ATOM      2  C   UNL     1      32.557  -5.633 -23.984  0.00  0.00    -0.006 C 
ATOM      3  C   UNL     1      32.364  -6.596 -22.955  0.00  0.00    +0.012 C 
ATOM      4  C   UNL     1      31.887  -5.910 -21.836  0.00  0.00    +0.048 C 
ATOM      5  C   UNL     1      32.200  -4.404 -23.480  0.00  0.00    +0.058 C 
ATOM      6  C   UNL     1      32.552  -7.990 -22.867  0.00  0.00    +0.016 C 
ATOM      7  C   UNL     1      32.254  -8.644 -21.666  0.00  0.00    +0.051 C 
ATOM      8  C   UNL     1      31.586  -6.551 -20.629  0.00  0.00    +0.016 C 
ATOM      9  C   UNL     1      31.778  -7.934 -20.565  0.00  0.00    +0.016 C 
ATOM     10  H   UNL     1      31.488  -3.863 -21.586  0.00  0.00    +0.152 HD
ENDROOT
BRANCH   7  12
ATOM     11  O   UNL     1      30.247 -10.872 -21.710  0.00  0.00    -0.270 OA
ATOM     12  N   UNL     1      32.437 -10.026 -21.571  0.00  0.00    -0.280 N 
ATOM     13  C   UNL     1      31.459 -11.028 -21.596  0.00  0.00    +0.250 C 
ATOM     14  H   UNL     1      33.367 -10.332 -21.473  0.00  0.00    +0.155 HD
BRANCH  13  18
ATOM     15  F   UNL     1      32.301 -14.931 -18.869  0.00  0.00    -0.204 F 
ATOM     16  C   UNL     1      32.968 -14.361 -22.400  0.00  0.00    +0.050 C 
ATOM     17  C   UNL     1      32.493 -13.057 -22.545  0.00  0.00    +0.019 C 
ATOM     18  C   UNL     1      31.966 -12.417 -21.443  0.00  0.00    +0.057 C 
ATOM     19  C   UNL     1      32.903 -14.994 -21.159  0.00  0.00    +0.044 C 
ATOM     20  C   UNL     1      31.890 -13.020 -20.205  0.00  0.00    +0.034 C 
ATOM     21  C   UNL     1      32.364 -14.323 -20.061  0.00  0.00    +0.142 C 
BRANCH  16  23
ATOM     22  O   UNL     1      34.741 -16.161 -25.762  0.00  0.00    -0.350 OA
ATOM     23  N   UNL     1      33.508 -15.035 -23.501  0.00  0.00    -0.303 N 
ATOM     24  C   UNL     1      34.791 -15.735 -23.373  0.00  0.00    +0.123 C 
ATOM     25  C   UNL     1      33.206 -14.522 -24.844  0.00  0.00    +0.123 C 
ATOM     26  C   UNL     1      34.926 -16.770 -24.485  0.00  0.00    +0.164 C 
ATOM     27  C   UNL     1      33.423 -15.623 -25.877  0.00  0.00    +0.164 C 
ENDBRANCH  16  23
ENDBRANCH  13  18
ENDBRANCH   7  12
BRANCH   2  28
ATOM     28  C   UNL     1      33.052  -5.895 -25.351  0.00  0.00    +0.032 C 
BRANCH  28  29
ATOM     29  C   UNL     1      34.590  -5.896 -25.487  0.00  0.00    +0.031 C 
BRANCH  29  31
ATOM     30  N   UNL     1      36.072  -2.715 -27.948  0.00  0.00    -0.242 NA
ATOM     31  C   UNL     1      35.112  -4.776 -26.354  0.00  0.00    -0.019 C 
ATOM     32  C   UNL     1      34.309  -3.681 -26.604  0.00  0.00    +0.016 C 
ATOM     33  C   UNL     1      36.384  -4.863 -26.884  0.00  0.00    +0.016 C 
ATOM     34  C   UNL     1      34.834  -2.679 -27.405  0.00  0.00    +0.099 C 
ATOM     35  C   UNL     1      36.817  -3.809 -27.673  0.00  0.00    +0.099 C 
ENDBRANCH  29  31
ENDBRANCH  28  29
ENDBRANCH   2  28
TORSDOF 6
ENDMDL
MODEL 6
REMARK VINA RESULT:     -10.9      4.300     11.219
REMARK  Name = 5326868
REMARK  6 active torsions:
REMARK  status: ('A' for Active; 'I' for Inactive)
REMARK    1  A    between atoms: C_2  and  C_28
REMARK    2  A    between atoms: C_7  and  N_12
REMARK    3  A    between atoms: C_13  and  C_18
REMARK    4  A    between atoms: C_16  and  N_23
REMARK    5  A    between atoms: C_28  and  C_29
REMARK    6  A    between atoms: C_29  and  C_31
REMARK                            x       y       z     vdW  Elec       q    Type
REMARK                         _______ _______ _______ _____ _____    ______ ____
ROOT
ATOM      1  N   UNL     1      35.763 -18.925 -23.253  0.00  0.00    -0.312 N 
ATOM      2  C   UNL     1      34.603 -19.213 -21.382  0.00  0.00    -0.006 C 
ATOM      3  C   UNL     1      34.568 -17.831 -21.720  0.00  0.00    +0.012 C 
ATOM      4  C   UNL     1      35.304 -17.678 -22.897  0.00  0.00    +0.048 C 
ATOM      5  C   UNL     1      35.345 -19.860 -22.344  0.00  0.00    +0.058 C 
ATOM      6  C   UNL     1      33.981 -16.691 -21.134  0.00  0.00    +0.016 C 
ATOM      7  C   UNL     1      34.149 -15.445 -21.748  0.00  0.00    +0.051 C 
ATOM      8  C   UNL     1      35.481 -16.437 -23.521  0.00  0.00    +0.016 C 
ATOM      9  C   UNL     1      34.887 -15.322 -22.923  0.00  0.00    +0.016 C 
ATOM     10  H   UNL     1      36.313 -19.118 -24.047  0.00  0.00    +0.152 HD
ENDROOT
BRANCH   7  12
ATOM     11  O   UNL     1      31.864 -13.748 -22.691  0.00  0.00    -0.270 OA
ATOM     12  N   UNL     1      33.570 -14.311 -21.173  0.00  0.00    -0.280 N 
ATOM     13  C   UNL     1      32.498 -13.552 -21.659  0.00  0.00    +0.250 C 
ATOM     14  H   UNL     1      33.964 -14.008 -20.324  0.00  0.00    +0.155 HD
BRANCH  13  18
ATOM     15  F   UNL     1      31.178 -11.625 -17.425  0.00  0.00    -0.204 F 
ATOM     16  C   UNL     1      31.747 -10.025 -20.642  0.00  0.00    +0.050 C 
ATOM     17  C   UNL     1      32.096 -11.129 -21.421  0.00  0.00    +0.019 C 
ATOM     18  C   UNL     1      32.125 -12.375 -20.831  0.00  0.00    +0.057 C 
ATOM     19  C   UNL     1      31.437 -10.193 -19.292  0.00  0.00    +0.044 C 
ATOM     20  C   UNL     1      31.824 -12.568 -19.499  0.00  0.00    +0.034 C 
ATOM     21  C   UNL     1      31.475 -11.465 -18.721  0.00  0.00    +0.142 C 
BRANCH  16  23
ATOM     22  O   UNL     1      31.896  -6.230 -22.448  0.00  0.00    -0.350 OA
ATOM     23  N   UNL     1      31.710  -8.749 -21.214  0.00  0.00    -0.303 N 
ATOM     24  C   UNL     1      31.375  -8.593 -22.634  0.00  0.00    +0.123 C 
ATOM     25  C   UNL     1      32.599  -7.716 -20.665  0.00  0.00    +0.123 C 
ATOM     26  C   UNL     1      30.916  -7.164 -22.901  0.00  0.00    +0.164 C 
ATOM     27  C   UNL     1      32.073  -6.334 -21.035  0.00  0.00    +0.164 C 
ENDBRANCH  16  23
ENDBRANCH  13  18
ENDBRANCH   7  12
BRANCH   2  28
ATOM     28  C   UNL     1      33.963 -19.848 -20.214  0.00  0.00    +0.032 C 
BRANCH  28  29
ATOM     29  C   UNL     1      34.065 -21.389 -20.186  0.00  0.00    +0.031 C 
BRANCH  29  31
ATOM     30  N   UNL     1      36.056 -22.889 -16.700  0.00  0.00    -0.242 NA
ATOM     31  C   UNL     1      34.765 -21.918 -18.959  0.00  0.00    -0.019 C 
ATOM     32  C   UNL     1      36.104 -21.637 -18.768  0.00  0.00    +0.016 C 
ATOM     33  C   UNL     1      34.059 -22.674 -18.045  0.00  0.00    +0.016 C 
ATOM     34  C   UNL     1      36.702 -22.144 -17.625  0.00  0.00    +0.099 C 
ATOM     35  C   UNL     1      34.748 -23.136 -16.934  0.00  0.00    +0.099 C 
ENDBRANCH  29  31
ENDBRANCH  28  29
ENDBRANCH   2  28
TORSDOF 6
ENDMDL
MODEL 7
REMARK VINA RESULT:     -10.7      3.253     10.064
REMARK  Name = 5326868
REMARK  6 active torsions:
REMARK  status: ('A' for Active; 'I' for Inactive)
REMARK    1  A    between atoms: C_2  and  C_28
REMARK    2  A    between atoms: C_7  and  N_12
REMARK    3  A    between atoms: C_13  and  C_18
REMARK    4  A    between atoms: C_16  and  N_23
REMARK    5  A    between atoms: C_28  and  C_29
REMARK    6  A    between atoms: C_29  and  C_31
REMARK                            x       y       z     vdW  Elec       q    Type
REMARK                         _______ _______ _______ _____ _____    ______ ____
ROOT
ATOM      1  N   UNL     1      36.556 -23.784 -14.955  0.00  0.00    -0.312 N 
ATOM      2  C   UNL     1      34.471 -23.920 -15.705  0.00  0.00    -0.006 C 
ATOM      3  C   UNL     1      35.214 -23.102 -16.602  0.00  0.00    +0.012 C 
ATOM      4  C   UNL     1      36.518 -23.032 -16.108  0.00  0.00    +0.048 C 
ATOM      5  C   UNL     1      35.323 -24.324 -14.703  0.00  0.00    +0.058 C 
ATOM      6  C   UNL     1      34.899 -22.410 -17.789  0.00  0.00    +0.016 C 
ATOM      7  C   UNL     1      35.900 -21.678 -18.437  0.00  0.00    +0.051 C 
ATOM      8  C   UNL     1      37.529 -22.304 -16.746  0.00  0.00    +0.016 C 
ATOM      9  C   UNL     1      37.194 -21.627 -17.923  0.00  0.00    +0.016 C 
ATOM     10  H   UNL     1      37.354 -23.914 -14.394  0.00  0.00    +0.152 HD
ENDROOT
BRANCH   7  12
ATOM     11  O   UNL     1      37.422 -19.529 -19.871  0.00  0.00    -0.270 OA
ATOM     12  N   UNL     1      35.597 -20.990 -19.614  0.00  0.00    -0.280 N 
ATOM     13  C   UNL     1      36.347 -19.989 -20.243  0.00  0.00    +0.250 C 
ATOM     14  H   UNL     1      34.753 -21.238 -20.054  0.00  0.00    +0.155 HD
BRANCH  13  18
ATOM     15  F   UNL     1      34.701 -20.525 -24.759  0.00  0.00    -0.204 F 
ATOM     16  C   UNL     1      34.868 -17.549 -22.672  0.00  0.00    +0.050 C 
ATOM     17  C   UNL     1      35.436 -18.079 -21.513  0.00  0.00    +0.019 C 
ATOM     18  C   UNL     1      35.743 -19.423 -21.479  0.00  0.00    +0.057 C 
ATOM     19  C   UNL     1      34.620 -18.376 -23.768  0.00  0.00    +0.044 C 
ATOM     20  C   UNL     1      35.508 -20.261 -22.548  0.00  0.00    +0.034 C 
ATOM     21  C   UNL     1      34.940 -19.732 -23.706  0.00  0.00    +0.142 C 
BRANCH  16  23
ATOM     22  O   UNL     1      34.159 -13.406 -22.785  0.00  0.00    -0.350 OA
ATOM     23  N   UNL     1      34.545 -16.189 -22.735  0.00  0.00    -0.303 N 
ATOM     24  C   UNL     1      34.836 -15.424 -23.952  0.00  0.00    +0.123 C 
ATOM     25  C   UNL     1      34.568 -15.413 -21.487  0.00  0.00    +0.123 C 
ATOM     26  C   UNL     1      33.980 -14.162 -23.982  0.00  0.00    +0.164 C 
ATOM     27  C   UNL     1      33.725 -14.154 -21.649  0.00  0.00    +0.164 C 
ENDBRANCH  16  23
ENDBRANCH  13  18
ENDBRANCH   7  12
BRANCH   2  28
ATOM     28  C   UNL     1      33.042 -24.277 -15.819  0.00  0.00    +0.032 C 
BRANCH  28  29
ATOM     29  C   UNL     1      32.076 -23.276 -15.149  0.00  0.00    +0.031 C 
BRANCH  29  31
ATOM     30  N   UNL     1      27.946 -24.255 -15.744  0.00  0.00    -0.242 NA
ATOM     31  C   UNL     1      30.622 -23.621 -15.359  0.00  0.00    -0.019 C 
ATOM     32  C   UNL     1      30.105 -24.763 -14.780  0.00  0.00    +0.016 C 
ATOM     33  C   UNL     1      29.830 -22.789 -16.126  0.00  0.00    +0.016 C 
ATOM     34  C   UNL     1      28.764 -25.035 -15.002  0.00  0.00    +0.099 C 
ATOM     35  C   UNL     1      28.501 -23.149 -16.288  0.00  0.00    +0.099 C 
ENDBRANCH  29  31
ENDBRANCH  28  29
ENDBRANCH   2  28
TORSDOF 6
ENDMDL
MODEL 8
REMARK VINA RESULT:     -10.6      7.730     15.029
REMARK  Name = 5326868
REMARK  6 active torsions:
REMARK  status: ('A' for Active; 'I' for Inactive)
REMARK    1  A    between atoms: C_2  and  C_28
REMARK    2  A    between atoms: C_7  and  N_12
REMARK    3  A    between atoms: C_13  and  C_18
REMARK    4  A    between atoms: C_16  and  N_23
REMARK    5  A    between atoms: C_28  and  C_29
REMARK    6  A    between atoms: C_29  and  C_31
REMARK                            x       y       z     vdW  Elec       q    Type
REMARK                         _______ _______ _______ _____ _____    ______ ____
ROOT
ATOM      1  N   UNL     1      32.015 -13.425 -19.520  0.00  0.00    -0.312 N 
ATOM      2  C   UNL     1      32.425 -13.393 -21.701  0.00  0.00    -0.006 C 
ATOM      3  C   UNL     1      32.168 -12.059 -21.277  0.00  0.00    +0.012 C 
ATOM      4  C   UNL     1      31.913 -12.108 -19.905  0.00  0.00    +0.048 C 
ATOM      5  C   UNL     1      32.323 -14.210 -20.599  0.00  0.00    +0.058 C 
ATOM      6  C   UNL     1      32.126 -10.811 -21.931  0.00  0.00    +0.016 C 
ATOM      7  C   UNL     1      31.834  -9.662 -21.189  0.00  0.00    +0.051 C 
ATOM      8  C   UNL     1      31.619 -10.966 -19.150  0.00  0.00    +0.016 C 
ATOM      9  C   UNL     1      31.585  -9.739 -19.820  0.00  0.00    +0.016 C 
ATOM     10  H   UNL     1      31.884 -13.756 -18.602  0.00  0.00    +0.152 HD
ENDROOT
BRANCH   7  12
ATOM     11  O   UNL     1      33.926  -8.238 -22.798  0.00  0.00    -0.270 OA
ATOM     12  N   UNL     1      31.790  -8.421 -21.830  0.00  0.00    -0.280 N 
ATOM     13  C   UNL     1      32.802  -7.800 -22.572  0.00  0.00    +0.250 C 
ATOM     14  H   UNL     1      30.946  -7.923 -21.749  0.00  0.00    +0.155 HD
BRANCH  13  18
ATOM     15  F   UNL     1      30.351  -3.641 -22.290  0.00  0.00    -0.204 F 
ATOM     16  C   UNL     1      32.752  -4.772 -24.779  0.00  0.00    +0.050 C 
ATOM     17  C   UNL     1      33.071  -6.033 -24.274  0.00  0.00    +0.019 C 
ATOM     18  C   UNL     1      32.462  -6.457 -23.112  0.00  0.00    +0.057 C 
ATOM     19  C   UNL     1      31.834  -3.964 -24.109  0.00  0.00    +0.044 C 
ATOM     20  C   UNL     1      31.551  -5.678 -22.430  0.00  0.00    +0.034 C 
ATOM     21  C   UNL     1      31.232  -4.417 -22.934  0.00  0.00    +0.142 C 
BRANCH  16  23
ATOM     22  O   UNL     1      34.672  -3.192 -28.171  0.00  0.00    -0.350 OA
ATOM     23  N   UNL     1      33.356  -4.316 -25.956  0.00  0.00    -0.303 N 
ATOM     24  C   UNL     1      34.747  -4.677 -26.252  0.00  0.00    +0.123 C 
ATOM     25  C   UNL     1      32.912  -3.030 -26.510  0.00  0.00    +0.123 C 
ATOM     26  C   UNL     1      35.015  -4.510 -27.744  0.00  0.00    +0.164 C 
ATOM     27  C   UNL     1      33.276  -2.953 -27.988  0.00  0.00    +0.164 C 
ENDBRANCH  16  23
ENDBRANCH  13  18
ENDBRANCH   7  12
BRANCH   2  28
ATOM     28  C   UNL     1      32.744 -13.832 -23.075  0.00  0.00    +0.032 C 
BRANCH  28  29
ATOM     29  C   UNL     1      34.236 -14.150 -23.316  0.00  0.00    +0.031 C 
BRANCH  29  31
ATOM     30  N   UNL     1      35.058 -18.351 -23.528  0.00  0.00    -0.242 NA
ATOM     31  C   UNL     1      34.525 -15.629 -23.390  0.00  0.00    -0.019 C 
ATOM     32  C   UNL     1      34.342 -16.297 -24.585  0.00  0.00    +0.016 C 
ATOM     33  C   UNL     1      34.969 -16.293 -22.263  0.00  0.00    +0.016 C 
ATOM     34  C   UNL     1      34.622 -17.654 -24.602  0.00  0.00    +0.099 C 
ATOM     35  C   UNL     1      35.221 -17.650 -22.383  0.00  0.00    +0.099 C 
ENDBRANCH  29  31
ENDBRANCH  28  29
ENDBRANCH   2  28
TORSDOF 6
ENDMDL
MODEL 9
REMARK VINA RESULT:     -10.5      1.348      1.962
REMARK  Name = 5326868
REMARK  6 active torsions:
REMARK  status: ('A' for Active; 'I' for Inactive)
REMARK    1  A    between atoms: C_2  and  C_28
REMARK    2  A    between atoms: C_7  and  N_12
REMARK    3  A    between atoms: C_13  and  C_18
REMARK    4  A    between atoms: C_16  and  N_23
REMARK    5  A    between atoms: C_28  and  C_29
REMARK    6  A    between atoms: C_29  and  C_31
REMARK                            x       y       z     vdW  Elec       q    Type
REMARK                         _______ _______ _______ _____ _____    ______ ____
ROOT
ATOM      1  N   UNL     1      34.672 -17.436 -24.391  0.00  0.00    -0.312 N 
ATOM      2  C   UNL     1      34.584 -16.312 -22.479  0.00  0.00    -0.006 C 
ATOM      3  C   UNL     1      34.780 -17.689 -22.177  0.00  0.00    +0.012 C 
ATOM      4  C   UNL     1      34.831 -18.372 -23.394  0.00  0.00    +0.048 C 
ATOM      5  C   UNL     1      34.522 -16.188 -23.848  0.00  0.00    +0.058 C 
ATOM      6  C   UNL     1      34.917 -18.422 -20.981  0.00  0.00    +0.016 C 
ATOM      7  C   UNL     1      35.102 -19.807 -21.048  0.00  0.00    +0.051 C 
ATOM      8  C   UNL     1      35.015 -19.757 -23.476  0.00  0.00    +0.016 C 
ATOM      9  C   UNL     1      35.150 -20.463 -22.276  0.00  0.00    +0.016 C 
ATOM     10  H   UNL     1      34.667 -17.635 -25.355  0.00  0.00    +0.152 HD
ENDROOT
BRANCH   7  12
ATOM     11  O   UNL     1      37.472 -21.273 -19.942  0.00  0.00    -0.270 OA
ATOM     12  N   UNL     1      35.238 -20.541 -19.867  0.00  0.00    -0.280 N 
ATOM     13  C   UNL     1      36.375 -21.210 -19.396  0.00  0.00    +0.250 C 
ATOM     14  H   UNL     1      34.438 -20.595 -19.297  0.00  0.00    +0.155 HD
BRANCH  13  18
ATOM     15  F   UNL     1      38.224 -23.225 -15.408  0.00  0.00    -0.204 F 
ATOM     16  C   UNL     1      34.762 -22.946 -16.493  0.00  0.00    +0.050 C 
ATOM     17  C   UNL     1      34.926 -22.269 -17.702  0.00  0.00    +0.019 C 
ATOM     18  C   UNL     1      36.200 -21.933 -18.108  0.00  0.00    +0.057 C 
ATOM     19  C   UNL     1      35.876 -23.269 -15.719  0.00  0.00    +0.044 C 
ATOM     20  C   UNL     1      37.317 -22.239 -17.361  0.00  0.00    +0.034 C 
ATOM     21  C   UNL     1      37.155 -22.916 -16.153  0.00  0.00    +0.142 C 
BRANCH  16  23
ATOM     22  O   UNL     1      30.930 -24.236 -15.338  0.00  0.00    -0.350 OA
ATOM     23  N   UNL     1      33.481 -23.299 -16.057  0.00  0.00    -0.303 N 
ATOM     24  C   UNL     1      33.322 -24.216 -14.923  0.00  0.00    +0.123 C 
ATOM     25  C   UNL     1      32.396 -23.335 -17.047  0.00  0.00    +0.123 C 
ATOM     26  C   UNL     1      31.925 -24.063 -14.330  0.00  0.00    +0.164 C 
ATOM     27  C   UNL     1      31.050 -23.226 -16.341  0.00  0.00    +0.164 C 
ENDBRANCH  16  23
ENDBRANCH  13  18
ENDBRANCH   7  12
BRANCH   2  28
ATOM     28  C   UNL     1      34.468 -15.207 -21.506  0.00  0.00    +0.032 C 
BRANCH  28  29
ATOM     29  C   UNL     1      33.016 -14.793 -21.178  0.00  0.00    +0.031 C 
BRANCH  29  31
ATOM     30  N   UNL     1      32.142 -10.726 -22.208  0.00  0.00    -0.242 NA
ATOM     31  C   UNL     1      32.708 -13.362 -21.541  0.00  0.00    -0.019 C 
ATOM     32  C   UNL     1      31.783 -12.656 -20.797  0.00  0.00    +0.016 C 
ATOM     33  C   UNL     1      33.356 -12.777 -22.612  0.00  0.00    +0.016 C 
ATOM     34  C   UNL     1      31.536 -11.344 -21.170  0.00  0.00    +0.099 C 
ATOM     35  C   UNL     1      33.039 -11.460 -22.904  0.00  0.00    +0.099 C 
ENDBRANCH  29  31
ENDBRANCH  28  29
ENDBRANCH   2  28
TORSDOF 6
ENDMDL
