MODEL 1
REMARK VINA RESULT:     -12.3      0.000      0.000
REMARK  Name = 9808844
REMARK  5 active torsions:
REMARK  status: ('A' for Active; 'I' for Inactive)
REMARK    1  A    between atoms: N_2  and  C_13
REMARK    2  A    between atoms: C_8  and  O_19
REMARK    3  A    between atoms: O_19  and  C_20
REMARK    4  A    between atoms: C_20  and  C_22
REMARK    5  A    between atoms: C_25  and  C_29
REMARK                            x       y       z     vdW  Elec       q    Type
REMARK                         _______ _______ _______ _____ _____    ______ ____
ROOT
ATOM      1  O   UNL     1      35.537 -23.131 -16.937  0.00  0.00    -0.446 OA
ATOM      2  N   UNL     1      35.759 -20.085 -20.503  0.00  0.00    -0.296 N 
ATOM      3  N   UNL     1      33.716 -21.221 -20.004  0.00  0.00    -0.130 NA
ATOM      4  N   UNL     1      32.955 -22.111 -19.256  0.00  0.00    -0.106 NA
ATOM      5  C   UNL     1      35.603 -21.673 -18.661  0.00  0.00    +0.076 A 
ATOM      6  C   UNL     1      34.813 -22.555 -17.936  0.00  0.00    +0.202 A 
ATOM      7  C   UNL     1      35.020 -20.993 -19.725  0.00  0.00    +0.157 A 
ATOM      8  C   UNL     1      33.484 -22.788 -18.218  0.00  0.00    +0.279 A 
ATOM      9  C   UNL     1      36.887 -21.721 -18.058  0.00  0.00    +0.047 C 
ATOM     10  C   UNL     1      36.794 -22.618 -17.019  0.00  0.00    +0.180 C 
ATOM     11  H   UNL     1      36.696 -19.993 -20.217  0.00  0.00    +0.154 HD
ENDROOT
BRANCH   2  13
ATOM     12 CL   UNL     1      34.357 -16.703 -25.156  0.00  0.00    -0.082 Cl
ATOM     13  C   UNL     1      35.425 -19.279 -21.612  0.00  0.00    +0.049 C 
ATOM     14  C   UNL     1      35.003 -19.871 -22.802  0.00  0.00    +0.016 C 
ATOM     15  C   UNL     1      35.515 -17.891 -21.517  0.00  0.00    +0.016 C 
ATOM     16  C   UNL     1      34.673 -19.075 -23.898  0.00  0.00    +0.013 C 
ATOM     17  C   UNL     1      35.185 -17.094 -22.613  0.00  0.00    +0.013 C 
ATOM     18  C   UNL     1      34.764 -17.686 -23.803  0.00  0.00    +0.058 C 
ENDBRANCH   2  13
BRANCH   8  19
ATOM     19  O   UNL     1      32.697 -23.657 -17.509  0.00  0.00    -0.452 OA
BRANCH  19  20
ATOM     20  C   UNL     1      31.859 -23.090 -16.508  0.00  0.00    +0.234 C 
BRANCH  20  22
ATOM     21  N   UNL     1      32.322 -25.314 -12.873  0.00  0.00    -0.239 NA
ATOM     22  C   UNL     1      32.022 -23.869 -15.235  0.00  0.00    +0.024 C 
ATOM     23  C   UNL     1      33.210 -23.793 -14.528  0.00  0.00    +0.023 C 
ATOM     24  C   UNL     1      30.981 -24.660 -14.775  0.00  0.00    +0.020 C 
ATOM     25  C   UNL     1      33.310 -24.530 -13.359  0.00  0.00    +0.134 C 
ATOM     26  C   UNL     1      31.180 -25.359 -13.595  0.00  0.00    +0.099 C 
BRANCH  25  29
ATOM     27  O   UNL     1      34.644 -25.192 -11.547  0.00  0.00    -0.268 OA
ATOM     28  N   UNL     1      35.559 -23.662 -13.030  0.00  0.00    -0.298 N 
ATOM     29  C   UNL     1      34.529 -24.493 -12.571  0.00  0.00    +0.264 C 
ATOM     30  C   UNL     1      36.839 -23.535 -12.370  0.00  0.00    +0.111 C 
ATOM     31  H   UNL     1      35.404 -23.136 -13.847  0.00  0.00    +0.150 HD
ENDBRANCH  25  29
ENDBRANCH  20  22
ENDBRANCH  19  20
ENDBRANCH   8  19
TORSDOF 5
ENDMDL
MODEL 2
REMARK VINA RESULT:     -11.6      2.363      3.879
REMARK  Name = 9808844
REMARK  5 active torsions:
REMARK  status: ('A' for Active; 'I' for Inactive)
REMARK    1  A    between atoms: N_2  and  C_13
REMARK    2  A    between atoms: C_8  and  O_19
REMARK    3  A    between atoms: O_19  and  C_20
REMARK    4  A    between atoms: C_20  and  C_22
REMARK    5  A    between atoms: C_25  and  C_29
REMARK                            x       y       z     vdW  Elec       q    Type
REMARK                         _______ _______ _______ _____ _____    ______ ____
ROOT
ATOM      1  O   UNL     1      35.539 -22.707 -17.864  0.00  0.00    -0.446 OA
ATOM      2  N   UNL     1      35.604 -19.512 -21.303  0.00  0.00    -0.296 N 
ATOM      3  N   UNL     1      33.544 -20.508 -20.612  0.00  0.00    -0.130 NA
ATOM      4  N   UNL     1      32.802 -21.373 -19.817  0.00  0.00    -0.106 NA
ATOM      5  C   UNL     1      35.528 -21.173 -19.522  0.00  0.00    +0.076 A 
ATOM      6  C   UNL     1      34.756 -22.026 -18.745  0.00  0.00    +0.202 A 
ATOM      7  C   UNL     1      34.886 -20.397 -20.481  0.00  0.00    +0.157 A 
ATOM      8  C   UNL     1      33.388 -22.140 -18.878  0.00  0.00    +0.279 A 
ATOM      9  C   UNL     1      36.864 -21.353 -19.078  0.00  0.00    +0.047 C 
ATOM     10  C   UNL     1      36.816 -22.291 -18.073  0.00  0.00    +0.180 C 
ATOM     11  H   UNL     1      36.572 -19.508 -21.126  0.00  0.00    +0.154 HD
ENDROOT
BRANCH   2  13
ATOM     12 CL   UNL     1      33.964 -15.799 -25.614  0.00  0.00    -0.082 Cl
ATOM     13  C   UNL     1      35.213 -18.627 -22.331  0.00  0.00    +0.049 C 
ATOM     14  C   UNL     1      35.234 -17.250 -22.110  0.00  0.00    +0.016 C 
ATOM     15  C   UNL     1      34.807 -19.130 -23.566  0.00  0.00    +0.016 C 
ATOM     16  C   UNL     1      34.848 -16.376 -23.125  0.00  0.00    +0.013 C 
ATOM     17  C   UNL     1      34.420 -18.255 -24.582  0.00  0.00    +0.013 C 
ATOM     18  C   UNL     1      34.441 -16.879 -24.361  0.00  0.00    +0.058 C 
ENDBRANCH   2  13
BRANCH   8  19
ATOM     19  O   UNL     1      32.618 -22.980 -18.116  0.00  0.00    -0.452 OA
BRANCH  19  20
ATOM     20  C   UNL     1      32.986 -23.122 -16.749  0.00  0.00    +0.234 C 
BRANCH  20  22
ATOM     21  N   UNL     1      29.524 -24.230 -14.477  0.00  0.00    -0.239 NA
ATOM     22  C   UNL     1      31.773 -23.510 -15.954  0.00  0.00    +0.024 C 
ATOM     23  C   UNL     1      30.508 -23.256 -16.458  0.00  0.00    +0.023 C 
ATOM     24  C   UNL     1      31.926 -24.120 -14.718  0.00  0.00    +0.020 C 
ATOM     25  C   UNL     1      29.422 -23.634 -15.686  0.00  0.00    +0.134 C 
ATOM     26  C   UNL     1      30.777 -24.458 -14.024  0.00  0.00    +0.099 C 
BRANCH  25  29
ATOM     27  O   UNL     1      27.656 -23.940 -17.199  0.00  0.00    -0.268 OA
ATOM     28  N   UNL     1      27.261 -22.557 -15.381  0.00  0.00    -0.298 N 
ATOM     29  C   UNL     1      28.069 -23.396 -16.158  0.00  0.00    +0.264 C 
ATOM     30  C   UNL     1      25.888 -22.243 -15.705  0.00  0.00    +0.111 C 
ATOM     31  H   UNL     1      27.650 -22.159 -14.569  0.00  0.00    +0.150 HD
ENDBRANCH  25  29
ENDBRANCH  20  22
ENDBRANCH  19  20
ENDBRANCH   8  19
TORSDOF 5
ENDMDL
MODEL 3
REMARK VINA RESULT:     -11.6      7.419     11.775
REMARK  Name = 9808844
REMARK  5 active torsions:
REMARK  status: ('A' for Active; 'I' for Inactive)
REMARK    1  A    between atoms: N_2  and  C_13
REMARK    2  A    between atoms: C_8  and  O_19
REMARK    3  A    between atoms: O_19  and  C_20
REMARK    4  A    between atoms: C_20  and  C_22
REMARK    5  A    between atoms: C_25  and  C_29
REMARK                            x       y       z     vdW  Elec       q    Type
REMARK                         _______ _______ _______ _____ _____    ______ ____
ROOT
ATOM      1  O   UNL     1      33.562 -14.185 -24.784  0.00  0.00    -0.446 OA
ATOM      2  N   UNL     1      35.091 -18.072 -22.641  0.00  0.00    -0.296 N 
ATOM      3  N   UNL     1      34.512 -16.134 -21.368  0.00  0.00    -0.130 NA
ATOM      4  N   UNL     1      34.062 -14.824 -21.259  0.00  0.00    -0.106 NA
ATOM      5  C   UNL     1      34.293 -16.035 -23.716  0.00  0.00    +0.076 A 
ATOM      6  C   UNL     1      33.847 -14.729 -23.569  0.00  0.00    +0.202 A 
ATOM      7  C   UNL     1      34.632 -16.745 -22.569  0.00  0.00    +0.157 A 
ATOM      8  C   UNL     1      33.724 -14.104 -22.346  0.00  0.00    +0.279 A 
ATOM      9  C   UNL     1      34.275 -16.294 -25.111  0.00  0.00    +0.047 C 
ATOM     10  C   UNL     1      33.823 -15.142 -25.713  0.00  0.00    +0.180 C 
ATOM     11  H   UNL     1      35.141 -18.422 -23.560  0.00  0.00    +0.154 HD
ENDROOT
BRANCH   2  13
ATOM     12 CL   UNL     1      36.777 -21.976 -18.521  0.00  0.00    -0.082 Cl
ATOM     13  C   UNL     1      35.493 -19.003 -21.659  0.00  0.00    +0.049 C 
ATOM     14  C   UNL     1      34.580 -19.935 -21.167  0.00  0.00    +0.016 C 
ATOM     15  C   UNL     1      36.803 -18.990 -21.181  0.00  0.00    +0.016 C 
ATOM     16  C   UNL     1      34.977 -20.854 -20.197  0.00  0.00    +0.013 C 
ATOM     17  C   UNL     1      37.200 -19.909 -20.211  0.00  0.00    +0.013 C 
ATOM     18  C   UNL     1      36.287 -20.841 -19.719  0.00  0.00    +0.058 C 
ENDBRANCH   2  13
BRANCH   8  19
ATOM     19  O   UNL     1      33.286 -12.815 -22.192  0.00  0.00    -0.452 OA
BRANCH  19  20
ATOM     20  C   UNL     1      31.921 -12.642 -21.830  0.00  0.00    +0.234 C 
BRANCH  20  22
ATOM     21  N   UNL     1      31.664  -9.723 -18.702  0.00  0.00    -0.239 NA
ATOM     22  C   UNL     1      31.831 -11.619 -20.735  0.00  0.00    +0.024 C 
ATOM     23  C   UNL     1      32.096 -10.288 -21.012  0.00  0.00    +0.023 C 
ATOM     24  C   UNL     1      31.485 -12.014 -19.452  0.00  0.00    +0.020 C 
ATOM     25  C   UNL     1      31.998  -9.384 -19.967  0.00  0.00    +0.134 C 
ATOM     26  C   UNL     1      31.416 -11.032 -18.476  0.00  0.00    +0.099 C 
BRANCH  25  29
ATOM     27  O   UNL     1      33.001  -7.336 -19.417  0.00  0.00    -0.268 OA
ATOM     28  N   UNL     1      31.672  -7.386 -21.317  0.00  0.00    -0.298 N 
ATOM     29  C   UNL     1      32.262  -7.973 -20.191  0.00  0.00    +0.264 C 
ATOM     30  C   UNL     1      31.858  -6.001 -21.687  0.00  0.00    +0.111 C 
ATOM     31  H   UNL     1      31.099  -7.947 -21.888  0.00  0.00    +0.150 HD
ENDBRANCH  25  29
ENDBRANCH  20  22
ENDBRANCH  19  20
ENDBRANCH   8  19
TORSDOF 5
ENDMDL
MODEL 4
REMARK VINA RESULT:     -11.2      1.294      1.540
REMARK  Name = 9808844
REMARK  5 active torsions:
REMARK  status: ('A' for Active; 'I' for Inactive)
REMARK    1  A    between atoms: N_2  and  C_13
REMARK    2  A    between atoms: C_8  and  O_19
REMARK    3  A    between atoms: O_19  and  C_20
REMARK    4  A    between atoms: C_20  and  C_22
REMARK    5  A    between atoms: C_25  and  C_29
REMARK                            x       y       z     vdW  Elec       q    Type
REMARK                         _______ _______ _______ _____ _____    ______ ____
ROOT
ATOM      1  O   UNL     1      35.616 -22.440 -18.195  0.00  0.00    -0.446 OA
ATOM      2  N   UNL     1      35.588 -19.260 -21.648  0.00  0.00    -0.296 N 
ATOM      3  N   UNL     1      33.539 -20.186 -20.837  0.00  0.00    -0.130 NA
ATOM      4  N   UNL     1      32.816 -21.023 -19.996  0.00  0.00    -0.106 NA
ATOM      5  C   UNL     1      35.560 -20.912 -19.858  0.00  0.00    +0.076 A 
ATOM      6  C   UNL     1      34.806 -21.737 -19.034  0.00  0.00    +0.202 A 
ATOM      7  C   UNL     1      34.889 -20.119 -20.782  0.00  0.00    +0.157 A 
ATOM      8  C   UNL     1      33.430 -21.807 -19.088  0.00  0.00    +0.279 A 
ATOM      9  C   UNL     1      36.913 -21.134 -19.490  0.00  0.00    +0.047 C 
ATOM     10  C   UNL     1      36.892 -22.067 -18.479  0.00  0.00    +0.180 C 
ATOM     11  H   UNL     1      36.564 -19.286 -21.527  0.00  0.00    +0.154 HD
ENDROOT
BRANCH   2  13
ATOM     12 CL   UNL     1      33.827 -15.509 -25.878  0.00  0.00    -0.082 Cl
ATOM     13  C   UNL     1      35.168 -18.366 -22.657  0.00  0.00    +0.049 C 
ATOM     14  C   UNL     1      34.666 -18.859 -23.860  0.00  0.00    +0.016 C 
ATOM     15  C   UNL     1      35.255 -16.989 -22.448  0.00  0.00    +0.016 C 
ATOM     16  C   UNL     1      34.251 -17.975 -24.857  0.00  0.00    +0.013 C 
ATOM     17  C   UNL     1      34.840 -16.106 -23.444  0.00  0.00    +0.013 C 
ATOM     18  C   UNL     1      34.338 -16.599 -24.648  0.00  0.00    +0.058 C 
ENDBRANCH   2  13
BRANCH   8  19
ATOM     19  O   UNL     1      32.678 -22.618 -18.280  0.00  0.00    -0.452 OA
BRANCH  19  20
ATOM     20  C   UNL     1      33.318 -23.780 -17.765  0.00  0.00    +0.234 C 
BRANCH  20  22
ATOM     21  N   UNL     1      32.751 -23.919 -13.519  0.00  0.00    -0.239 NA
ATOM     22  C   UNL     1      33.120 -23.829 -16.278  0.00  0.00    +0.024 C 
ATOM     23  C   UNL     1      34.175 -24.182 -15.453  0.00  0.00    +0.023 C 
ATOM     24  C   UNL     1      31.881 -23.521 -15.738  0.00  0.00    +0.020 C 
ATOM     25  C   UNL     1      33.941 -24.211 -14.088  0.00  0.00    +0.134 C 
ATOM     26  C   UNL     1      31.749 -23.581 -14.361  0.00  0.00    +0.099 C 
BRANCH  25  29
ATOM     27  O   UNL     1      35.137 -23.976 -12.084  0.00  0.00    -0.268 OA
ATOM     28  N   UNL     1      35.848 -25.624 -13.552  0.00  0.00    -0.298 N 
ATOM     29  C   UNL     1      35.006 -24.572 -13.169  0.00  0.00    +0.264 C 
ATOM     30  C   UNL     1      36.936 -26.115 -12.737  0.00  0.00    +0.111 C 
ATOM     31  H   UNL     1      35.689 -26.053 -14.423  0.00  0.00    +0.150 HD
ENDBRANCH  25  29
ENDBRANCH  20  22
ENDBRANCH  19  20
ENDBRANCH   8  19
TORSDOF 5
ENDMDL
MODEL 5
REMARK VINA RESULT:     -11.2      6.981     10.633
REMARK  Name = 9808844
REMARK  5 active torsions:
REMARK  status: ('A' for Active; 'I' for Inactive)
REMARK    1  A    between atoms: N_2  and  C_13
REMARK    2  A    between atoms: C_8  and  O_19
REMARK    3  A    between atoms: O_19  and  C_20
REMARK    4  A    between atoms: C_20  and  C_22
REMARK    5  A    between atoms: C_25  and  C_29
REMARK                            x       y       z     vdW  Elec       q    Type
REMARK                         _______ _______ _______ _____ _____    ______ ____
ROOT
ATOM      1  O   UNL     1      32.547 -14.827 -21.151  0.00  0.00    -0.446 OA
ATOM      2  N   UNL     1      32.240 -10.194 -21.840  0.00  0.00    -0.296 N 
ATOM      3  N   UNL     1      33.170 -11.610 -23.525  0.00  0.00    -0.130 NA
ATOM      4  N   UNL     1      33.550 -12.855 -24.013  0.00  0.00    -0.106 NA
ATOM      5  C   UNL     1      32.417 -12.603 -21.521  0.00  0.00    +0.076 A 
ATOM      6  C   UNL     1      32.808 -13.830 -22.041  0.00  0.00    +0.202 A 
ATOM      7  C   UNL     1      32.612 -11.468 -22.301  0.00  0.00    +0.157 A 
ATOM      8  C   UNL     1      33.378 -13.977 -23.288  0.00  0.00    +0.279 A 
ATOM      9  C   UNL     1      31.886 -12.881 -20.235  0.00  0.00    +0.047 C 
ATOM     10  C   UNL     1      31.987 -14.243 -20.059  0.00  0.00    +0.180 C 
ATOM     11  H   UNL     1      31.843 -10.201 -20.939  0.00  0.00    +0.154 HD
ENDROOT
BRANCH   2  13
ATOM     12 CL   UNL     1      32.580  -4.790 -24.237  0.00  0.00    -0.082 Cl
ATOM     13  C   UNL     1      32.321  -8.906 -22.411  0.00  0.00    +0.049 C 
ATOM     14  C   UNL     1      33.517  -8.191 -22.351  0.00  0.00    +0.016 C 
ATOM     15  C   UNL     1      31.205  -8.349 -23.037  0.00  0.00    +0.016 C 
ATOM     16  C   UNL     1      33.597  -6.918 -22.916  0.00  0.00    +0.013 C 
ATOM     17  C   UNL     1      31.286  -7.076 -23.601  0.00  0.00    +0.013 C 
ATOM     18  C   UNL     1      32.481  -6.361 -23.541  0.00  0.00    +0.058 C 
ENDBRANCH   2  13
BRANCH   8  19
ATOM     19  O   UNL     1      33.767 -15.183 -23.808  0.00  0.00    -0.452 OA
BRANCH  19  20
ATOM     20  C   UNL     1      35.067 -15.642 -23.456  0.00  0.00    +0.234 C 
BRANCH  20  22
ATOM     21  N   UNL     1      34.972 -19.905 -23.027  0.00  0.00    -0.239 NA
ATOM     22  C   UNL     1      35.035 -17.135 -23.305  0.00  0.00    +0.024 C 
ATOM     23  C   UNL     1      35.540 -17.723 -22.157  0.00  0.00    +0.023 C 
ATOM     24  C   UNL     1      34.499 -17.917 -24.317  0.00  0.00    +0.020 C 
ATOM     25  C   UNL     1      35.485 -19.104 -22.067  0.00  0.00    +0.134 C 
ATOM     26  C   UNL     1      34.492 -19.289 -24.130  0.00  0.00    +0.099 C 
BRANCH  25  29
ATOM     27  O   UNL     1      37.048 -19.399 -20.344  0.00  0.00    -0.268 OA
ATOM     28  N   UNL     1      35.246 -20.856 -20.395  0.00  0.00    -0.298 N 
ATOM     29  C   UNL     1      35.997 -19.782 -20.889  0.00  0.00    +0.264 C 
ATOM     30  C   UNL     1      35.610 -21.614 -19.220  0.00  0.00    +0.111 C 
ATOM     31  H   UNL     1      34.423 -21.107 -20.873  0.00  0.00    +0.150 HD
ENDBRANCH  25  29
ENDBRANCH  20  22
ENDBRANCH  19  20
ENDBRANCH   8  19
TORSDOF 5
ENDMDL
MODEL 6
REMARK VINA RESULT:     -10.9      6.879     11.498
REMARK  Name = 9808844
REMARK  5 active torsions:
REMARK  status: ('A' for Active; 'I' for Inactive)
REMARK    1  A    between atoms: N_2  and  C_13
REMARK    2  A    between atoms: C_8  and  O_19
REMARK    3  A    between atoms: O_19  and  C_20
REMARK    4  A    between atoms: C_20  and  C_22
REMARK    5  A    between atoms: C_25  and  C_29
REMARK                            x       y       z     vdW  Elec       q    Type
REMARK                         _______ _______ _______ _____ _____    ______ ____
ROOT
ATOM      1  O   UNL     1      34.520 -15.482 -24.244  0.00  0.00    -0.446 OA
ATOM      2  N   UNL     1      35.002 -19.406 -21.712  0.00  0.00    -0.296 N 
ATOM      3  N   UNL     1      34.519 -17.325 -20.641  0.00  0.00    -0.130 NA
ATOM      4  N   UNL     1      34.270 -15.958 -20.666  0.00  0.00    -0.106 NA
ATOM      5  C   UNL     1      34.744 -17.348 -22.990  0.00  0.00    +0.076 A 
ATOM      6  C   UNL     1      34.492 -15.983 -22.978  0.00  0.00    +0.202 A 
ATOM      7  C   UNL     1      34.754 -18.024 -21.775  0.00  0.00    +0.157 A 
ATOM      8  C   UNL     1      34.252 -15.268 -21.823  0.00  0.00    +0.279 A 
ATOM      9  C   UNL     1      34.936 -17.691 -24.354  0.00  0.00    +0.047 C 
ATOM     10  C   UNL     1      34.789 -16.526 -25.072  0.00  0.00    +0.180 C 
ATOM     11  H   UNL     1      35.161 -19.819 -22.591  0.00  0.00    +0.154 HD
ENDROOT
BRANCH   2  13
ATOM     12 CL   UNL     1      35.279 -23.242 -17.210  0.00  0.00    -0.082 Cl
ATOM     13  C   UNL     1      35.068 -20.320 -20.638  0.00  0.00    +0.049 C 
ATOM     14  C   UNL     1      36.306 -20.691 -20.113  0.00  0.00    +0.016 C 
ATOM     15  C   UNL     1      33.895 -20.852 -20.103  0.00  0.00    +0.016 C 
ATOM     16  C   UNL     1      36.371 -21.594 -19.053  0.00  0.00    +0.013 C 
ATOM     17  C   UNL     1      33.961 -21.756 -19.043  0.00  0.00    +0.013 C 
ATOM     18  C   UNL     1      35.198 -22.126 -18.518  0.00  0.00    +0.058 C 
ENDBRANCH   2  13
BRANCH   8  19
ATOM     19  O   UNL     1      34.003 -13.921 -21.801  0.00  0.00    -0.452 OA
BRANCH  19  20
ATOM     20  C   UNL     1      32.713 -13.501 -22.232  0.00  0.00    +0.234 C 
BRANCH  20  22
ATOM     21  N   UNL     1      31.375 -10.300 -19.714  0.00  0.00    -0.239 NA
ATOM     22  C   UNL     1      32.245 -12.379 -21.351  0.00  0.00    +0.024 C 
ATOM     23  C   UNL     1      32.231 -11.082 -21.835  0.00  0.00    +0.023 C 
ATOM     24  C   UNL     1      31.830 -12.649 -20.056  0.00  0.00    +0.020 C 
ATOM     25  C   UNL     1      31.789 -10.083 -20.983  0.00  0.00    +0.134 C 
ATOM     26  C   UNL     1      31.407 -11.581 -19.282  0.00  0.00    +0.099 C 
BRANCH  25  29
ATOM     27  O   UNL     1      32.288  -7.803 -20.760  0.00  0.00    -0.268 OA
ATOM     28  N   UNL     1      31.103  -8.445 -22.646  0.00  0.00    -0.298 N 
ATOM     29  C   UNL     1      31.748  -8.702 -21.430  0.00  0.00    +0.264 C 
ATOM     30  C   UNL     1      31.001  -7.129 -23.235  0.00  0.00    +0.111 C 
ATOM     31  H   UNL     1      30.698  -9.202 -23.127  0.00  0.00    +0.150 HD
ENDBRANCH  25  29
ENDBRANCH  20  22
ENDBRANCH  19  20
ENDBRANCH   8  19
TORSDOF 5
ENDMDL
MODEL 7
REMARK VINA RESULT:     -10.9      8.214     11.764
REMARK  Name = 9808844
REMARK  5 active torsions:
REMARK  status: ('A' for Active; 'I' for Inactive)
REMARK    1  A    between atoms: N_2  and  C_13
REMARK    2  A    between atoms: C_8  and  O_19
REMARK    3  A    between atoms: O_19  and  C_20
REMARK    4  A    between atoms: C_20  and  C_22
REMARK    5  A    between atoms: C_25  and  C_29
REMARK                            x       y       z     vdW  Elec       q    Type
REMARK                         _______ _______ _______ _____ _____    ______ ____
ROOT
ATOM      1  O   UNL     1      31.513 -12.341 -19.152  0.00  0.00    -0.446 OA
ATOM      2  N   UNL     1      31.932  -8.229 -21.379  0.00  0.00    -0.296 N 
ATOM      3  N   UNL     1      32.479 -10.271 -22.492  0.00  0.00    -0.130 NA
ATOM      4  N   UNL     1      32.606 -11.655 -22.532  0.00  0.00    -0.106 NA
ATOM      5  C   UNL     1      31.728 -10.383 -20.258  0.00  0.00    +0.076 A 
ATOM      6  C   UNL     1      31.867 -11.762 -20.333  0.00  0.00    +0.202 A 
ATOM      7  C   UNL     1      32.048  -9.630 -21.382  0.00  0.00    +0.157 A 
ATOM      8  C   UNL     1      32.306 -12.419 -21.463  0.00  0.00    +0.279 A 
ATOM      9  C   UNL     1      31.259 -10.114 -18.946  0.00  0.00    +0.047 C 
ATOM     10  C   UNL     1      31.145 -11.333 -18.317  0.00  0.00    +0.180 C 
ATOM     11  H   UNL     1      31.610  -7.862 -20.524  0.00  0.00    +0.154 HD
ENDROOT
BRANCH   2  13
ATOM     12 CL   UNL     1      32.983  -4.095 -25.485  0.00  0.00    -0.082 Cl
ATOM     13  C   UNL     1      32.182  -7.243 -22.358  0.00  0.00    +0.049 C 
ATOM     14  C   UNL     1      31.197  -6.309 -22.674  0.00  0.00    +0.016 C 
ATOM     15  C   UNL     1      33.416  -7.204 -23.007  0.00  0.00    +0.016 C 
ATOM     16  C   UNL     1      31.444  -5.336 -23.641  0.00  0.00    +0.013 C 
ATOM     17  C   UNL     1      33.663  -6.230 -23.974  0.00  0.00    +0.013 C 
ATOM     18  C   UNL     1      32.678  -5.296 -24.291  0.00  0.00    +0.058 C 
ENDBRANCH   2  13
BRANCH   8  19
ATOM     19  O   UNL     1      32.447 -13.779 -21.546  0.00  0.00    -0.452 OA
BRANCH  19  20
ATOM     20  C   UNL     1      33.534 -14.354 -20.831  0.00  0.00    +0.234 C 
BRANCH  20  22
ATOM     21  N   UNL     1      35.310 -17.430 -23.231  0.00  0.00    -0.239 NA
ATOM     22  C   UNL     1      34.156 -15.432 -21.671  0.00  0.00    +0.024 C 
ATOM     23  C   UNL     1      34.684 -16.560 -21.065  0.00  0.00    +0.023 C 
ATOM     24  C   UNL     1      34.199 -15.291 -23.049  0.00  0.00    +0.020 C 
ATOM     25  C   UNL     1      35.246 -17.525 -21.884  0.00  0.00    +0.134 C 
ATOM     26  C   UNL     1      34.783 -16.313 -23.780  0.00  0.00    +0.099 C 
BRANCH  25  29
ATOM     27  O   UNL     1      37.048 -18.914 -21.315  0.00  0.00    -0.268 OA
ATOM     28  N   UNL     1      34.925 -19.650 -20.743  0.00  0.00    -0.298 N 
ATOM     29  C   UNL     1      35.816 -18.732 -21.311  0.00  0.00    +0.264 C 
ATOM     30  C   UNL     1      35.339 -20.883 -20.114  0.00  0.00    +0.111 C 
ATOM     31  H   UNL     1      33.963 -19.444 -20.773  0.00  0.00    +0.150 HD
ENDBRANCH  25  29
ENDBRANCH  20  22
ENDBRANCH  19  20
ENDBRANCH   8  19
TORSDOF 5
ENDMDL
MODEL 8
REMARK VINA RESULT:     -10.2      8.847     12.783
REMARK  Name = 9808844
REMARK  5 active torsions:
REMARK  status: ('A' for Active; 'I' for Inactive)
REMARK    1  A    between atoms: N_2  and  C_13
REMARK    2  A    between atoms: C_8  and  O_19
REMARK    3  A    between atoms: O_19  and  C_20
REMARK    4  A    between atoms: C_20  and  C_22
REMARK    5  A    between atoms: C_25  and  C_29
REMARK                            x       y       z     vdW  Elec       q    Type
REMARK                         _______ _______ _______ _____ _____    ______ ____
ROOT
ATOM      1  O   UNL     1      31.416 -11.958 -18.759  0.00  0.00    -0.446 OA
ATOM      2  N   UNL     1      32.096  -8.033 -21.244  0.00  0.00    -0.296 N 
ATOM      3  N   UNL     1      32.257 -10.174 -22.292  0.00  0.00    -0.130 NA
ATOM      4  N   UNL     1      32.205 -11.563 -22.267  0.00  0.00    -0.106 NA
ATOM      5  C   UNL     1      31.750 -10.093 -19.989  0.00  0.00    +0.076 A 
ATOM      6  C   UNL     1      31.707 -11.480 -20.001  0.00  0.00    +0.202 A 
ATOM      7  C   UNL     1      32.035  -9.436 -21.181  0.00  0.00    +0.157 A 
ATOM      8  C   UNL     1      31.932 -12.235 -21.132  0.00  0.00    +0.279 A 
ATOM      9  C   UNL     1      31.467  -9.710 -18.652  0.00  0.00    +0.047 C 
ATOM     10  C   UNL     1      31.272 -10.877 -17.948  0.00  0.00    +0.180 C 
ATOM     11  H   UNL     1      31.920  -7.592 -20.381  0.00  0.00    +0.154 HD
ENDROOT
BRANCH   2  13
ATOM     12 CL   UNL     1      33.193  -4.247 -25.662  0.00  0.00    -0.082 Cl
ATOM     13  C   UNL     1      32.357  -7.130 -22.297  0.00  0.00    +0.049 C 
ATOM     14  C   UNL     1      31.395  -6.190 -22.664  0.00  0.00    +0.016 C 
ATOM     15  C   UNL     1      33.578  -7.179 -22.969  0.00  0.00    +0.016 C 
ATOM     16  C   UNL     1      31.654  -5.298 -23.704  0.00  0.00    +0.013 C 
ATOM     17  C   UNL     1      33.837  -6.287 -24.010  0.00  0.00    +0.013 C 
ATOM     18  C   UNL     1      32.875  -5.347 -24.377  0.00  0.00    +0.058 C 
ENDBRANCH   2  13
BRANCH   8  19
ATOM     19  O   UNL     1      31.892 -13.604 -21.153  0.00  0.00    -0.452 OA
BRANCH  19  20
ATOM     20  C   UNL     1      32.911 -14.286 -20.430  0.00  0.00    +0.234 C 
BRANCH  20  22
ATOM     21  N   UNL     1      35.093 -16.805 -23.125  0.00  0.00    -0.239 NA
ATOM     22  C   UNL     1      33.675 -15.168 -21.375  0.00  0.00    +0.024 C 
ATOM     23  C   UNL     1      33.578 -14.962 -22.741  0.00  0.00    +0.023 C 
ATOM     24  C   UNL     1      34.472 -16.185 -20.873  0.00  0.00    +0.020 C 
ATOM     25  C   UNL     1      34.303 -15.802 -23.569  0.00  0.00    +0.134 C 
ATOM     26  C   UNL     1      35.157 -16.971 -21.785  0.00  0.00    +0.099 C 
BRANCH  25  29
ATOM     27  O   UNL     1      34.723 -16.505 -25.767  0.00  0.00    -0.268 OA
ATOM     28  N   UNL     1      33.616 -14.486 -25.497  0.00  0.00    -0.298 N 
ATOM     29  C   UNL     1      34.246 -15.638 -25.011  0.00  0.00    +0.264 C 
ATOM     30  C   UNL     1      33.458 -14.192 -26.903  0.00  0.00    +0.111 C 
ATOM     31  H   UNL     1      33.259 -13.841 -24.844  0.00  0.00    +0.150 HD
ENDBRANCH  25  29
ENDBRANCH  20  22
ENDBRANCH  19  20
ENDBRANCH   8  19
TORSDOF 5
ENDMDL
MODEL 9
REMARK VINA RESULT:     -10.2      4.566     10.136
REMARK  Name = 9808844
REMARK  5 active torsions:
REMARK  status: ('A' for Active; 'I' for Inactive)
REMARK    1  A    between atoms: N_2  and  C_13
REMARK    2  A    between atoms: C_8  and  O_19
REMARK    3  A    between atoms: O_19  and  C_20
REMARK    4  A    between atoms: C_20  and  C_22
REMARK    5  A    between atoms: C_25  and  C_29
REMARK                            x       y       z     vdW  Elec       q    Type
REMARK                         _______ _______ _______ _____ _____    ______ ____
ROOT
ATOM      1  O   UNL     1      33.758 -20.712 -20.530  0.00  0.00    -0.446 OA
ATOM      2  N   UNL     1      35.085 -23.188 -16.769  0.00  0.00    -0.296 N 
ATOM      3  N   UNL     1      36.698 -21.987 -18.060  0.00  0.00    -0.130 NA
ATOM      4  N   UNL     1      37.059 -21.164 -19.120  0.00  0.00    -0.106 NA
ATOM      5  C   UNL     1      34.437 -21.891 -18.727  0.00  0.00    +0.076 A 
ATOM      6  C   UNL     1      34.833 -21.071 -19.775  0.00  0.00    +0.202 A 
ATOM      7  C   UNL     1      35.413 -22.354 -17.852  0.00  0.00    +0.157 A 
ATOM      8  C   UNL     1      36.142 -20.695 -19.989  0.00  0.00    +0.279 A 
ATOM      9  C   UNL     1      33.031 -22.034 -18.860  0.00  0.00    +0.047 C 
ATOM     10  C   UNL     1      32.670 -21.300 -19.967  0.00  0.00    +0.180 C 
ATOM     11  H   UNL     1      34.125 -23.395 -16.707  0.00  0.00    +0.154 HD
ENDROOT
BRANCH   2  13
ATOM     12 CL   UNL     1      38.328 -25.699 -12.498  0.00  0.00    -0.082 Cl
ATOM     13  C   UNL     1      35.858 -23.786 -15.751  0.00  0.00    +0.049 C 
ATOM     14  C   UNL     1      35.322 -24.822 -14.986  0.00  0.00    +0.016 C 
ATOM     15  C   UNL     1      37.159 -23.342 -15.511  0.00  0.00    +0.016 C 
ATOM     16  C   UNL     1      36.086 -25.413 -13.981  0.00  0.00    +0.013 C 
ATOM     17  C   UNL     1      37.922 -23.934 -14.505  0.00  0.00    +0.013 C 
ATOM     18  C   UNL     1      37.386 -24.969 -13.740  0.00  0.00    +0.058 C 
ENDBRANCH   2  13
BRANCH   8  19
ATOM     19  O   UNL     1      36.543 -19.888 -21.021  0.00  0.00    -0.452 OA
BRANCH  19  20
ATOM     20  C   UNL     1      35.937 -18.602 -21.100  0.00  0.00    +0.234 C 
BRANCH  20  22
ATOM     21  N   UNL     1      34.137 -18.143 -24.963  0.00  0.00    -0.239 NA
ATOM     22  C   UNL     1      35.307 -18.441 -22.453  0.00  0.00    +0.024 C 
ATOM     23  C   UNL     1      35.060 -17.172 -22.950  0.00  0.00    +0.023 C 
ATOM     24  C   UNL     1      34.975 -19.563 -23.195  0.00  0.00    +0.020 C 
ATOM     25  C   UNL     1      34.477 -17.078 -24.204  0.00  0.00    +0.134 C 
ATOM     26  C   UNL     1      34.395 -19.362 -24.437  0.00  0.00    +0.099 C 
BRANCH  25  29
ATOM     27  O   UNL     1      34.073 -15.644 -26.016  0.00  0.00    -0.268 OA
ATOM     28  N   UNL     1      34.040 -14.704 -23.897  0.00  0.00    -0.298 N 
ATOM     29  C   UNL     1      34.193 -15.776 -24.784  0.00  0.00    +0.264 C 
ATOM     30  C   UNL     1      33.732 -13.355 -24.317  0.00  0.00    +0.111 C 
ATOM     31  H   UNL     1      34.147 -14.877 -22.934  0.00  0.00    +0.150 HD
ENDBRANCH  25  29
ENDBRANCH  20  22
ENDBRANCH  19  20
ENDBRANCH   8  19
TORSDOF 5
ENDMDL
