MODEL 1
REMARK VINA RESULT:     -12.7      0.000      0.000
REMARK  Name = 71351
REMARK  4 active torsions:
REMARK  status: ('A' for Active; 'I' for Inactive)
REMARK    1  A    between atoms: N_1  and  C_18
REMARK    2  A    between atoms: C_2  and  C_11
REMARK    3  A    between atoms: C_18  and  C_19
REMARK    4  A    between atoms: C_19  and  C_23
REMARK                            x       y       z     vdW  Elec       q    Type
REMARK                         _______ _______ _______ _____ _____    ______ ____
ROOT
ATOM      1  N   UNL     1      36.011 -19.897 -20.170  0.00  0.00    +0.387 N 
ATOM      2  C   UNL     1      35.396 -18.773 -22.810  0.00  0.00    +0.039 C 
ATOM      3  C   UNL     1      36.600 -18.307 -21.974  0.00  0.00    -0.017 C 
ATOM      4  C   UNL     1      34.312 -19.350 -21.886  0.00  0.00    -0.017 C 
ATOM      5  C   UNL     1      37.092 -19.417 -21.042  0.00  0.00    -0.077 C 
ATOM      6  C   UNL     1      34.888 -20.423 -20.958  0.00  0.00    -0.077 C 
ATOM      7  H   UNL     1      35.669 -19.103 -19.627  0.00  0.00    -0.080 HD
ENDROOT
BRANCH   2  11
ATOM      8  F   UNL     1      33.474 -12.395 -23.732  0.00  0.00    -0.204 F 
ATOM      9  O   UNL     1      34.146 -16.796 -25.551  0.00  0.00    -0.354 OA
ATOM     10  N   UNL     1      34.606 -17.984 -24.997  0.00  0.00    -0.081 NA
ATOM     11  C   UNL     1      34.867 -17.692 -23.725  0.00  0.00    +0.100 A 
ATOM     12  C   UNL     1      34.601 -16.352 -23.403  0.00  0.00    +0.054 A 
ATOM     13  C   UNL     1      34.144 -15.824 -24.598  0.00  0.00    +0.179 A 
ATOM     14  C   UNL     1      34.682 -15.521 -22.276  0.00  0.00    +0.007 C 
ATOM     15  C   UNL     1      33.750 -14.501 -24.771  0.00  0.00    +0.070 C 
ATOM     16  C   UNL     1      34.293 -14.180 -22.414  0.00  0.00    +0.030 C 
ATOM     17  C   UNL     1      33.837 -13.682 -23.640  0.00  0.00    +0.143 C 
ENDBRANCH   2  11
BRANCH   1  18
ATOM     18  C   UNL     1      36.511 -20.916 -19.248  0.00  0.00    -0.076 C 
BRANCH  18  19
ATOM     19  C   UNL     1      35.693 -22.191 -19.391  0.00  0.00    -0.007 C 
BRANCH  19  23
ATOM     20  O   UNL     1      33.010 -22.795 -19.026  0.00  0.00    -0.274 OA
ATOM     21  N   UNL     1      33.203 -23.277 -16.748  0.00  0.00    -0.211 N 
ATOM     22  N   UNL     1      35.341 -23.163 -15.720  0.00  0.00    -0.395 NA
ATOM     23  C   UNL     1      35.161 -22.637 -18.061  0.00  0.00    +0.123 C 
ATOM     24  C   UNL     1      35.875 -22.790 -16.928  0.00  0.00    +0.097 C 
ATOM     25  C   UNL     1      33.689 -22.906 -18.005  0.00  0.00    +0.241 C 
ATOM     26  C   UNL     1      34.064 -23.389 -15.650  0.00  0.00    +0.188 C 
ATOM     27  C   UNL     1      37.367 -22.587 -16.870  0.00  0.00    +0.062 C 
ATOM     28  C   UNL     1      33.454 -23.798 -14.335  0.00  0.00    +0.023 C 
ATOM     29  C   UNL     1      31.844 -23.536 -16.610  0.00  0.00    +0.074 C 
ATOM     30  C   UNL     1      32.135 -24.030 -14.280  0.00  0.00    +0.001 C 
ATOM     31  C   UNL     1      31.304 -23.898 -15.443  0.00  0.00    +0.016 C 
ATOM     32  C   UNL     1      34.352 -23.924 -13.143  0.00  0.00    +0.035 C 
ENDBRANCH  19  23
ENDBRANCH  18  19
ENDBRANCH   1  18
TORSDOF 4
ENDMDL
MODEL 2
REMARK VINA RESULT:     -12.6      4.255     10.584
REMARK  Name = 71351
REMARK  4 active torsions:
REMARK  status: ('A' for Active; 'I' for Inactive)
REMARK    1  A    between atoms: N_1  and  C_18
REMARK    2  A    between atoms: C_2  and  C_11
REMARK    3  A    between atoms: C_18  and  C_19
REMARK    4  A    between atoms: C_19  and  C_23
REMARK                            x       y       z     vdW  Elec       q    Type
REMARK                         _______ _______ _______ _____ _____    ______ ____
ROOT
ATOM      1  N   UNL     1      35.047 -15.810 -23.113  0.00  0.00    +0.387 N 
ATOM      2  C   UNL     1      34.787 -18.338 -21.648  0.00  0.00    +0.039 C 
ATOM      3  C   UNL     1      34.920 -16.982 -20.936  0.00  0.00    -0.017 C 
ATOM      4  C   UNL     1      35.416 -18.257 -23.048  0.00  0.00    -0.017 C 
ATOM      5  C   UNL     1      34.379 -15.843 -21.805  0.00  0.00    -0.077 C 
ATOM      6  C   UNL     1      34.855 -17.071 -23.840  0.00  0.00    -0.077 C 
ATOM      7  H   UNL     1      36.047 -15.688 -22.952  0.00  0.00    -0.080 HD
ENDROOT
BRANCH   2  11
ATOM      8  F   UNL     1      33.710 -23.867 -17.975  0.00  0.00    -0.204 F 
ATOM      9  O   UNL     1      36.819 -20.728 -19.874  0.00  0.00    -0.354 OA
ATOM     10  N   UNL     1      36.651 -19.592 -20.658  0.00  0.00    -0.081 NA
ATOM     11  C   UNL     1      35.335 -19.484 -20.828  0.00  0.00    +0.100 A 
ATOM     12  C   UNL     1      34.612 -20.503 -20.190  0.00  0.00    +0.054 A 
ATOM     13  C   UNL     1      35.601 -21.269 -19.597  0.00  0.00    +0.179 A 
ATOM     14  C   UNL     1      33.271 -20.880 -20.032  0.00  0.00    +0.007 C 
ATOM     15  C   UNL     1      35.360 -22.411 -18.840  0.00  0.00    +0.070 C 
ATOM     16  C   UNL     1      32.991 -22.027 -19.275  0.00  0.00    +0.030 C 
ATOM     17  C   UNL     1      34.018 -22.777 -18.691  0.00  0.00    +0.143 C 
ENDBRANCH   2  11
BRANCH   1  18
ATOM     18  C   UNL     1      34.559 -14.682 -23.907  0.00  0.00    -0.076 C 
BRANCH  18  19
ATOM     19  C   UNL     1      33.135 -14.337 -23.497  0.00  0.00    -0.007 C 
BRANCH  19  23
ATOM     20  O   UNL     1      32.016 -13.639 -21.056  0.00  0.00    -0.274 OA
ATOM     21  N   UNL     1      32.265 -11.334 -21.353  0.00  0.00    -0.211 N 
ATOM     22  N   UNL     1      33.307 -10.531 -23.330  0.00  0.00    -0.395 NA
ATOM     23  C   UNL     1      33.037 -12.906 -23.057  0.00  0.00    +0.123 C 
ATOM     24  C   UNL     1      33.452 -11.829 -23.752  0.00  0.00    +0.097 C 
ATOM     25  C   UNL     1      32.389 -12.676 -21.726  0.00  0.00    +0.241 C 
ATOM     26  C   UNL     1      32.736 -10.312 -22.184  0.00  0.00    +0.188 C 
ATOM     27  C   UNL     1      34.152 -11.935 -25.082  0.00  0.00    +0.062 C 
ATOM     28  C   UNL     1      32.563  -8.896 -21.700  0.00  0.00    +0.023 C 
ATOM     29  C   UNL     1      31.665 -11.036 -20.134  0.00  0.00    +0.074 C 
ATOM     30  C   UNL     1      31.975  -8.688 -20.513  0.00  0.00    +0.001 C 
ATOM     31  C   UNL     1      31.513  -9.780 -19.706  0.00  0.00    +0.016 C 
ATOM     32  C   UNL     1      33.058  -7.781 -22.570  0.00  0.00    +0.035 C 
ENDBRANCH  19  23
ENDBRANCH  18  19
ENDBRANCH   1  18
TORSDOF 4
ENDMDL
MODEL 3
REMARK VINA RESULT:     -12.3      4.633     11.102
REMARK  Name = 71351
REMARK  4 active torsions:
REMARK  status: ('A' for Active; 'I' for Inactive)
REMARK    1  A    between atoms: N_1  and  C_18
REMARK    2  A    between atoms: C_2  and  C_11
REMARK    3  A    between atoms: C_18  and  C_19
REMARK    4  A    between atoms: C_19  and  C_23
REMARK                            x       y       z     vdW  Elec       q    Type
REMARK                         _______ _______ _______ _____ _____    ______ ____
ROOT
ATOM      1  N   UNL     1      34.773 -15.007 -22.726  0.00  0.00    +0.387 N 
ATOM      2  C   UNL     1      34.706 -17.751 -21.693  0.00  0.00    +0.039 C 
ATOM      3  C   UNL     1      34.593 -16.522 -20.777  0.00  0.00    -0.017 C 
ATOM      4  C   UNL     1      35.450 -17.374 -22.985  0.00  0.00    -0.017 C 
ATOM      5  C   UNL     1      33.993 -15.327 -21.524  0.00  0.00    -0.077 C 
ATOM      6  C   UNL     1      34.818 -16.148 -23.650  0.00  0.00    -0.077 C 
ATOM      7  H   UNL     1      35.729 -14.799 -22.435  0.00  0.00    -0.080 HD
ENDROOT
BRANCH   2  11
ATOM      8  F   UNL     1      33.934 -23.638 -18.535  0.00  0.00    -0.204 F 
ATOM      9  O   UNL     1      36.872 -20.209 -20.191  0.00  0.00    -0.354 OA
ATOM     10  N   UNL     1      36.641 -19.014 -20.862  0.00  0.00    -0.081 NA
ATOM     11  C   UNL     1      35.319 -18.945 -20.996  0.00  0.00    +0.100 A 
ATOM     12  C   UNL     1      34.651 -20.048 -20.442  0.00  0.00    +0.054 A 
ATOM     13  C   UNL     1      35.683 -20.824 -19.943  0.00  0.00    +0.179 A 
ATOM     14  C   UNL     1      33.330 -20.494 -20.294  0.00  0.00    +0.007 C 
ATOM     15  C   UNL     1      35.505 -22.041 -19.291  0.00  0.00    +0.070 C 
ATOM     16  C   UNL     1      33.113 -21.716 -19.643  0.00  0.00    +0.030 C 
ATOM     17  C   UNL     1      34.182 -22.474 -19.152  0.00  0.00    +0.143 C 
ENDBRANCH   2  11
BRANCH   1  18
ATOM     18  C   UNL     1      34.221 -13.828 -23.395  0.00  0.00    -0.076 C 
BRANCH  18  19
ATOM     19  C   UNL     1      32.815 -13.554 -22.883  0.00  0.00    -0.007 C 
BRANCH  19  23
ATOM     20  O   UNL     1      33.817 -11.421 -24.345  0.00  0.00    -0.274 OA
ATOM     21  N   UNL     1      33.211  -9.785 -22.790  0.00  0.00    -0.211 N 
ATOM     22  N   UNL     1      32.050 -10.437 -20.823  0.00  0.00    -0.395 NA
ATOM     23  C   UNL     1      32.689 -12.140 -22.398  0.00  0.00    +0.123 C 
ATOM     24  C   UNL     1      32.109 -11.740 -21.249  0.00  0.00    +0.097 C 
ATOM     25  C   UNL     1      33.297 -11.093 -23.279  0.00  0.00    +0.241 C 
ATOM     26  C   UNL     1      32.583  -9.516 -21.568  0.00  0.00    +0.188 C 
ATOM     27  C   UNL     1      31.430 -12.695 -20.302  0.00  0.00    +0.062 C 
ATOM     28  C   UNL     1      32.533  -8.079 -21.121  0.00  0.00    +0.023 C 
ATOM     29  C   UNL     1      33.760  -8.755 -23.545  0.00  0.00    +0.074 C 
ATOM     30  C   UNL     1      33.086  -7.140 -21.904  0.00  0.00    +0.001 C 
ATOM     31  C   UNL     1      33.715  -7.481 -23.148  0.00  0.00    +0.016 C 
ATOM     32  C   UNL     1      31.868  -7.762 -19.817  0.00  0.00    +0.035 C 
ENDBRANCH  19  23
ENDBRANCH  18  19
ENDBRANCH   1  18
TORSDOF 4
ENDMDL
MODEL 4
REMARK VINA RESULT:     -12.2      4.359     10.709
REMARK  Name = 71351
REMARK  4 active torsions:
REMARK  status: ('A' for Active; 'I' for Inactive)
REMARK    1  A    between atoms: N_1  and  C_18
REMARK    2  A    between atoms: C_2  and  C_11
REMARK    3  A    between atoms: C_18  and  C_19
REMARK    4  A    between atoms: C_19  and  C_23
REMARK                            x       y       z     vdW  Elec       q    Type
REMARK                         _______ _______ _______ _____ _____    ______ ____
ROOT
ATOM      1  N   UNL     1      34.127 -15.812 -23.078  0.00  0.00    +0.387 N 
ATOM      2  C   UNL     1      35.797 -17.785 -21.692  0.00  0.00    +0.039 C 
ATOM      3  C   UNL     1      35.216 -18.034 -23.094  0.00  0.00    -0.017 C 
ATOM      4  C   UNL     1      34.926 -16.768 -20.938  0.00  0.00    -0.017 C 
ATOM      5  C   UNL     1      34.992 -16.719 -23.843  0.00  0.00    -0.077 C 
ATOM      6  C   UNL     1      34.713 -15.498 -21.768  0.00  0.00    -0.077 C 
ATOM      7  H   UNL     1      33.237 -16.285 -22.919  0.00  0.00    -0.080 HD
ENDROOT
BRANCH   2  11
ATOM      8  F   UNL     1      33.232 -23.241 -18.711  0.00  0.00    -0.204 F 
ATOM      9  O   UNL     1      37.091 -20.620 -19.881  0.00  0.00    -0.354 OA
ATOM     10  N   UNL     1      37.244 -19.425 -20.575  0.00  0.00    -0.081 NA
ATOM     11  C   UNL     1      36.008 -19.063 -20.912  0.00  0.00    +0.100 A 
ATOM     12  C   UNL     1      35.030 -19.969 -20.472  0.00  0.00    +0.054 A 
ATOM     13  C   UNL     1      35.769 -20.942 -19.822  0.00  0.00    +0.179 A 
ATOM     14  C   UNL     1      33.635 -20.099 -20.533  0.00  0.00    +0.007 C 
ATOM     15  C   UNL     1      35.222 -22.065 -19.210  0.00  0.00    +0.070 C 
ATOM     16  C   UNL     1      33.049 -21.220 -19.927  0.00  0.00    +0.030 C 
ATOM     17  C   UNL     1      33.829 -22.183 -19.279  0.00  0.00    +0.143 C 
ENDBRANCH   2  11
BRANCH   1  18
ATOM     18  C   UNL     1      33.877 -14.584 -23.833  0.00  0.00    -0.076 C 
BRANCH  18  19
ATOM     19  C   UNL     1      32.551 -13.973 -23.403  0.00  0.00    -0.007 C 
BRANCH  19  23
ATOM     20  O   UNL     1      31.550 -13.009 -21.002  0.00  0.00    -0.274 OA
ATOM     21  N   UNL     1      32.254 -10.806 -21.341  0.00  0.00    -0.211 N 
ATOM     22  N   UNL     1      33.470 -10.272 -23.310  0.00  0.00    -0.395 NA
ATOM     23  C   UNL     1      32.731 -12.540 -22.995  0.00  0.00    +0.123 C 
ATOM     24  C   UNL     1      33.362 -11.583 -23.703  0.00  0.00    +0.097 C 
ATOM     25  C   UNL     1      32.117 -12.155 -21.684  0.00  0.00    +0.241 C 
ATOM     26  C   UNL     1      32.934  -9.917 -22.182  0.00  0.00    +0.188 C 
ATOM     27  C   UNL     1      34.051 -11.858 -25.014  0.00  0.00    +0.062 C 
ATOM     28  C   UNL     1      33.035  -8.484 -21.730  0.00  0.00    +0.023 C 
ATOM     29  C   UNL     1      31.704 -10.366 -20.142  0.00  0.00    +0.074 C 
ATOM     30  C   UNL     1      32.479  -8.135 -20.561  0.00  0.00    +0.001 C 
ATOM     31  C   UNL     1      31.796  -9.095 -19.743  0.00  0.00    +0.016 C 
ATOM     32  C   UNL     1      33.756  -7.510 -22.611  0.00  0.00    +0.035 C 
ENDBRANCH  19  23
ENDBRANCH  18  19
ENDBRANCH   1  18
TORSDOF 4
ENDMDL
MODEL 5
REMARK VINA RESULT:     -12.2      3.510     10.406
REMARK  Name = 71351
REMARK  4 active torsions:
REMARK  status: ('A' for Active; 'I' for Inactive)
REMARK    1  A    between atoms: N_1  and  C_18
REMARK    2  A    between atoms: C_2  and  C_11
REMARK    3  A    between atoms: C_18  and  C_19
REMARK    4  A    between atoms: C_19  and  C_23
REMARK                            x       y       z     vdW  Elec       q    Type
REMARK                         _______ _______ _______ _____ _____    ______ ____
ROOT
ATOM      1  N   UNL     1      34.447 -20.842 -19.849  0.00  0.00    +0.387 N 
ATOM      2  C   UNL     1      34.224 -22.974 -17.846  0.00  0.00    +0.039 C 
ATOM      3  C   UNL     1      33.035 -22.081 -18.236  0.00  0.00    -0.017 C 
ATOM      4  C   UNL     1      35.544 -22.236 -18.122  0.00  0.00    -0.017 C 
ATOM      5  C   UNL     1      33.178 -21.561 -19.669  0.00  0.00    -0.077 C 
ATOM      6  C   UNL     1      35.595 -21.711 -19.560  0.00  0.00    -0.077 C 
ATOM      7  H   UNL     1      34.465 -20.066 -19.186  0.00  0.00    -0.080 HD
ENDROOT
BRANCH   2  11
ATOM      8  F   UNL     1      30.449 -24.722 -12.562  0.00  0.00    -0.204 F 
ATOM      9  O   UNL     1      34.815 -24.215 -14.514  0.00  0.00    -0.354 OA
ATOM     10  N   UNL     1      35.244 -23.780 -15.763  0.00  0.00    -0.081 NA
ATOM     11  C   UNL     1      34.128 -23.486 -16.426  0.00  0.00    +0.100 A 
ATOM     12  C   UNL     1      32.966 -23.706 -15.672  0.00  0.00    +0.054 A 
ATOM     13  C   UNL     1      33.455 -24.169 -14.464  0.00  0.00    +0.179 A 
ATOM     14  C   UNL     1      31.579 -23.577 -15.842  0.00  0.00    +0.007 C 
ATOM     15  C   UNL     1      32.659 -24.526 -13.380  0.00  0.00    +0.070 C 
ATOM     16  C   UNL     1      30.746 -23.929 -14.771  0.00  0.00    +0.030 C 
ATOM     17  C   UNL     1      31.278 -24.395 -13.563  0.00  0.00    +0.143 C 
ENDBRANCH   2  11
BRANCH   1  18
ATOM     18  C   UNL     1      34.542 -20.303 -21.206  0.00  0.00    -0.076 C 
BRANCH  18  19
ATOM     19  C   UNL     1      35.576 -19.188 -21.248  0.00  0.00    -0.007 C 
BRANCH  19  23
ATOM     20  O   UNL     1      35.113 -16.618 -20.312  0.00  0.00    -0.274 OA
ATOM     21  N   UNL     1      34.447 -15.750 -22.377  0.00  0.00    -0.211 N 
ATOM     22  N   UNL     1      34.472 -17.163 -24.285  0.00  0.00    -0.395 NA
ATOM     23  C   UNL     1      35.136 -18.084 -22.165  0.00  0.00    +0.123 C 
ATOM     24  C   UNL     1      34.914 -18.190 -23.489  0.00  0.00    +0.097 C 
ATOM     25  C   UNL     1      34.901 -16.754 -21.517  0.00  0.00    +0.241 C 
ATOM     26  C   UNL     1      34.252 -16.006 -23.739  0.00  0.00    +0.188 C 
ATOM     27  C   UNL     1      35.153 -19.464 -24.258  0.00  0.00    +0.062 C 
ATOM     28  C   UNL     1      33.764 -14.863 -24.592  0.00  0.00    +0.023 C 
ATOM     29  C   UNL     1      34.196 -14.487 -21.851  0.00  0.00    +0.074 C 
ATOM     30  C   UNL     1      33.544 -13.674 -24.012  0.00  0.00    +0.001 C 
ATOM     31  C   UNL     1      33.764 -13.475 -22.609  0.00  0.00    +0.016 C 
ATOM     32  C   UNL     1      33.545 -15.109 -26.053  0.00  0.00    +0.035 C 
ENDBRANCH  19  23
ENDBRANCH  18  19
ENDBRANCH   1  18
TORSDOF 4
ENDMDL
MODEL 6
REMARK VINA RESULT:     -12.1      3.250     10.334
REMARK  Name = 71351
REMARK  4 active torsions:
REMARK  status: ('A' for Active; 'I' for Inactive)
REMARK    1  A    between atoms: N_1  and  C_18
REMARK    2  A    between atoms: C_2  and  C_11
REMARK    3  A    between atoms: C_18  and  C_19
REMARK    4  A    between atoms: C_19  and  C_23
REMARK                            x       y       z     vdW  Elec       q    Type
REMARK                         _______ _______ _______ _____ _____    ______ ____
ROOT
ATOM      1  N   UNL     1      35.693 -19.286 -20.814  0.00  0.00    +0.387 N 
ATOM      2  C   UNL     1      35.002 -21.810 -19.489  0.00  0.00    +0.039 C 
ATOM      3  C   UNL     1      33.937 -20.803 -19.954  0.00  0.00    -0.017 C 
ATOM      4  C   UNL     1      36.333 -21.084 -19.237  0.00  0.00    -0.017 C 
ATOM      5  C   UNL     1      34.437 -19.973 -21.139  0.00  0.00    -0.077 C 
ATOM      6  C   UNL     1      36.744 -20.245 -20.450  0.00  0.00    -0.077 C 
ATOM      7  H   UNL     1      35.523 -18.684 -20.007  0.00  0.00    -0.080 HD
ENDROOT
BRANCH   2  11
ATOM      8  F   UNL     1      36.240 -24.302 -13.367  0.00  0.00    -0.204 F 
ATOM      9  O   UNL     1      33.248 -23.867 -17.107  0.00  0.00    -0.354 OA
ATOM     10  N   UNL     1      33.350 -23.203 -18.323  0.00  0.00    -0.081 NA
ATOM     11  C   UNL     1      34.551 -22.630 -18.302  0.00  0.00    +0.100 A 
ATOM     12  C   UNL     1      35.260 -22.884 -17.118  0.00  0.00    +0.054 A 
ATOM     13  C   UNL     1      34.389 -23.675 -16.390  0.00  0.00    +0.179 A 
ATOM     14  C   UNL     1      36.508 -22.558 -16.566  0.00  0.00    +0.007 C 
ATOM     15  C   UNL     1      34.662 -24.182 -15.123  0.00  0.00    +0.070 C 
ATOM     16  C   UNL     1      36.816 -23.051 -15.290  0.00  0.00    +0.030 C 
ATOM     17  C   UNL     1      35.909 -23.848 -14.584  0.00  0.00    +0.143 C 
ENDBRANCH   2  11
BRANCH   1  18
ATOM     18  C   UNL     1      36.126 -18.453 -21.936  0.00  0.00    -0.076 C 
BRANCH  18  19
ATOM     19  C   UNL     1      35.019 -18.373 -22.978  0.00  0.00    -0.007 C 
BRANCH  19  23
ATOM     20  O   UNL     1      34.476 -17.479 -25.547  0.00  0.00    -0.274 OA
ATOM     21  N   UNL     1      34.098 -15.257 -24.930  0.00  0.00    -0.211 N 
ATOM     22  N   UNL     1      34.225 -14.659 -22.635  0.00  0.00    -0.395 NA
ATOM     23  C   UNL     1      34.644 -16.946 -23.251  0.00  0.00    +0.123 C 
ATOM     24  C   UNL     1      34.532 -15.963 -22.337  0.00  0.00    +0.097 C 
ATOM     25  C   UNL     1      34.402 -16.600 -24.688  0.00  0.00    +0.241 C 
ATOM     26  C   UNL     1      34.023 -14.337 -23.876  0.00  0.00    +0.188 C 
ATOM     27  C   UNL     1      34.713 -16.197 -20.859  0.00  0.00    +0.062 C 
ATOM     28  C   UNL     1      33.687 -12.912 -24.229  0.00  0.00    +0.023 C 
ATOM     29  C   UNL     1      33.868 -14.852 -26.240  0.00  0.00    +0.074 C 
ATOM     30  C   UNL     1      33.478 -12.598 -25.516  0.00  0.00    +0.001 C 
ATOM     31  C   UNL     1      33.570 -13.588 -26.551  0.00  0.00    +0.016 C 
ATOM     32  C   UNL     1      33.601 -11.907 -23.122  0.00  0.00    +0.035 C 
ENDBRANCH  19  23
ENDBRANCH  18  19
ENDBRANCH   1  18
TORSDOF 4
ENDMDL
MODEL 7
REMARK VINA RESULT:     -12.0      2.577      4.100
REMARK  Name = 71351
REMARK  4 active torsions:
REMARK  status: ('A' for Active; 'I' for Inactive)
REMARK    1  A    between atoms: N_1  and  C_18
REMARK    2  A    between atoms: C_2  and  C_11
REMARK    3  A    between atoms: C_18  and  C_19
REMARK    4  A    between atoms: C_19  and  C_23
REMARK                            x       y       z     vdW  Elec       q    Type
REMARK                         _______ _______ _______ _____ _____    ______ ____
ROOT
ATOM      1  N   UNL     1      34.632 -22.521 -18.957  0.00  0.00    +0.387 N 
ATOM      2  C   UNL     1      34.791 -19.985 -20.423  0.00  0.00    +0.039 C 
ATOM      3  C   UNL     1      33.493 -20.804 -20.329  0.00  0.00    -0.017 C 
ATOM      4  C   UNL     1      36.006 -20.909 -20.238  0.00  0.00    -0.017 C 
ATOM      5  C   UNL     1      33.458 -21.643 -19.049  0.00  0.00    -0.077 C 
ATOM      6  C   UNL     1      35.878 -21.743 -18.961  0.00  0.00    -0.077 C 
ATOM      7  H   UNL     1      34.637 -23.127 -19.777  0.00  0.00    -0.080 HD
ENDROOT
BRANCH   2  11
ATOM      8  F   UNL     1      34.705 -13.976 -23.442  0.00  0.00    -0.204 F 
ATOM      9  O   UNL     1      35.073 -18.758 -23.800  0.00  0.00    -0.354 OA
ATOM     10  N   UNL     1      35.042 -19.779 -22.857  0.00  0.00    -0.081 NA
ATOM     11  C   UNL     1      34.871 -19.163 -21.689  0.00  0.00    +0.100 A 
ATOM     12  C   UNL     1      34.788 -17.768 -21.811  0.00  0.00    +0.054 A 
ATOM     13  C   UNL     1      34.922 -17.559 -23.172  0.00  0.00    +0.179 A 
ATOM     14  C   UNL     1      34.618 -16.661 -20.965  0.00  0.00    +0.007 C 
ATOM     15  C   UNL     1      34.902 -16.308 -23.781  0.00  0.00    +0.070 C 
ATOM     16  C   UNL     1      34.594 -15.384 -21.544  0.00  0.00    +0.030 C 
ATOM     17  C   UNL     1      34.734 -15.213 -22.926  0.00  0.00    +0.143 C 
ENDBRANCH   2  11
BRANCH   1  18
ATOM     18  C   UNL     1      34.554 -23.356 -17.758  0.00  0.00    -0.076 C 
BRANCH  18  19
ATOM     19  C   UNL     1      35.049 -22.574 -16.549  0.00  0.00    -0.007 C 
BRANCH  19  23
ATOM     20  O   UNL     1      37.813 -22.801 -16.564  0.00  0.00    -0.274 OA
ATOM     21  N   UNL     1      37.911 -24.392 -14.855  0.00  0.00    -0.211 N 
ATOM     22  N   UNL     1      35.895 -25.093 -13.814  0.00  0.00    -0.395 NA
ATOM     23  C   UNL     1      35.769 -23.474 -15.589  0.00  0.00    +0.123 C 
ATOM     24  C   UNL     1      35.200 -24.252 -14.647  0.00  0.00    +0.097 C 
ATOM     25  C   UNL     1      37.260 -23.514 -15.727  0.00  0.00    +0.241 C 
ATOM     26  C   UNL     1      37.187 -25.150 -13.927  0.00  0.00    +0.188 C 
ATOM     27  C   UNL     1      33.716 -24.268 -14.387  0.00  0.00    +0.062 C 
ATOM     28  C   UNL     1      37.972 -26.067 -13.025  0.00  0.00    +0.023 C 
ATOM     29  C   UNL     1      39.296 -24.495 -14.926  0.00  0.00    +0.074 C 
ATOM     30  C   UNL     1      39.306 -26.111 -13.154  0.00  0.00    +0.001 C 
ATOM     31  C   UNL     1      39.990 -25.308 -14.126  0.00  0.00    +0.016 C 
ATOM     32  C   UNL     1      37.223 -26.891 -12.023  0.00  0.00    +0.035 C 
ENDBRANCH  19  23
ENDBRANCH  18  19
ENDBRANCH   1  18
TORSDOF 4
ENDMDL
MODEL 8
REMARK VINA RESULT:     -12.0      3.315     10.349
REMARK  Name = 71351
REMARK  4 active torsions:
REMARK  status: ('A' for Active; 'I' for Inactive)
REMARK    1  A    between atoms: N_1  and  C_18
REMARK    2  A    between atoms: C_2  and  C_11
REMARK    3  A    between atoms: C_18  and  C_19
REMARK    4  A    between atoms: C_19  and  C_23
REMARK                            x       y       z     vdW  Elec       q    Type
REMARK                         _______ _______ _______ _____ _____    ______ ____
ROOT
ATOM      1  N   UNL     1      34.358 -20.113 -20.951  0.00  0.00    +0.387 N 
ATOM      2  C   UNL     1      34.555 -22.230 -18.930  0.00  0.00    +0.039 C 
ATOM      3  C   UNL     1      33.285 -21.384 -19.118  0.00  0.00    -0.017 C 
ATOM      4  C   UNL     1      35.782 -21.449 -19.429  0.00  0.00    -0.017 C 
ATOM      5  C   UNL     1      33.166 -20.875 -20.557  0.00  0.00    -0.077 C 
ATOM      6  C   UNL     1      35.570 -20.937 -20.856  0.00  0.00    -0.077 C 
ATOM      7  H   UNL     1      34.459 -19.330 -20.305  0.00  0.00    -0.080 HD
ENDROOT
BRANCH   2  11
ATOM      8  F   UNL     1      31.823 -24.746 -13.324  0.00  0.00    -0.204 F 
ATOM      9  O   UNL     1      35.738 -23.249 -15.682  0.00  0.00    -0.354 OA
ATOM     10  N   UNL     1      35.931 -22.743 -16.962  0.00  0.00    -0.081 NA
ATOM     11  C   UNL     1      34.719 -22.730 -17.513  0.00  0.00    +0.100 A 
ATOM     12  C   UNL     1      33.719 -23.208 -16.652  0.00  0.00    +0.054 A 
ATOM     13  C   UNL     1      34.417 -23.525 -15.500  0.00  0.00    +0.179 A 
ATOM     14  C   UNL     1      32.332 -23.414 -16.687  0.00  0.00    +0.007 C 
ATOM     15  C   UNL     1      33.835 -24.045 -14.348  0.00  0.00    +0.070 C 
ATOM     16  C   UNL     1      31.712 -23.937 -15.544  0.00  0.00    +0.030 C 
ATOM     17  C   UNL     1      32.452 -24.247 -14.398  0.00  0.00    +0.143 C 
ENDBRANCH   2  11
BRANCH   1  18
ATOM     18  C   UNL     1      34.203 -19.585 -22.307  0.00  0.00    -0.076 C 
BRANCH  18  19
ATOM     19  C   UNL     1      35.361 -18.654 -22.636  0.00  0.00    -0.007 C 
BRANCH  19  23
ATOM     20  O   UNL     1      34.683 -17.908 -25.220  0.00  0.00    -0.274 OA
ATOM     21  N   UNL     1      34.141 -15.701 -24.675  0.00  0.00    -0.211 N 
ATOM     22  N   UNL     1      34.276 -15.005 -22.408  0.00  0.00    -0.395 NA
ATOM     23  C   UNL     1      34.865 -17.274 -22.951  0.00  0.00    +0.123 C 
ATOM     24  C   UNL     1      34.696 -16.268 -22.071  0.00  0.00    +0.097 C 
ATOM     25  C   UNL     1      34.559 -17.005 -24.392  0.00  0.00    +0.241 C 
ATOM     26  C   UNL     1      34.018 -14.750 -23.655  0.00  0.00    +0.188 C 
ATOM     27  C   UNL     1      34.933 -16.428 -20.592  0.00  0.00    +0.062 C 
ATOM     28  C   UNL     1      33.558 -13.372 -24.051  0.00  0.00    +0.023 C 
ATOM     29  C   UNL     1      33.846 -15.368 -25.992  0.00  0.00    +0.074 C 
ATOM     30  C   UNL     1      33.293 -13.126 -25.343  0.00  0.00    +0.001 C 
ATOM     31  C   UNL     1      33.438 -14.145 -26.342  0.00  0.00    +0.016 C 
ATOM     32  C   UNL     1      33.419 -12.334 -22.981  0.00  0.00    +0.035 C 
ENDBRANCH  19  23
ENDBRANCH  18  19
ENDBRANCH   1  18
TORSDOF 4
ENDMDL
MODEL 9
REMARK VINA RESULT:     -12.0      2.386      3.808
REMARK  Name = 71351
REMARK  4 active torsions:
REMARK  status: ('A' for Active; 'I' for Inactive)
REMARK    1  A    between atoms: N_1  and  C_18
REMARK    2  A    between atoms: C_2  and  C_11
REMARK    3  A    between atoms: C_18  and  C_19
REMARK    4  A    between atoms: C_19  and  C_23
REMARK                            x       y       z     vdW  Elec       q    Type
REMARK                         _______ _______ _______ _____ _____    ______ ____
ROOT
ATOM      1  N   UNL     1      35.534 -17.655 -22.484  0.00  0.00    +0.387 N 
ATOM      2  C   UNL     1      33.865 -15.266 -22.818  0.00  0.00    +0.039 C 
ATOM      3  C   UNL     1      34.586 -15.941 -23.997  0.00  0.00    -0.017 C 
ATOM      4  C   UNL     1      34.602 -15.581 -21.506  0.00  0.00    -0.017 C 
ATOM      5  C   UNL     1      34.798 -17.434 -23.736  0.00  0.00    -0.077 C 
ATOM      6  C   UNL     1      34.813 -17.088 -21.337  0.00  0.00    -0.077 C 
ATOM      7  H   UNL     1      36.433 -17.177 -22.559  0.00  0.00    -0.080 HD
ENDROOT
BRANCH   2  11
ATOM      8  F   UNL     1      31.211  -9.434 -20.775  0.00  0.00    -0.204 F 
ATOM      9  O   UNL     1      33.839 -11.859 -23.991  0.00  0.00    -0.354 OA
ATOM     10  N   UNL     1      34.210 -13.194 -24.091  0.00  0.00    -0.081 NA
ATOM     11  C   UNL     1      33.661 -13.783 -23.030  0.00  0.00    +0.100 A 
ATOM     12  C   UNL     1      32.936 -12.894 -22.222  0.00  0.00    +0.054 A 
ATOM     13  C   UNL     1      33.079 -11.683 -22.875  0.00  0.00    +0.179 A 
ATOM     14  C   UNL     1      32.184 -12.946 -21.039  0.00  0.00    +0.007 C 
ATOM     15  C   UNL     1      32.523 -10.485 -22.438  0.00  0.00    +0.070 C 
ATOM     16  C   UNL     1      31.609 -11.757 -20.568  0.00  0.00    +0.030 C 
ATOM     17  C   UNL     1      31.777 -10.550 -21.256  0.00  0.00    +0.143 C 
ENDBRANCH   2  11
BRANCH   1  18
ATOM     18  C   UNL     1      35.779 -19.083 -22.280  0.00  0.00    -0.076 C 
BRANCH  18  19
ATOM     19  C   UNL     1      34.557 -19.732 -21.645  0.00  0.00    -0.007 C 
BRANCH  19  23
ATOM     20  O   UNL     1      32.712 -21.296 -20.287  0.00  0.00    -0.274 OA
ATOM     21  N   UNL     1      34.207 -22.016 -18.641  0.00  0.00    -0.211 N 
ATOM     22  N   UNL     1      36.471 -21.308 -18.748  0.00  0.00    -0.395 NA
ATOM     23  C   UNL     1      34.944 -20.533 -20.437  0.00  0.00    +0.123 C 
ATOM     24  C   UNL     1      36.169 -20.592 -19.879  0.00  0.00    +0.097 C 
ATOM     25  C   UNL     1      33.839 -21.312 -19.792  0.00  0.00    +0.241 C 
ATOM     26  C   UNL     1      35.524 -21.980 -18.167  0.00  0.00    +0.188 C 
ATOM     27  C   UNL     1      37.366 -19.885 -20.460  0.00  0.00    +0.062 C 
ATOM     28  C   UNL     1      35.830 -22.771 -16.923  0.00  0.00    +0.023 C 
ATOM     29  C   UNL     1      33.236 -22.758 -17.976  0.00  0.00    +0.074 C 
ATOM     30  C   UNL     1      34.841 -23.462 -16.338  0.00  0.00    +0.001 C 
ATOM     31  C   UNL     1      33.510 -23.459 -16.873  0.00  0.00    +0.016 C 
ATOM     32  C   UNL     1      37.231 -22.749 -16.393  0.00  0.00    +0.035 C 
ENDBRANCH  19  23
ENDBRANCH  18  19
ENDBRANCH   1  18
TORSDOF 4
ENDMDL
