MODEL 1
REMARK VINA RESULT:     -11.9      0.000      0.000
REMARK  Name = 6918314
REMARK  8 active torsions:
REMARK  status: ('A' for Active; 'I' for Inactive)
REMARK    1  A    between atoms: N_1  and  C_22
REMARK    2  A    between atoms: N_2  and  C_9
REMARK    3  A    between atoms: C_16  and  C_19
REMARK    4  A    between atoms: C_22  and  C_23
REMARK    5  A    between atoms: C_23  and  C_24
REMARK    6  A    between atoms: C_24  and  C_25
REMARK    7  A    between atoms: C_25  and  C_27
REMARK    8  A    between atoms: C_33  and  C_37
REMARK                            x       y       z     vdW  Elec       q    Type
REMARK                         _______ _______ _______ _____ _____    ______ ____
ROOT
ATOM      1  N   UNL     1      35.456 -21.526 -19.815  0.00  0.00    +0.389 N 
ATOM      2  N   UNL     1      35.125 -19.021 -21.145  0.00  0.00    -0.312 N 
ATOM      3  C   UNL     1      34.134 -20.891 -19.884  0.00  0.00    -0.055 C 
ATOM      4  C   UNL     1      36.500 -20.498 -19.733  0.00  0.00    -0.055 C 
ATOM      5  C   UNL     1      34.022 -19.988 -21.114  0.00  0.00    +0.068 C 
ATOM      6  C   UNL     1      36.467 -19.581 -20.957  0.00  0.00    +0.068 C 
ATOM      7  H   UNL     1      35.602 -22.076 -20.661  0.00  0.00    -0.080 HD
ENDROOT
BRANCH   2   9
ATOM      8  O   UNL     1      34.435 -14.352 -24.021  0.00  0.00    -0.449 OA
ATOM      9  C   UNL     1      34.959 -17.857 -21.906  0.00  0.00    +0.048 C 
ATOM     10  C   UNL     1      34.608 -16.635 -21.282  0.00  0.00    +0.018 C 
ATOM     11  C   UNL     1      35.136 -17.882 -23.308  0.00  0.00    +0.018 C 
ATOM     12  C   UNL     1      34.444 -15.475 -22.061  0.00  0.00    +0.039 C 
ATOM     13  C   UNL     1      34.634 -15.566 -23.436  0.00  0.00    +0.146 C 
ATOM     14  C   UNL     1      34.979 -16.742 -24.101  0.00  0.00    +0.039 C 
ATOM     15  C   UNL     1      34.110 -14.119 -21.806  0.00  0.00    +0.045 C 
ATOM     16  C   UNL     1      34.118 -13.482 -23.026  0.00  0.00    +0.198 C 
BRANCH  16  19
ATOM     17  O   UNL     1      32.975 -11.406 -22.857  0.00  0.00    -0.267 OA
ATOM     18  N   UNL     1      34.626 -11.552 -24.408  0.00  0.00    -0.323 N 
ATOM     19  C   UNL     1      33.859 -12.129 -23.382  0.00  0.00    +0.277 C 
ATOM     20  H   UNL     1      34.467 -10.617 -24.674  0.00  0.00    +0.145 HD
ATOM     21  H   UNL     1      35.320 -12.082 -24.860  0.00  0.00    +0.145 HD
ENDBRANCH  16  19
ENDBRANCH   2   9
BRANCH   1  22
ATOM     22  C   UNL     1      35.532 -22.428 -18.666  0.00  0.00    -0.077 C 
BRANCH  22  23
ATOM     23  C   UNL     1      34.134 -22.709 -18.118  0.00  0.00    -0.022 C 
BRANCH  23  24
ATOM     24  C   UNL     1      34.174 -23.775 -17.022  0.00  0.00    +0.003 C 
BRANCH  24  25
ATOM     25  C   UNL     1      33.926 -23.163 -15.639  0.00  0.00    +0.028 C 
BRANCH  25  27
ATOM     26  N   UNL     1      32.521 -25.444 -13.157  0.00  0.00    -0.312 N 
ATOM     27  C   UNL     1      33.102 -24.056 -14.761  0.00  0.00    -0.006 C 
ATOM     28  C   UNL     1      31.721 -24.306 -14.902  0.00  0.00    +0.011 C 
ATOM     29  C   UNL     1      33.577 -24.756 -13.692  0.00  0.00    +0.058 C 
ATOM     30  C   UNL     1      31.375 -25.188 -13.876  0.00  0.00    +0.048 C 
ATOM     31  C   UNL     1      30.719 -23.878 -15.796  0.00  0.00    +0.011 C 
ATOM     32  C   UNL     1      30.071 -25.665 -13.699  0.00  0.00    +0.015 C 
ATOM     33  C   UNL     1      29.411 -24.347 -15.630  0.00  0.00    +0.069 C 
ATOM     34  C   UNL     1      29.094 -25.226 -14.597  0.00  0.00    +0.012 C 
ATOM     35  H   UNL     1      32.573 -26.036 -12.372  0.00  0.00    +0.152 HD
BRANCH  33  37
ATOM     36  N   UNL     1      27.560 -23.569 -17.267  0.00  0.00    -0.191 NA
ATOM     37  C   UNL     1      28.389 -23.917 -16.534  0.00  0.00    +0.100 C 
ENDBRANCH  33  37
ENDBRANCH  25  27
ENDBRANCH  24  25
ENDBRANCH  23  24
ENDBRANCH  22  23
ENDBRANCH   1  22
TORSDOF 8
ENDMDL
MODEL 2
REMARK VINA RESULT:     -11.8      2.680      4.589
REMARK  Name = 6918314
REMARK  8 active torsions:
REMARK  status: ('A' for Active; 'I' for Inactive)
REMARK    1  A    between atoms: N_1  and  C_22
REMARK    2  A    between atoms: N_2  and  C_9
REMARK    3  A    between atoms: C_16  and  C_19
REMARK    4  A    between atoms: C_22  and  C_23
REMARK    5  A    between atoms: C_23  and  C_24
REMARK    6  A    between atoms: C_24  and  C_25
REMARK    7  A    between atoms: C_25  and  C_27
REMARK    8  A    between atoms: C_33  and  C_37
REMARK                            x       y       z     vdW  Elec       q    Type
REMARK                         _______ _______ _______ _____ _____    ______ ____
ROOT
ATOM      1  N   UNL     1      35.611 -21.526 -19.753  0.00  0.00    +0.389 N 
ATOM      2  N   UNL     1      35.209 -19.041 -21.100  0.00  0.00    -0.312 N 
ATOM      3  C   UNL     1      34.272 -20.930 -19.825  0.00  0.00    -0.055 C 
ATOM      4  C   UNL     1      36.626 -20.470 -19.679  0.00  0.00    -0.055 C 
ATOM      5  C   UNL     1      34.133 -20.039 -21.061  0.00  0.00    +0.068 C 
ATOM      6  C   UNL     1      36.566 -19.562 -20.910  0.00  0.00    +0.068 C 
ATOM      7  H   UNL     1      35.771 -22.078 -20.596  0.00  0.00    -0.080 HD
ENDROOT
BRANCH   2   9
ATOM      8  O   UNL     1      34.392 -14.412 -24.006  0.00  0.00    -0.449 OA
ATOM      9  C   UNL     1      35.009 -17.888 -21.869  0.00  0.00    +0.048 C 
ATOM     10  C   UNL     1      34.678 -16.658 -21.248  0.00  0.00    +0.018 C 
ATOM     11  C   UNL     1      35.132 -17.930 -23.275  0.00  0.00    +0.018 C 
ATOM     12  C   UNL     1      34.481 -15.509 -22.034  0.00  0.00    +0.039 C 
ATOM     13  C   UNL     1      34.618 -15.618 -23.414  0.00  0.00    +0.146 C 
ATOM     14  C   UNL     1      34.941 -16.800 -24.077  0.00  0.00    +0.039 C 
ATOM     15  C   UNL     1      34.152 -14.151 -21.784  0.00  0.00    +0.045 C 
ATOM     16  C   UNL     1      34.111 -13.530 -23.010  0.00  0.00    +0.198 C 
BRANCH  16  19
ATOM     17  O   UNL     1      32.943 -11.466 -22.848  0.00  0.00    -0.267 OA
ATOM     18  N   UNL     1      34.586 -11.603 -24.408  0.00  0.00    -0.323 N 
ATOM     19  C   UNL     1      33.833 -12.182 -23.374  0.00  0.00    +0.277 C 
ATOM     20  H   UNL     1      34.415 -10.672 -24.679  0.00  0.00    +0.145 HD
ATOM     21  H   UNL     1      35.284 -12.127 -24.862  0.00  0.00    +0.145 HD
ENDBRANCH  16  19
ENDBRANCH   2   9
BRANCH   1  22
ATOM     22  C   UNL     1      35.714 -22.418 -18.598  0.00  0.00    -0.077 C 
BRANCH  22  23
ATOM     23  C   UNL     1      36.817 -21.941 -17.655  0.00  0.00    -0.022 C 
BRANCH  23  24
ATOM     24  C   UNL     1      36.516 -22.333 -16.208  0.00  0.00    +0.003 C 
BRANCH  24  25
ATOM     25  C   UNL     1      35.409 -23.389 -16.134  0.00  0.00    +0.028 C 
BRANCH  25  27
ATOM     26  N   UNL     1      34.638 -24.864 -12.884  0.00  0.00    -0.312 N 
ATOM     27  C   UNL     1      35.368 -24.079 -14.804  0.00  0.00    -0.006 C 
ATOM     28  C   UNL     1      36.445 -24.748 -14.188  0.00  0.00    +0.011 C 
ATOM     29  C   UNL     1      34.271 -24.158 -13.998  0.00  0.00    +0.058 C 
ATOM     30  C   UNL     1      35.961 -25.238 -12.973  0.00  0.00    +0.048 C 
ATOM     31  C   UNL     1      37.790 -24.995 -14.531  0.00  0.00    +0.011 C 
ATOM     32  C   UNL     1      36.757 -25.962 -12.080  0.00  0.00    +0.015 C 
ATOM     33  C   UNL     1      38.598 -25.719 -13.647  0.00  0.00    +0.069 C 
ATOM     34  C   UNL     1      38.088 -26.195 -12.441  0.00  0.00    +0.012 C 
ATOM     35  H   UNL     1      34.044 -25.075 -12.128  0.00  0.00    +0.152 HD
BRANCH  33  37
ATOM     36  N   UNL     1      41.072 -26.177 -14.265  0.00  0.00    -0.191 NA
ATOM     37  C   UNL     1      39.964 -25.972 -13.988  0.00  0.00    +0.100 C 
ENDBRANCH  33  37
ENDBRANCH  25  27
ENDBRANCH  24  25
ENDBRANCH  23  24
ENDBRANCH  22  23
ENDBRANCH   1  22
TORSDOF 8
ENDMDL
MODEL 3
REMARK VINA RESULT:     -11.8      2.896      5.609
REMARK  Name = 6918314
REMARK  8 active torsions:
REMARK  status: ('A' for Active; 'I' for Inactive)
REMARK    1  A    between atoms: N_1  and  C_22
REMARK    2  A    between atoms: N_2  and  C_9
REMARK    3  A    between atoms: C_16  and  C_19
REMARK    4  A    between atoms: C_22  and  C_23
REMARK    5  A    between atoms: C_23  and  C_24
REMARK    6  A    between atoms: C_24  and  C_25
REMARK    7  A    between atoms: C_25  and  C_27
REMARK    8  A    between atoms: C_33  and  C_37
REMARK                            x       y       z     vdW  Elec       q    Type
REMARK                         _______ _______ _______ _____ _____    ______ ____
ROOT
ATOM      1  N   UNL     1      35.592 -17.214 -22.362  0.00  0.00    +0.389 N 
ATOM      2  N   UNL     1      33.922 -14.924 -22.013  0.00  0.00    -0.312 N 
ATOM      3  C   UNL     1      34.872 -16.640 -23.505  0.00  0.00    -0.055 C 
ATOM      4  C   UNL     1      34.798 -17.054 -21.139  0.00  0.00    -0.055 C 
ATOM      5  C   UNL     1      34.605 -15.148 -23.292  0.00  0.00    +0.068 C 
ATOM      6  C   UNL     1      34.527 -15.577 -20.848  0.00  0.00    +0.068 C 
ATOM      7  H   UNL     1      36.476 -16.718 -22.247  0.00  0.00    -0.080 HD
ENDROOT
BRANCH   2   9
ATOM      8  O   UNL     1      31.183 -10.153 -21.480  0.00  0.00    -0.449 OA
ATOM      9  C   UNL     1      33.209 -13.731 -21.848  0.00  0.00    +0.048 C 
ATOM     10  C   UNL     1      33.458 -12.622 -22.694  0.00  0.00    +0.018 C 
ATOM     11  C   UNL     1      32.230 -13.611 -20.836  0.00  0.00    +0.018 C 
ATOM     12  C   UNL     1      32.733 -11.430 -22.515  0.00  0.00    +0.039 C 
ATOM     13  C   UNL     1      31.782 -11.378 -21.501  0.00  0.00    +0.146 C 
ATOM     14  C   UNL     1      31.496 -12.437 -20.641  0.00  0.00    +0.039 C 
ATOM     15  C   UNL     1      32.702 -10.157 -23.141  0.00  0.00    +0.045 C 
ATOM     16  C   UNL     1      31.747  -9.421 -22.476  0.00  0.00    +0.198 C 
BRANCH  16  19
ATOM     17  O   UNL     1      30.723  -7.662 -23.703  0.00  0.00    -0.267 OA
ATOM     18  N   UNL     1      31.495  -7.161 -21.628  0.00  0.00    -0.323 N 
ATOM     19  C   UNL     1      31.289  -8.087 -22.663  0.00  0.00    +0.277 C 
ATOM     20  H   UNL     1      31.188  -6.231 -21.732  0.00  0.00    +0.145 HD
ATOM     21  H   UNL     1      31.947  -7.440 -20.800  0.00  0.00    +0.145 HD
ENDBRANCH  16  19
ENDBRANCH   2   9
BRANCH   1  22
ATOM     22  C   UNL     1      35.889 -18.626 -22.600  0.00  0.00    -0.077 C 
BRANCH  22  23
ATOM     23  C   UNL     1      36.327 -19.303 -21.302  0.00  0.00    -0.022 C 
BRANCH  23  24
ATOM     24  C   UNL     1      35.362 -20.425 -20.911  0.00  0.00    +0.003 C 
BRANCH  24  25
ATOM     25  C   UNL     1      35.935 -21.283 -19.779  0.00  0.00    +0.028 C 
BRANCH  25  27
ATOM     26  N   UNL     1      32.912 -22.783 -18.384  0.00  0.00    -0.312 N 
ATOM     27  C   UNL     1      34.862 -21.964 -18.982  0.00  0.00    -0.006 C 
ATOM     28  C   UNL     1      35.026 -22.550 -17.711  0.00  0.00    +0.011 C 
ATOM     29  C   UNL     1      33.568 -22.113 -19.382  0.00  0.00    +0.058 C 
ATOM     30  C   UNL     1      33.778 -23.063 -17.351  0.00  0.00    +0.048 C 
ATOM     31  C   UNL     1      36.105 -22.704 -16.818  0.00  0.00    +0.011 C 
ATOM     32  C   UNL     1      33.554 -23.723 -16.138  0.00  0.00    +0.015 C 
ATOM     33  C   UNL     1      35.896 -23.363 -15.601  0.00  0.00    +0.069 C 
ATOM     34  C   UNL     1      34.640 -23.864 -15.268  0.00  0.00    +0.012 C 
ATOM     35  H   UNL     1      31.959 -23.029 -18.402  0.00  0.00    +0.152 HD
BRANCH  33  37
ATOM     36  N   UNL     1      37.872 -23.650 -13.949  0.00  0.00    -0.191 NA
ATOM     37  C   UNL     1      36.987 -23.521 -14.689  0.00  0.00    +0.100 C 
ENDBRANCH  33  37
ENDBRANCH  25  27
ENDBRANCH  24  25
ENDBRANCH  23  24
ENDBRANCH  22  23
ENDBRANCH   1  22
TORSDOF 8
ENDMDL
MODEL 4
REMARK VINA RESULT:     -11.7      0.990      1.260
REMARK  Name = 6918314
REMARK  8 active torsions:
REMARK  status: ('A' for Active; 'I' for Inactive)
REMARK    1  A    between atoms: N_1  and  C_22
REMARK    2  A    between atoms: N_2  and  C_9
REMARK    3  A    between atoms: C_16  and  C_19
REMARK    4  A    between atoms: C_22  and  C_23
REMARK    5  A    between atoms: C_23  and  C_24
REMARK    6  A    between atoms: C_24  and  C_25
REMARK    7  A    between atoms: C_25  and  C_27
REMARK    8  A    between atoms: C_33  and  C_37
REMARK                            x       y       z     vdW  Elec       q    Type
REMARK                         _______ _______ _______ _____ _____    ______ ____
ROOT
ATOM      1  N   UNL     1      35.796 -21.478 -19.911  0.00  0.00    +0.389 N 
ATOM      2  N   UNL     1      35.311 -18.972 -21.192  0.00  0.00    -0.312 N 
ATOM      3  C   UNL     1      34.431 -20.950 -20.015  0.00  0.00    -0.055 C 
ATOM      4  C   UNL     1      36.749 -20.372 -19.765  0.00  0.00    -0.055 C 
ATOM      5  C   UNL     1      34.289 -20.026 -21.227  0.00  0.00    +0.068 C 
ATOM      6  C   UNL     1      36.686 -19.428 -20.967  0.00  0.00    +0.068 C 
ATOM      7  H   UNL     1      36.017 -21.992 -20.764  0.00  0.00    -0.080 HD
ENDROOT
BRANCH   2   9
ATOM      8  O   UNL     1      34.363 -14.294 -23.977  0.00  0.00    -0.449 OA
ATOM      9  C   UNL     1      35.077 -17.806 -21.931  0.00  0.00    +0.048 C 
ATOM     10  C   UNL     1      34.744 -16.595 -21.276  0.00  0.00    +0.018 C 
ATOM     11  C   UNL     1      35.169 -17.817 -23.341  0.00  0.00    +0.018 C 
ATOM     12  C   UNL     1      34.512 -15.433 -22.032  0.00  0.00    +0.039 C 
ATOM     13  C   UNL     1      34.619 -15.509 -23.417  0.00  0.00    +0.146 C 
ATOM     14  C   UNL     1      34.944 -16.672 -24.113  0.00  0.00    +0.039 C 
ATOM     15  C   UNL     1      34.171 -14.085 -21.745  0.00  0.00    +0.045 C 
ATOM     16  C   UNL     1      34.093 -13.438 -22.956  0.00  0.00    +0.198 C 
BRANCH  16  19
ATOM     17  O   UNL     1      32.863 -11.414 -22.764  0.00  0.00    -0.267 OA
ATOM     18  N   UNL     1      34.557 -11.452 -24.273  0.00  0.00    -0.323 N 
ATOM     19  C   UNL     1      33.789 -12.087 -23.284  0.00  0.00    +0.277 C 
ATOM     20  H   UNL     1      34.368 -10.518 -24.519  0.00  0.00    +0.145 HD
ATOM     21  H   UNL     1      35.284 -11.941 -24.721  0.00  0.00    +0.145 HD
ENDBRANCH  16  19
ENDBRANCH   2   9
BRANCH   1  22
ATOM     22  C   UNL     1      35.904 -22.402 -18.782  0.00  0.00    -0.077 C 
BRANCH  22  23
ATOM     23  C   UNL     1      36.709 -21.764 -17.650  0.00  0.00    -0.022 C 
BRANCH  23  24
ATOM     24  C   UNL     1      36.298 -22.334 -16.291  0.00  0.00    +0.003 C 
BRANCH  24  25
ATOM     25  C   UNL     1      35.190 -23.381 -16.437  0.00  0.00    +0.028 C 
BRANCH  25  27
ATOM     26  N   UNL     1      34.029 -24.037 -13.038  0.00  0.00    -0.312 N 
ATOM     27  C   UNL     1      34.451 -23.612 -15.153  0.00  0.00    -0.006 C 
ATOM     28  C   UNL     1      33.052 -23.564 -14.987  0.00  0.00    +0.011 C 
ATOM     29  C   UNL     1      35.035 -23.900 -13.956  0.00  0.00    +0.058 C 
ATOM     30  C   UNL     1      32.806 -23.836 -13.639  0.00  0.00    +0.048 C 
ATOM     31  C   UNL     1      31.957 -23.318 -15.839  0.00  0.00    +0.011 C 
ATOM     32  C   UNL     1      31.516 -23.876 -13.100  0.00  0.00    +0.015 C 
ATOM     33  C   UNL     1      30.660 -23.354 -15.313  0.00  0.00    +0.069 C 
ATOM     34  C   UNL     1      30.445 -23.629 -13.964  0.00  0.00    +0.012 C 
ATOM     35  H   UNL     1      34.159 -24.248 -12.085  0.00  0.00    +0.152 HD
BRANCH  33  37
ATOM     36  N   UNL     1      28.639 -22.905 -16.870  0.00  0.00    -0.191 NA
ATOM     37  C   UNL     1      29.544 -23.106 -16.172  0.00  0.00    +0.100 C 
ENDBRANCH  33  37
ENDBRANCH  25  27
ENDBRANCH  24  25
ENDBRANCH  23  24
ENDBRANCH  22  23
ENDBRANCH   1  22
TORSDOF 8
ENDMDL
MODEL 5
REMARK VINA RESULT:     -11.3      2.313      4.873
REMARK  Name = 6918314
REMARK  8 active torsions:
REMARK  status: ('A' for Active; 'I' for Inactive)
REMARK    1  A    between atoms: N_1  and  C_22
REMARK    2  A    between atoms: N_2  and  C_9
REMARK    3  A    between atoms: C_16  and  C_19
REMARK    4  A    between atoms: C_22  and  C_23
REMARK    5  A    between atoms: C_23  and  C_24
REMARK    6  A    between atoms: C_24  and  C_25
REMARK    7  A    between atoms: C_25  and  C_27
REMARK    8  A    between atoms: C_33  and  C_37
REMARK                            x       y       z     vdW  Elec       q    Type
REMARK                         _______ _______ _______ _____ _____    ______ ____
ROOT
ATOM      1  N   UNL     1      35.592 -17.416 -22.393  0.00  0.00    +0.389 N 
ATOM      2  N   UNL     1      33.961 -15.103 -22.008  0.00  0.00    -0.312 N 
ATOM      3  C   UNL     1      34.893 -16.804 -23.529  0.00  0.00    -0.055 C 
ATOM      4  C   UNL     1      34.789 -17.268 -21.174  0.00  0.00    -0.055 C 
ATOM      5  C   UNL     1      34.652 -15.312 -23.286  0.00  0.00    +0.068 C 
ATOM      6  C   UNL     1      34.543 -15.792 -20.852  0.00  0.00    +0.068 C 
ATOM      7  H   UNL     1      36.484 -16.939 -22.258  0.00  0.00    -0.080 HD
ENDROOT
BRANCH   2   9
ATOM      8  O   UNL     1      31.303 -10.296 -21.397  0.00  0.00    -0.449 OA
ATOM      9  C   UNL     1      33.268 -13.901 -21.824  0.00  0.00    +0.048 C 
ATOM     10  C   UNL     1      33.526 -12.787 -22.661  0.00  0.00    +0.018 C 
ATOM     11  C   UNL     1      32.302 -13.776 -20.800  0.00  0.00    +0.018 C 
ATOM     12  C   UNL     1      32.821 -11.586 -22.463  0.00  0.00    +0.039 C 
ATOM     13  C   UNL     1      31.882 -11.529 -21.438  0.00  0.00    +0.146 C 
ATOM     14  C   UNL     1      31.589 -12.593 -20.585  0.00  0.00    +0.039 C 
ATOM     15  C   UNL     1      32.803 -10.306 -23.074  0.00  0.00    +0.045 C 
ATOM     16  C   UNL     1      31.868  -9.563 -22.392  0.00  0.00    +0.198 C 
BRANCH  16  19
ATOM     17  O   UNL     1      31.387  -7.359 -21.646  0.00  0.00    -0.267 OA
ATOM     18  N   UNL     1      30.985  -7.819 -23.832  0.00  0.00    -0.323 N 
ATOM     19  C   UNL     1      31.428  -8.220 -22.561  0.00  0.00    +0.277 C 
ATOM     20  H   UNL     1      30.675  -6.896 -23.976  0.00  0.00    +0.145 HD
ATOM     21  H   UNL     1      30.983  -8.461 -24.578  0.00  0.00    +0.145 HD
ENDBRANCH  16  19
ENDBRANCH   2   9
BRANCH   1  22
ATOM     22  C   UNL     1      35.865 -18.828 -22.659  0.00  0.00    -0.077 C 
BRANCH  22  23
ATOM     23  C   UNL     1      34.880 -19.712 -21.896  0.00  0.00    -0.022 C 
BRANCH  23  24
ATOM     24  C   UNL     1      35.571 -20.438 -20.740  0.00  0.00    +0.003 C 
BRANCH  24  25
ATOM     25  C   UNL     1      34.603 -21.376 -20.012  0.00  0.00    +0.028 C 
BRANCH  25  27
ATOM     26  N   UNL     1      36.672 -22.587 -17.257  0.00  0.00    -0.312 N 
ATOM     27  C   UNL     1      35.203 -21.960 -18.767  0.00  0.00    -0.006 C 
ATOM     28  C   UNL     1      34.490 -22.580 -17.721  0.00  0.00    +0.011 C 
ATOM     29  C   UNL     1      36.533 -21.970 -18.472  0.00  0.00    +0.058 C 
ATOM     30  C   UNL     1      35.440 -22.969 -16.775  0.00  0.00    +0.048 C 
ATOM     31  C   UNL     1      33.131 -22.856 -17.471  0.00  0.00    +0.011 C 
ATOM     32  C   UNL     1      35.098 -23.625 -15.587  0.00  0.00    +0.015 C 
ATOM     33  C   UNL     1      32.774 -23.510 -16.286  0.00  0.00    +0.069 C 
ATOM     34  C   UNL     1      33.744 -23.888 -15.360  0.00  0.00    +0.012 C 
ATOM     35  H   UNL     1      37.528 -22.736 -16.795  0.00  0.00    +0.152 HD
BRANCH  33  37
ATOM     36  N   UNL     1      30.278 -24.024 -15.814  0.00  0.00    -0.191 NA
ATOM     37  C   UNL     1      31.396 -23.794 -16.026  0.00  0.00    +0.100 C 
ENDBRANCH  33  37
ENDBRANCH  25  27
ENDBRANCH  24  25
ENDBRANCH  23  24
ENDBRANCH  22  23
ENDBRANCH   1  22
TORSDOF 8
ENDMDL
MODEL 6
REMARK VINA RESULT:     -11.3      4.001     11.251
REMARK  Name = 6918314
REMARK  8 active torsions:
REMARK  status: ('A' for Active; 'I' for Inactive)
REMARK    1  A    between atoms: N_1  and  C_22
REMARK    2  A    between atoms: N_2  and  C_9
REMARK    3  A    between atoms: C_16  and  C_19
REMARK    4  A    between atoms: C_22  and  C_23
REMARK    5  A    between atoms: C_23  and  C_24
REMARK    6  A    between atoms: C_24  and  C_25
REMARK    7  A    between atoms: C_25  and  C_27
REMARK    8  A    between atoms: C_33  and  C_37
REMARK                            x       y       z     vdW  Elec       q    Type
REMARK                         _______ _______ _______ _____ _____    ______ ____
ROOT
ATOM      1  N   UNL     1      35.091 -17.463 -24.116  0.00  0.00    +0.389 N 
ATOM      2  N   UNL     1      35.012 -19.274 -21.909  0.00  0.00    -0.312 N 
ATOM      3  C   UNL     1      35.115 -16.956 -22.739  0.00  0.00    -0.055 C 
ATOM      4  C   UNL     1      34.279 -18.683 -24.186  0.00  0.00    -0.055 C 
ATOM      5  C   UNL     1      35.713 -17.991 -21.783  0.00  0.00    +0.068 C 
ATOM      6  C   UNL     1      34.848 -19.775 -23.277  0.00  0.00    +0.068 C 
ATOM      7  H   UNL     1      36.045 -17.687 -24.402  0.00  0.00    -0.080 HD
ENDROOT
BRANCH   2   9
ATOM      8  O   UNL     1      35.199 -22.850 -17.699  0.00  0.00    -0.449 OA
ATOM      9  C   UNL     1      35.098 -20.178 -20.844  0.00  0.00    +0.048 C 
ATOM     10  C   UNL     1      33.924 -20.706 -20.253  0.00  0.00    +0.018 C 
ATOM     11  C   UNL     1      36.355 -20.578 -20.339  0.00  0.00    +0.018 C 
ATOM     12  C   UNL     1      34.027 -21.613 -19.184  0.00  0.00    +0.039 C 
ATOM     13  C   UNL     1      35.295 -21.967 -18.734  0.00  0.00    +0.146 C 
ATOM     14  C   UNL     1      36.482 -21.479 -19.277  0.00  0.00    +0.039 C 
ATOM     15  C   UNL     1      33.113 -22.329 -18.367  0.00  0.00    +0.045 C 
ATOM     16  C   UNL     1      33.873 -23.062 -17.485  0.00  0.00    +0.198 C 
BRANCH  16  19
ATOM     17  O   UNL     1      32.326 -24.149 -16.046  0.00  0.00    -0.267 OA
ATOM     18  N   UNL     1      34.519 -24.669 -15.784  0.00  0.00    -0.323 N 
ATOM     19  C   UNL     1      33.503 -23.957 -16.442  0.00  0.00    +0.277 C 
ATOM     20  H   UNL     1      34.291 -25.295 -15.058  0.00  0.00    +0.145 HD
ATOM     21  H   UNL     1      35.459 -24.542 -16.047  0.00  0.00    +0.145 HD
ENDBRANCH  16  19
ENDBRANCH   2   9
BRANCH   1  22
ATOM     22  C   UNL     1      34.569 -16.446 -25.028  0.00  0.00    -0.077 C 
BRANCH  22  23
ATOM     23  C   UNL     1      34.548 -15.080 -24.344  0.00  0.00    -0.022 C 
BRANCH  23  24
ATOM     24  C   UNL     1      33.122 -14.537 -24.237  0.00  0.00    +0.003 C 
BRANCH  24  25
ATOM     25  C   UNL     1      33.104 -13.133 -23.625  0.00  0.00    +0.028 C 
BRANCH  25  27
ATOM     26  N   UNL     1      32.075 -13.843 -20.194  0.00  0.00    -0.312 N 
ATOM     27  C   UNL     1      32.643 -13.140 -22.198  0.00  0.00    -0.006 C 
ATOM     28  C   UNL     1      32.273 -12.007 -21.445  0.00  0.00    +0.011 C 
ATOM     29  C   UNL     1      32.518 -14.254 -21.422  0.00  0.00    +0.058 C 
ATOM     30  C   UNL     1      31.917 -12.475 -20.179  0.00  0.00    +0.048 C 
ATOM     31  C   UNL     1      32.201 -10.623 -21.701  0.00  0.00    +0.011 C 
ATOM     32  C   UNL     1      31.489 -11.626 -19.153  0.00  0.00    +0.015 C 
ATOM     33  C   UNL     1      31.775  -9.762 -20.684  0.00  0.00    +0.069 C 
ATOM     34  C   UNL     1      31.426 -10.257 -19.429  0.00  0.00    +0.012 C 
ATOM     35  H   UNL     1      31.895 -14.439 -19.431  0.00  0.00    +0.152 HD
BRANCH  33  37
ATOM     36  N   UNL     1      31.637  -7.215 -21.143  0.00  0.00    -0.191 NA
ATOM     37  C   UNL     1      31.698  -8.356 -20.937  0.00  0.00    +0.100 C 
ENDBRANCH  33  37
ENDBRANCH  25  27
ENDBRANCH  24  25
ENDBRANCH  23  24
ENDBRANCH  22  23
ENDBRANCH   1  22
TORSDOF 8
ENDMDL
MODEL 7
REMARK VINA RESULT:     -11.1      4.850     11.152
REMARK  Name = 6918314
REMARK  8 active torsions:
REMARK  status: ('A' for Active; 'I' for Inactive)
REMARK    1  A    between atoms: N_1  and  C_22
REMARK    2  A    between atoms: N_2  and  C_9
REMARK    3  A    between atoms: C_16  and  C_19
REMARK    4  A    between atoms: C_22  and  C_23
REMARK    5  A    between atoms: C_23  and  C_24
REMARK    6  A    between atoms: C_24  and  C_25
REMARK    7  A    between atoms: C_25  and  C_27
REMARK    8  A    between atoms: C_33  and  C_37
REMARK                            x       y       z     vdW  Elec       q    Type
REMARK                         _______ _______ _______ _____ _____    ______ ____
ROOT
ATOM      1  N   UNL     1      35.116 -18.565 -22.847  0.00  0.00    +0.389 N 
ATOM      2  N   UNL     1      35.363 -20.382 -20.657  0.00  0.00    -0.312 N 
ATOM      3  C   UNL     1      34.165 -19.672 -22.690  0.00  0.00    -0.055 C 
ATOM      4  C   UNL     1      36.441 -18.973 -22.366  0.00  0.00    -0.055 C 
ATOM      5  C   UNL     1      34.041 -20.086 -21.222  0.00  0.00    +0.068 C 
ATOM      6  C   UNL     1      36.394 -19.365 -20.888  0.00  0.00    +0.068 C 
ATOM      7  H   UNL     1      34.794 -17.773 -22.290  0.00  0.00    -0.080 HD
ENDROOT
BRANCH   2   9
ATOM      8  O   UNL     1      35.751 -23.513 -16.120  0.00  0.00    -0.449 OA
ATOM      9  C   UNL     1      35.425 -21.186 -19.513  0.00  0.00    +0.048 C 
ATOM     10  C   UNL     1      36.617 -21.263 -18.752  0.00  0.00    +0.018 C 
ATOM     11  C   UNL     1      34.301 -21.936 -19.099  0.00  0.00    +0.018 C 
ATOM     12  C   UNL     1      36.662 -22.075 -17.605  0.00  0.00    +0.039 C 
ATOM     13  C   UNL     1      35.521 -22.787 -17.250  0.00  0.00    +0.146 C 
ATOM     14  C   UNL     1      34.323 -22.749 -17.962  0.00  0.00    +0.039 C 
ATOM     15  C   UNL     1      37.637 -22.395 -16.625  0.00  0.00    +0.045 C 
ATOM     16  C   UNL     1      37.035 -23.269 -15.749  0.00  0.00    +0.198 C 
BRANCH  16  19
ATOM     17  O   UNL     1      37.650 -23.374 -13.456  0.00  0.00    -0.267 OA
ATOM     18  N   UNL     1      37.924 -25.262 -14.685  0.00  0.00    -0.323 N 
ATOM     19  C   UNL     1      37.526 -23.919 -14.582  0.00  0.00    +0.277 C 
ATOM     20  H   UNL     1      38.268 -25.736 -13.893  0.00  0.00    +0.145 HD
ATOM     21  H   UNL     1      37.861 -25.729 -15.549  0.00  0.00    +0.145 HD
ENDBRANCH  16  19
ENDBRANCH   2   9
BRANCH   1  22
ATOM     22  C   UNL     1      35.185 -18.142 -24.245  0.00  0.00    -0.077 C 
BRANCH  22  23
ATOM     23  C   UNL     1      34.560 -16.758 -24.412  0.00  0.00    -0.022 C 
BRANCH  23  24
ATOM     24  C   UNL     1      34.655 -15.949 -23.117  0.00  0.00    +0.003 C 
BRANCH  24  25
ATOM     25  C   UNL     1      33.832 -14.660 -23.203  0.00  0.00    +0.028 C 
BRANCH  25  27
ATOM     26  N   UNL     1      32.391 -14.483 -19.853  0.00  0.00    -0.312 N 
ATOM     27  C   UNL     1      33.171 -14.318 -21.901  0.00  0.00    -0.006 C 
ATOM     28  C   UNL     1      32.582 -13.079 -21.577  0.00  0.00    +0.011 C 
ATOM     29  C   UNL     1      33.049 -15.165 -20.841  0.00  0.00    +0.058 C 
ATOM     30  C   UNL     1      32.094 -13.205 -20.274  0.00  0.00    +0.048 C 
ATOM     31  C   UNL     1      32.407 -11.853 -22.250  0.00  0.00    +0.011 C 
ATOM     32  C   UNL     1      31.437 -12.165 -19.609  0.00  0.00    +0.015 C 
ATOM     33  C   UNL     1      31.752 -10.803 -21.597  0.00  0.00    +0.069 C 
ATOM     34  C   UNL     1      31.275 -10.958 -20.297  0.00  0.00    +0.012 C 
ATOM     35  H   UNL     1      32.164 -14.851 -18.969  0.00  0.00    +0.152 HD
BRANCH  33  37
ATOM     36  N   UNL     1      31.423  -8.545 -22.825  0.00  0.00    -0.191 NA
ATOM     37  C   UNL     1      31.570  -9.556 -22.274  0.00  0.00    +0.100 C 
ENDBRANCH  33  37
ENDBRANCH  25  27
ENDBRANCH  24  25
ENDBRANCH  23  24
ENDBRANCH  22  23
ENDBRANCH   1  22
TORSDOF 8
ENDMDL
MODEL 8
REMARK VINA RESULT:     -11.0      5.956     11.018
REMARK  Name = 6918314
REMARK  8 active torsions:
REMARK  status: ('A' for Active; 'I' for Inactive)
REMARK    1  A    between atoms: N_1  and  C_22
REMARK    2  A    between atoms: N_2  and  C_9
REMARK    3  A    between atoms: C_16  and  C_19
REMARK    4  A    between atoms: C_22  and  C_23
REMARK    5  A    between atoms: C_23  and  C_24
REMARK    6  A    between atoms: C_24  and  C_25
REMARK    7  A    between atoms: C_25  and  C_27
REMARK    8  A    between atoms: C_33  and  C_37
REMARK                            x       y       z     vdW  Elec       q    Type
REMARK                         _______ _______ _______ _____ _____    ______ ____
ROOT
ATOM      1  N   UNL     1      32.136 -11.079 -20.436  0.00  0.00    +0.389 N 
ATOM      2  N   UNL     1      31.747  -8.516 -21.634  0.00  0.00    -0.312 N 
ATOM      3  C   UNL     1      31.606 -10.970 -21.800  0.00  0.00    -0.055 C 
ATOM      4  C   UNL     1      31.675  -9.944 -19.628  0.00  0.00    -0.055 C 
ATOM      5  C   UNL     1      32.074  -9.677 -22.470  0.00  0.00    +0.068 C 
ATOM      6  C   UNL     1      32.144  -8.616 -20.226  0.00  0.00    +0.068 C 
ATOM      7  H   UNL     1      33.155 -11.061 -20.476  0.00  0.00    -0.080 HD
ENDROOT
BRANCH   2   9
ATOM      8  O   UNL     1      31.584  -3.607 -24.166  0.00  0.00    -0.449 OA
ATOM      9  C   UNL     1      31.680  -7.260 -22.249  0.00  0.00    +0.048 C 
ATOM     10  C   UNL     1      32.454  -6.983 -23.403  0.00  0.00    +0.018 C 
ATOM     11  C   UNL     1      30.843  -6.248 -21.730  0.00  0.00    +0.018 C 
ATOM     12  C   UNL     1      32.376  -5.717 -24.009  0.00  0.00    +0.039 C 
ATOM     13  C   UNL     1      31.530  -4.764 -23.449  0.00  0.00    +0.146 C 
ATOM     14  C   UNL     1      30.748  -4.982 -22.316  0.00  0.00    +0.039 C 
ATOM     15  C   UNL     1      32.973  -5.089 -25.133  0.00  0.00    +0.045 C 
ATOM     16  C   UNL     1      32.461  -3.814 -25.184  0.00  0.00    +0.198 C 
BRANCH  16  19
ATOM     17  O   UNL     1      33.691  -1.973 -26.047  0.00  0.00    -0.267 OA
ATOM     18  N   UNL     1      31.746  -2.495 -27.093  0.00  0.00    -0.323 N 
ATOM     19  C   UNL     1      32.696  -2.741 -26.088  0.00  0.00    +0.277 C 
ATOM     20  H   UNL     1      31.884  -1.759 -27.732  0.00  0.00    +0.145 HD
ATOM     21  H   UNL     1      30.942  -3.059 -27.158  0.00  0.00    +0.145 HD
ENDBRANCH  16  19
ENDBRANCH   2   9
BRANCH   1  22
ATOM     22  C   UNL     1      31.727 -12.344 -19.826  0.00  0.00    -0.077 C 
BRANCH  22  23
ATOM     23  C   UNL     1      31.973 -13.503 -20.790  0.00  0.00    -0.022 C 
BRANCH  23  24
ATOM     24  C   UNL     1      32.787 -14.613 -20.123  0.00  0.00    +0.003 C 
BRANCH  24  25
ATOM     25  C   UNL     1      34.250 -14.581 -20.576  0.00  0.00    +0.028 C 
BRANCH  25  27
ATOM     26  N   UNL     1      34.673 -15.785 -23.997  0.00  0.00    -0.312 N 
ATOM     27  C   UNL     1      34.467 -15.332 -21.856  0.00  0.00    -0.006 C 
ATOM     28  C   UNL     1      34.744 -16.709 -21.967  0.00  0.00    +0.011 C 
ATOM     29  C   UNL     1      34.427 -14.779 -23.101  0.00  0.00    +0.058 C 
ATOM     30  C   UNL     1      34.871 -16.975 -23.332  0.00  0.00    +0.048 C 
ATOM     31  C   UNL     1      34.903 -17.769 -21.053  0.00  0.00    +0.011 C 
ATOM     32  C   UNL     1      35.149 -18.253 -23.830  0.00  0.00    +0.015 C 
ATOM     33  C   UNL     1      35.181 -19.053 -21.536  0.00  0.00    +0.069 C 
ATOM     34  C   UNL     1      35.302 -19.289 -22.904  0.00  0.00    +0.012 C 
ATOM     35  H   UNL     1      34.705 -15.675 -24.975  0.00  0.00    +0.152 HD
BRANCH  33  37
ATOM     36  N   UNL     1      35.473 -21.011 -19.864  0.00  0.00    -0.191 NA
ATOM     37  C   UNL     1      35.342 -20.134 -20.614  0.00  0.00    +0.100 C 
ENDBRANCH  33  37
ENDBRANCH  25  27
ENDBRANCH  24  25
ENDBRANCH  23  24
ENDBRANCH  22  23
ENDBRANCH   1  22
TORSDOF 8
ENDMDL
MODEL 9
REMARK VINA RESULT:     -10.9      4.002      8.696
REMARK  Name = 6918314
REMARK  8 active torsions:
REMARK  status: ('A' for Active; 'I' for Inactive)
REMARK    1  A    between atoms: N_1  and  C_22
REMARK    2  A    between atoms: N_2  and  C_9
REMARK    3  A    between atoms: C_16  and  C_19
REMARK    4  A    between atoms: C_22  and  C_23
REMARK    5  A    between atoms: C_23  and  C_24
REMARK    6  A    between atoms: C_24  and  C_25
REMARK    7  A    between atoms: C_25  and  C_27
REMARK    8  A    between atoms: C_33  and  C_37
REMARK                            x       y       z     vdW  Elec       q    Type
REMARK                         _______ _______ _______ _____ _____    ______ ____
ROOT
ATOM      1  N   UNL     1      33.634 -13.901 -23.302  0.00  0.00    +0.389 N 
ATOM      2  N   UNL     1      32.688 -11.277 -22.690  0.00  0.00    -0.312 N 
ATOM      3  C   UNL     1      33.772 -12.817 -24.280  0.00  0.00    -0.055 C 
ATOM      4  C   UNL     1      32.404 -13.718 -22.522  0.00  0.00    -0.055 C 
ATOM      5  C   UNL     1      33.838 -11.455 -23.585  0.00  0.00    +0.068 C 
ATOM      6  C   UNL     1      32.423 -12.387 -21.769  0.00  0.00    +0.068 C 
ATOM      7  H   UNL     1      34.432 -13.876 -22.666  0.00  0.00    -0.080 HD
ENDROOT
BRANCH   2   9
ATOM      8  O   UNL     1      31.282  -6.089 -21.405  0.00  0.00    -0.449 OA
ATOM      9  C   UNL     1      32.332  -9.972 -22.327  0.00  0.00    +0.048 C 
ATOM     10  C   UNL     1      32.128  -8.981 -23.318  0.00  0.00    +0.018 C 
ATOM     11  C   UNL     1      32.173  -9.622 -20.968  0.00  0.00    +0.018 C 
ATOM     12  C   UNL     1      31.772  -7.675 -22.937  0.00  0.00    +0.039 C 
ATOM     13  C   UNL     1      31.629  -7.395 -21.582  0.00  0.00    +0.146 C 
ATOM     14  C   UNL     1      31.817  -8.330 -20.566  0.00  0.00    +0.039 C 
ATOM     15  C   UNL     1      31.492  -6.460 -23.615  0.00  0.00    +0.045 C 
ATOM     16  C   UNL     1      31.202  -5.532 -22.642  0.00  0.00    +0.198 C 
BRANCH  16  19
ATOM     17  O   UNL     1      31.292  -3.356 -23.595  0.00  0.00    -0.267 OA
ATOM     18  N   UNL     1      29.965  -3.631 -21.774  0.00  0.00    -0.323 N 
ATOM     19  C   UNL     1      30.851  -4.155 -22.730  0.00  0.00    +0.277 C 
ATOM     20  H   UNL     1      29.706  -2.682 -21.812  0.00  0.00    +0.145 HD
ATOM     21  H   UNL     1      29.604  -4.212 -21.067  0.00  0.00    +0.145 HD
ENDBRANCH  16  19
ENDBRANCH   2   9
BRANCH   1  22
ATOM     22  C   UNL     1      33.627 -15.201 -23.974  0.00  0.00    -0.077 C 
BRANCH  22  23
ATOM     23  C   UNL     1      34.937 -15.941 -23.710  0.00  0.00    -0.022 C 
BRANCH  23  24
ATOM     24  C   UNL     1      34.914 -16.639 -22.349  0.00  0.00    +0.003 C 
BRANCH  24  25
ATOM     25  C   UNL     1      34.809 -18.159 -22.503  0.00  0.00    +0.028 C 
BRANCH  25  27
ATOM     26  N   UNL     1      37.818 -19.518 -20.944  0.00  0.00    -0.312 N 
ATOM     27  C   UNL     1      35.861 -18.885 -21.719  0.00  0.00    -0.006 C 
ATOM     28  C   UNL     1      35.627 -19.902 -20.770  0.00  0.00    +0.011 C 
ATOM     29  C   UNL     1      37.202 -18.660 -21.815  0.00  0.00    +0.058 C 
ATOM     30  C   UNL     1      36.881 -20.288 -20.292  0.00  0.00    +0.048 C 
ATOM     31  C   UNL     1      34.480 -20.542 -20.260  0.00  0.00    +0.011 C 
ATOM     32  C   UNL     1      37.046 -21.287 -19.326  0.00  0.00    +0.015 C 
ATOM     33  C   UNL     1      34.630 -21.543 -19.293  0.00  0.00    +0.069 C 
ATOM     34  C   UNL     1      35.894 -21.908 -18.834  0.00  0.00    +0.012 C 
ATOM     35  H   UNL     1      38.791 -19.576 -20.803  0.00  0.00    +0.152 HD
BRANCH  33  37
ATOM     36  N   UNL     1      32.529 -22.729 -18.348  0.00  0.00    -0.191 NA
ATOM     37  C   UNL     1      33.470 -22.198 -18.772  0.00  0.00    +0.100 C 
ENDBRANCH  33  37
ENDBRANCH  25  27
ENDBRANCH  24  25
ENDBRANCH  23  24
ENDBRANCH  22  23
ENDBRANCH   1  22
TORSDOF 8
ENDMDL
