MODEL 1
REMARK VINA RESULT:     -10.9      0.000      0.000
REMARK  Name = 11711595
REMARK  10 active torsions:
REMARK  status: ('A' for Active; 'I' for Inactive)
REMARK    1  A    between atoms: C_1  and  C_9
REMARK    2  A    between atoms: C_3  and  C_17
REMARK    3  A    between atoms: C_5  and  O_7
REMARK    4  A    between atoms: C_9  and  C_10
REMARK    5  A    between atoms: C_10  and  C_12
REMARK    6  A    between atoms: C_10  and  C_15
REMARK    7  A    between atoms: C_12  and  O_13
REMARK    8  A    between atoms: C_17  and  N_19
REMARK    9  A    between atoms: C_20  and  C_23
REMARK   10  A    between atoms: C_26  and  C_32
REMARK                            x       y       z     vdW  Elec       q    Type
REMARK                         _______ _______ _______ _____ _____    ______ ____
ROOT
ATOM      1  C   UNL     1      34.985 -24.389 -14.657  0.00  0.00    -0.022 C 
ATOM      2  C   UNL     1      34.216 -24.008 -15.758  0.00  0.00    -0.004 C 
ATOM      3  C   UNL     1      32.849 -23.770 -15.605  0.00  0.00    +0.031 C 
ATOM      4  C   UNL     1      34.387 -24.532 -13.405  0.00  0.00    -0.001 C 
ATOM      5  C   UNL     1      32.252 -23.913 -14.352  0.00  0.00    +0.136 C 
ATOM      6  C   UNL     1      33.020 -24.294 -13.253  0.00  0.00    +0.036 C 
ENDROOT
BRANCH   5   7
ATOM      7  O   UNL     1      30.919 -23.685 -14.186  0.00  0.00    -0.472 OA
ATOM      8  C   UNL     1      30.083 -24.828 -14.014  0.00  0.00    +0.252 C 
ENDBRANCH   5   7
BRANCH   1   9
ATOM      9  C   UNL     1      36.463 -24.647 -14.822  0.00  0.00    +0.037 C 
BRANCH   9  10
ATOM     10  C   UNL     1      37.004 -25.720 -13.859  0.00  0.00    +0.103 C 
BRANCH  10  12
ATOM     11  O   UNL     1      38.292 -27.719 -14.383  0.00  0.00    -0.250 OA
ATOM     12  C   UNL     1      37.354 -26.976 -14.645  0.00  0.00    +0.314 C 
BRANCH  12  13
ATOM     13  O   UNL     1      36.495 -27.209 -15.670  0.00  0.00    -0.480 OA
ATOM     14  H   UNL     1      36.825 -27.462 -16.510  0.00  0.00    +0.295 HD
ENDBRANCH  12  13
ENDBRANCH  10  12
BRANCH  10  15
ATOM     15  C   UNL     1      38.248 -25.194 -13.119  0.00  0.00    +0.011 C 
ATOM     16  C   UNL     1      37.979 -24.915 -11.646  0.00  0.00    +0.001 C 
ENDBRANCH  10  15
ENDBRANCH   9  10
ENDBRANCH   1   9
BRANCH   3  17
ATOM     17  C   UNL     1      32.043 -23.364 -16.794  0.00  0.00    +0.120 C 
BRANCH  17  19
ATOM     18  O   UNL     1      33.640 -24.003 -19.092  0.00  0.00    -0.270 OA
ATOM     19  N   UNL     1      32.746 -22.433 -17.638  0.00  0.00    -0.297 N 
ATOM     20  C   UNL     1      33.498 -22.837 -18.733  0.00  0.00    +0.248 C 
ATOM     21  H   UNL     1      32.692 -21.472 -17.430  0.00  0.00    +0.150 HD
BRANCH  20  23
ATOM     22  F   UNL     1      36.300 -22.490 -18.694  0.00  0.00    -0.204 F 
ATOM     23  C   UNL     1      34.185 -21.757 -19.487  0.00  0.00    +0.081 C 
ATOM     24  C   UNL     1      35.573 -21.636 -19.429  0.00  0.00    +0.144 C 
ATOM     25  C   UNL     1      33.438 -20.863 -20.255  0.00  0.00    +0.007 C 
ATOM     26  C   UNL     1      35.469 -19.729 -20.906  0.00  0.00    +0.074 C 
ATOM     27  C   UNL     1      36.216 -20.622 -20.139  0.00  0.00    +0.034 C 
ATOM     28  C   UNL     1      34.081 -19.848 -20.964  0.00  0.00    +0.004 C 
BRANCH  26  32
ATOM     29  F   UNL     1      37.520 -18.698 -21.585  0.00  0.00    -0.166 F 
ATOM     30  F   UNL     1      35.878 -18.652 -23.003  0.00  0.00    -0.166 F 
ATOM     31  F   UNL     1      35.813 -17.398 -21.228  0.00  0.00    -0.166 F 
ATOM     32  C   UNL     1      36.157 -18.644 -21.666  0.00  0.00    +0.419 C 
ENDBRANCH  26  32
ENDBRANCH  20  23
ENDBRANCH  17  19
ENDBRANCH   3  17
TORSDOF 10
ENDMDL
MODEL 2
REMARK VINA RESULT:     -10.9      2.063      4.973
REMARK  Name = 11711595
REMARK  10 active torsions:
REMARK  status: ('A' for Active; 'I' for Inactive)
REMARK    1  A    between atoms: C_1  and  C_9
REMARK    2  A    between atoms: C_3  and  C_17
REMARK    3  A    between atoms: C_5  and  O_7
REMARK    4  A    between atoms: C_9  and  C_10
REMARK    5  A    between atoms: C_10  and  C_12
REMARK    6  A    between atoms: C_10  and  C_15
REMARK    7  A    between atoms: C_12  and  O_13
REMARK    8  A    between atoms: C_17  and  N_19
REMARK    9  A    between atoms: C_20  and  C_23
REMARK   10  A    between atoms: C_26  and  C_32
REMARK                            x       y       z     vdW  Elec       q    Type
REMARK                         _______ _______ _______ _____ _____    ______ ____
ROOT
ATOM      1  C   UNL     1      31.238 -23.153 -14.805  0.00  0.00    -0.022 C 
ATOM      2  C   UNL     1      32.289 -23.392 -15.691  0.00  0.00    -0.004 C 
ATOM      3  C   UNL     1      33.499 -23.899 -15.217  0.00  0.00    +0.031 C 
ATOM      4  C   UNL     1      31.397 -23.422 -13.446  0.00  0.00    -0.001 C 
ATOM      5  C   UNL     1      33.658 -24.167 -13.856  0.00  0.00    +0.136 C 
ATOM      6  C   UNL     1      32.607 -23.929 -12.971  0.00  0.00    +0.036 C 
ENDROOT
BRANCH   5   7
ATOM      7  O   UNL     1      34.833 -24.662 -13.377  0.00  0.00    -0.472 OA
ATOM      8  C   UNL     1      35.111 -24.447 -11.994  0.00  0.00    +0.252 C 
ENDBRANCH   5   7
BRANCH   1   9
ATOM      9  C   UNL     1      29.928 -22.604 -15.318  0.00  0.00    +0.037 C 
BRANCH   9  10
ATOM     10  C   UNL     1      28.814 -23.665 -15.396  0.00  0.00    +0.103 C 
BRANCH  10  12
ATOM     11  O   UNL     1      27.560 -24.198 -17.414  0.00  0.00    -0.250 OA
ATOM     12  C   UNL     1      27.912 -23.367 -16.586  0.00  0.00    +0.314 C 
BRANCH  12  13
ATOM     13  O   UNL     1      27.510 -22.071 -16.626  0.00  0.00    -0.480 OA
ATOM     14  H   UNL     1      26.720 -21.812 -16.194  0.00  0.00    +0.295 HD
ENDBRANCH  12  13
ENDBRANCH  10  12
BRANCH  10  15
ATOM     15  C   UNL     1      29.427 -25.071 -15.535  0.00  0.00    +0.011 C 
ATOM     16  C   UNL     1      29.061 -25.988 -14.374  0.00  0.00    +0.001 C 
ENDBRANCH  10  15
ENDBRANCH   9  10
ENDBRANCH   1   9
BRANCH   3  17
ATOM     17  C   UNL     1      34.613 -24.148 -16.179  0.00  0.00    +0.120 C 
BRANCH  17  19
ATOM     18  O   UNL     1      33.618 -24.064 -18.870  0.00  0.00    -0.270 OA
ATOM     19  N   UNL     1      34.772 -23.070 -17.121  0.00  0.00    -0.297 N 
ATOM     20  C   UNL     1      34.253 -23.120 -18.408  0.00  0.00    +0.248 C 
ATOM     21  H   UNL     1      35.268 -22.267 -16.842  0.00  0.00    +0.150 HD
BRANCH  20  23
ATOM     22  F   UNL     1      36.868 -22.233 -19.001  0.00  0.00    -0.204 F 
ATOM     23  C   UNL     1      34.526 -21.939 -19.267  0.00  0.00    +0.081 C 
ATOM     24  C   UNL     1      35.839 -21.549 -19.525  0.00  0.00    +0.144 C 
ATOM     25  C   UNL     1      33.464 -21.220 -19.817  0.00  0.00    +0.007 C 
ATOM     26  C   UNL     1      35.032 -19.723 -20.883  0.00  0.00    +0.074 C 
ATOM     27  C   UNL     1      36.093 -20.441 -20.333  0.00  0.00    +0.034 C 
ATOM     28  C   UNL     1      33.717 -20.112 -20.624  0.00  0.00    +0.004 C 
BRANCH  26  32
ATOM     29  F   UNL     1      36.622 -18.381 -22.065  0.00  0.00    -0.166 F 
ATOM     30  F   UNL     1      34.650 -18.575 -22.946  0.00  0.00    -0.166 F 
ATOM     31  F   UNL     1      34.925 -17.364 -21.161  0.00  0.00    -0.166 F 
ATOM     32  C   UNL     1      35.302 -18.537 -21.747  0.00  0.00    +0.419 C 
ENDBRANCH  26  32
ENDBRANCH  20  23
ENDBRANCH  17  19
ENDBRANCH   3  17
TORSDOF 10
ENDMDL
MODEL 3
REMARK VINA RESULT:     -10.5      8.632     12.181
REMARK  Name = 11711595
REMARK  10 active torsions:
REMARK  status: ('A' for Active; 'I' for Inactive)
REMARK    1  A    between atoms: C_1  and  C_9
REMARK    2  A    between atoms: C_3  and  C_17
REMARK    3  A    between atoms: C_5  and  O_7
REMARK    4  A    between atoms: C_9  and  C_10
REMARK    5  A    between atoms: C_10  and  C_12
REMARK    6  A    between atoms: C_10  and  C_15
REMARK    7  A    between atoms: C_12  and  O_13
REMARK    8  A    between atoms: C_17  and  N_19
REMARK    9  A    between atoms: C_20  and  C_23
REMARK   10  A    between atoms: C_26  and  C_32
REMARK                            x       y       z     vdW  Elec       q    Type
REMARK                         _______ _______ _______ _____ _____    ______ ____
ROOT
ATOM      1  C   UNL     1      34.630 -16.490 -21.439  0.00  0.00    -0.022 C 
ATOM      2  C   UNL     1      33.707 -15.669 -20.791  0.00  0.00    -0.004 C 
ATOM      3  C   UNL     1      33.176 -14.560 -21.451  0.00  0.00    +0.031 C 
ATOM      4  C   UNL     1      35.022 -16.203 -22.746  0.00  0.00    -0.001 C 
ATOM      5  C   UNL     1      33.568 -14.274 -22.759  0.00  0.00    +0.136 C 
ATOM      6  C   UNL     1      34.491 -15.095 -23.406  0.00  0.00    +0.036 C 
ENDROOT
BRANCH   5   7
ATOM      7  O   UNL     1      33.060 -13.195 -23.418  0.00  0.00    -0.472 OA
ATOM      8  C   UNL     1      33.967 -12.438 -24.217  0.00  0.00    +0.252 C 
ENDBRANCH   5   7
BRANCH   1   9
ATOM      9  C   UNL     1      35.205 -17.690 -20.724  0.00  0.00    +0.037 C 
BRANCH   9  10
ATOM     10  C   UNL     1      35.927 -18.670 -21.667  0.00  0.00    +0.103 C 
BRANCH  10  12
ATOM     11  O   UNL     1      37.500 -19.398 -19.956  0.00  0.00    -0.250 OA
ATOM     12  C   UNL     1      37.300 -19.003 -21.098  0.00  0.00    +0.314 C 
BRANCH  12  13
ATOM     13  O   UNL     1      38.296 -18.839 -22.005  0.00  0.00    -0.480 OA
ATOM     14  H   UNL     1      38.243 -18.154 -22.642  0.00  0.00    +0.295 HD
ENDBRANCH  12  13
ENDBRANCH  10  12
BRANCH  10  15
ATOM     15  C   UNL     1      35.097 -19.956 -21.835  0.00  0.00    +0.011 C 
ATOM     16  C   UNL     1      34.052 -20.128 -20.740  0.00  0.00    +0.001 C 
ENDBRANCH  10  15
ENDBRANCH   9  10
ENDBRANCH   1   9
BRANCH   3  17
ATOM     17  C   UNL     1      32.189 -13.693 -20.742  0.00  0.00    +0.120 C 
BRANCH  17  19
ATOM     18  O   UNL     1      30.376 -11.567 -20.080  0.00  0.00    -0.270 OA
ATOM     19  N   UNL     1      32.318 -12.306 -21.112  0.00  0.00    -0.297 N 
ATOM     20  C   UNL     1      31.385 -11.345 -20.745  0.00  0.00    +0.248 C 
ATOM     21  H   UNL     1      33.096 -12.030 -21.647  0.00  0.00    +0.150 HD
BRANCH  20  23
ATOM     22  F   UNL     1      32.067  -9.223 -19.010  0.00  0.00    -0.204 F 
ATOM     23  C   UNL     1      31.646  -9.965 -21.228  0.00  0.00    +0.081 C 
ATOM     24  C   UNL     1      31.980  -8.958 -20.323  0.00  0.00    +0.144 C 
ATOM     25  C   UNL     1      31.558  -9.678 -22.590  0.00  0.00    +0.007 C 
ATOM     26  C   UNL     1      32.138  -7.376 -22.140  0.00  0.00    +0.074 C 
ATOM     27  C   UNL     1      32.226  -7.663 -20.778  0.00  0.00    +0.034 C 
ATOM     28  C   UNL     1      31.804  -8.383 -23.046  0.00  0.00    +0.004 C 
BRANCH  26  32
ATOM     29  F   UNL     1      32.428  -5.056 -21.633  0.00  0.00    -0.166 F 
ATOM     30  F   UNL     1      33.597  -5.857 -23.275  0.00  0.00    -0.166 F 
ATOM     31  F   UNL     1      31.457  -5.558 -23.513  0.00  0.00    -0.166 F 
ATOM     32  C   UNL     1      32.402  -5.991 -22.629  0.00  0.00    +0.419 C 
ENDBRANCH  26  32
ENDBRANCH  20  23
ENDBRANCH  17  19
ENDBRANCH   3  17
TORSDOF 10
ENDMDL
MODEL 4
REMARK VINA RESULT:     -10.5      5.955     11.121
REMARK  Name = 11711595
REMARK  10 active torsions:
REMARK  status: ('A' for Active; 'I' for Inactive)
REMARK    1  A    between atoms: C_1  and  C_9
REMARK    2  A    between atoms: C_3  and  C_17
REMARK    3  A    between atoms: C_5  and  O_7
REMARK    4  A    between atoms: C_9  and  C_10
REMARK    5  A    between atoms: C_10  and  C_12
REMARK    6  A    between atoms: C_10  and  C_15
REMARK    7  A    between atoms: C_12  and  O_13
REMARK    8  A    between atoms: C_17  and  N_19
REMARK    9  A    between atoms: C_20  and  C_23
REMARK   10  A    between atoms: C_26  and  C_32
REMARK                            x       y       z     vdW  Elec       q    Type
REMARK                         _______ _______ _______ _____ _____    ______ ____
ROOT
ATOM      1  C   UNL     1      32.841 -14.447 -21.413  0.00  0.00    -0.022 C 
ATOM      2  C   UNL     1      33.897 -15.319 -21.144  0.00  0.00    -0.004 C 
ATOM      3  C   UNL     1      34.618 -15.887 -22.195  0.00  0.00    +0.031 C 
ATOM      4  C   UNL     1      32.507 -14.144 -22.733  0.00  0.00    -0.001 C 
ATOM      5  C   UNL     1      34.284 -15.582 -23.515  0.00  0.00    +0.136 C 
ATOM      6  C   UNL     1      33.229 -14.711 -23.784  0.00  0.00    +0.036 C 
ENDROOT
BRANCH   5   7
ATOM      7  O   UNL     1      34.977 -16.128 -24.553  0.00  0.00    -0.472 OA
ATOM      8  C   UNL     1      34.436 -17.308 -25.144  0.00  0.00    +0.252 C 
ENDBRANCH   5   7
BRANCH   1   9
ATOM      9  C   UNL     1      32.061 -13.833 -20.275  0.00  0.00    +0.037 C 
BRANCH   9  10
ATOM     10  C   UNL     1      32.266 -12.312 -20.150  0.00  0.00    +0.103 C 
BRANCH  10  12
ATOM     11  O   UNL     1      32.184 -10.899 -22.132  0.00  0.00    -0.250 OA
ATOM     12  C   UNL     1      31.599 -11.611 -21.325  0.00  0.00    +0.314 C 
BRANCH  12  13
ATOM     13  O   UNL     1      30.270 -11.876 -21.406  0.00  0.00    -0.480 OA
ATOM     14  H   UNL     1      29.646 -11.193 -21.257  0.00  0.00    +0.295 HD
ENDBRANCH  12  13
ENDBRANCH  10  12
BRANCH  10  15
ATOM     15  C   UNL     1      31.674 -11.803 -18.823  0.00  0.00    +0.011 C 
ATOM     16  C   UNL     1      31.758 -10.287 -18.686  0.00  0.00    +0.001 C 
ENDBRANCH  10  15
ENDBRANCH   9  10
ENDBRANCH   1   9
BRANCH   3  17
ATOM     17  C   UNL     1      35.744 -16.817 -21.888  0.00  0.00    +0.120 C 
BRANCH  17  19
ATOM     18  O   UNL     1      35.495 -19.565 -22.681  0.00  0.00    -0.270 OA
ATOM     19  N   UNL     1      35.331 -17.918 -21.056  0.00  0.00    -0.297 N 
ATOM     20  C   UNL     1      35.239 -19.220 -21.530  0.00  0.00    +0.248 C 
ATOM     21  H   UNL     1      35.104 -17.741 -20.115  0.00  0.00    +0.150 HD
BRANCH  20  23
ATOM     22  F   UNL     1      37.011 -20.861 -20.066  0.00  0.00    -0.204 F 
ATOM     23  C   UNL     1      34.771 -20.238 -20.555  0.00  0.00    +0.081 C 
ATOM     24  C   UNL     1      35.695 -21.019 -19.860  0.00  0.00    +0.144 C 
ATOM     25  C   UNL     1      33.405 -20.411 -20.333  0.00  0.00    +0.007 C 
ATOM     26  C   UNL     1      33.888 -22.146 -18.722  0.00  0.00    +0.074 C 
ATOM     27  C   UNL     1      35.254 -21.973 -18.944  0.00  0.00    +0.034 C 
ATOM     28  C   UNL     1      32.964 -21.366 -19.417  0.00  0.00    +0.004 C 
BRANCH  26  32
ATOM     29  F   UNL     1      32.126 -22.975 -17.331  0.00  0.00    -0.166 F 
ATOM     30  F   UNL     1      33.450 -24.443 -18.223  0.00  0.00    -0.166 F 
ATOM     31  F   UNL     1      34.164 -23.183 -16.601  0.00  0.00    -0.166 F 
ATOM     32  C   UNL     1      33.415 -23.166 -17.742  0.00  0.00    +0.419 C 
ENDBRANCH  26  32
ENDBRANCH  20  23
ENDBRANCH  17  19
ENDBRANCH   3  17
TORSDOF 10
ENDMDL
MODEL 5
REMARK VINA RESULT:     -10.2      6.410     10.199
REMARK  Name = 11711595
REMARK  10 active torsions:
REMARK  status: ('A' for Active; 'I' for Inactive)
REMARK    1  A    between atoms: C_1  and  C_9
REMARK    2  A    between atoms: C_3  and  C_17
REMARK    3  A    between atoms: C_5  and  O_7
REMARK    4  A    between atoms: C_9  and  C_10
REMARK    5  A    between atoms: C_10  and  C_12
REMARK    6  A    between atoms: C_10  and  C_15
REMARK    7  A    between atoms: C_12  and  O_13
REMARK    8  A    between atoms: C_17  and  N_19
REMARK    9  A    between atoms: C_20  and  C_23
REMARK   10  A    between atoms: C_26  and  C_32
REMARK                            x       y       z     vdW  Elec       q    Type
REMARK                         _______ _______ _______ _____ _____    ______ ____
ROOT
ATOM      1  C   UNL     1      34.869 -18.793 -22.168  0.00  0.00    -0.022 C 
ATOM      2  C   UNL     1      35.133 -17.427 -22.277  0.00  0.00    -0.004 C 
ATOM      3  C   UNL     1      34.957 -16.778 -23.500  0.00  0.00    +0.031 C 
ATOM      4  C   UNL     1      34.429 -19.509 -23.281  0.00  0.00    -0.001 C 
ATOM      5  C   UNL     1      34.517 -17.496 -24.613  0.00  0.00    +0.136 C 
ATOM      6  C   UNL     1      34.253 -18.861 -24.503  0.00  0.00    +0.036 C 
ENDROOT
BRANCH   5   7
ATOM      7  O   UNL     1      34.341 -16.878 -25.814  0.00  0.00    -0.472 OA
ATOM      8  C   UNL     1      33.045 -16.347 -26.085  0.00  0.00    +0.252 C 
ENDBRANCH   5   7
BRANCH   1   9
ATOM      9  C   UNL     1      35.060 -19.495 -20.845  0.00  0.00    +0.037 C 
BRANCH   9  10
ATOM     10  C   UNL     1      36.405 -20.238 -20.739  0.00  0.00    +0.103 C 
BRANCH  10  12
ATOM     11  O   UNL     1      37.888 -18.779 -19.474  0.00  0.00    -0.250 OA
ATOM     12  C   UNL     1      37.529 -19.228 -20.556  0.00  0.00    +0.314 C 
BRANCH  12  13
ATOM     13  O   UNL     1      38.121 -18.884 -21.728  0.00  0.00    -0.480 OA
ATOM     14  H   UNL     1      39.039 -19.029 -21.849  0.00  0.00    +0.295 HD
ENDBRANCH  12  13
ENDBRANCH  10  12
BRANCH  10  15
ATOM     15  C   UNL     1      36.378 -21.222 -19.555  0.00  0.00    +0.011 C 
ATOM     16  C   UNL     1      34.994 -21.811 -19.313  0.00  0.00    +0.001 C 
ENDBRANCH  10  15
ENDBRANCH   9  10
ENDBRANCH   1   9
BRANCH   3  17
ATOM     17  C   UNL     1      35.245 -15.317 -23.598  0.00  0.00    +0.120 C 
BRANCH  17  19
ATOM     18  O   UNL     1      32.609 -14.217 -23.891  0.00  0.00    -0.270 OA
ATOM     19  N   UNL     1      34.520 -14.551 -22.618  0.00  0.00    -0.297 N 
ATOM     20  C   UNL     1      33.243 -14.057 -22.850  0.00  0.00    +0.248 C 
ATOM     21  H   UNL     1      34.945 -14.369 -21.749  0.00  0.00    +0.150 HD
BRANCH  20  23
ATOM     22  F   UNL     1      32.847 -15.097 -20.254  0.00  0.00    -0.204 F 
ATOM     23  C   UNL     1      32.640 -13.263 -21.749  0.00  0.00    +0.081 C 
ATOM     24  C   UNL     1      32.471 -13.831 -20.487  0.00  0.00    +0.144 C 
ATOM     25  C   UNL     1      32.245 -11.945 -21.980  0.00  0.00    +0.007 C 
ATOM     26  C   UNL     1      31.511 -11.765 -19.685  0.00  0.00    +0.074 C 
ATOM     27  C   UNL     1      31.906 -13.083 -19.454  0.00  0.00    +0.034 C 
ATOM     28  C   UNL     1      31.680 -11.196 -20.947  0.00  0.00    +0.004 C 
BRANCH  26  32
ATOM     29  F   UNL     1      29.544 -10.893 -18.638  0.00  0.00    -0.166 F 
ATOM     30  F   UNL     1      31.186 -11.452 -17.336  0.00  0.00    -0.166 F 
ATOM     31  F   UNL     1      31.342  -9.670 -18.573  0.00  0.00    -0.166 F 
ATOM     32  C   UNL     1      30.907 -10.964 -18.581  0.00  0.00    +0.419 C 
ENDBRANCH  26  32
ENDBRANCH  20  23
ENDBRANCH  17  19
ENDBRANCH   3  17
TORSDOF 10
ENDMDL
MODEL 6
REMARK VINA RESULT:     -10.2      9.700     14.745
REMARK  Name = 11711595
REMARK  10 active torsions:
REMARK  status: ('A' for Active; 'I' for Inactive)
REMARK    1  A    between atoms: C_1  and  C_9
REMARK    2  A    between atoms: C_3  and  C_17
REMARK    3  A    between atoms: C_5  and  O_7
REMARK    4  A    between atoms: C_9  and  C_10
REMARK    5  A    between atoms: C_10  and  C_12
REMARK    6  A    between atoms: C_10  and  C_15
REMARK    7  A    between atoms: C_12  and  O_13
REMARK    8  A    between atoms: C_17  and  N_19
REMARK    9  A    between atoms: C_20  and  C_23
REMARK   10  A    between atoms: C_26  and  C_32
REMARK                            x       y       z     vdW  Elec       q    Type
REMARK                         _______ _______ _______ _____ _____    ______ ____
ROOT
ATOM      1  C   UNL     1      32.803  -8.473 -22.145  0.00  0.00    -0.022 C 
ATOM      2  C   UNL     1      33.430  -9.305 -23.073  0.00  0.00    -0.004 C 
ATOM      3  C   UNL     1      33.190 -10.679 -23.052  0.00  0.00    +0.031 C 
ATOM      4  C   UNL     1      31.935  -9.016 -21.197  0.00  0.00    -0.001 C 
ATOM      5  C   UNL     1      32.322 -11.221 -22.103  0.00  0.00    +0.136 C 
ATOM      6  C   UNL     1      31.695 -10.390 -21.176  0.00  0.00    +0.036 C 
ENDROOT
BRANCH   5   7
ATOM      7  O   UNL     1      32.077 -12.561 -22.068  0.00  0.00    -0.472 OA
ATOM      8  C   UNL     1      31.906 -13.155 -20.783  0.00  0.00    +0.252 C 
ENDBRANCH   5   7
BRANCH   1   9
ATOM      9  C   UNL     1      33.063  -6.986 -22.167  0.00  0.00    +0.037 C 
BRANCH   9  10
ATOM     10  C   UNL     1      32.028  -6.201 -22.996  0.00  0.00    +0.103 C 
BRANCH  10  12
ATOM     11  O   UNL     1      30.202  -4.693 -22.427  0.00  0.00    -0.250 OA
ATOM     12  C   UNL     1      31.152  -5.376 -22.063  0.00  0.00    +0.314 C 
BRANCH  12  13
ATOM     13  O   UNL     1      31.518  -5.492 -20.761  0.00  0.00    -0.480 OA
ATOM     14  H   UNL     1      32.373  -5.805 -20.541  0.00  0.00    +0.295 HD
ENDBRANCH  12  13
ENDBRANCH  10  12
BRANCH  10  15
ATOM     15  C   UNL     1      32.741  -5.281 -24.004  0.00  0.00    +0.011 C 
ATOM     16  C   UNL     1      33.936  -5.954 -24.669  0.00  0.00    +0.001 C 
ENDBRANCH  10  15
ENDBRANCH   9  10
ENDBRANCH   1   9
BRANCH   3  17
ATOM     17  C   UNL     1      33.870 -11.554 -24.052  0.00  0.00    +0.120 C 
BRANCH  17  19
ATOM     18  O   UNL     1      33.327 -14.132 -25.192  0.00  0.00    -0.270 OA
ATOM     19  N   UNL     1      34.236 -12.833 -23.499  0.00  0.00    -0.297 N 
ATOM     20  C   UNL     1      33.928 -14.033 -24.125  0.00  0.00    +0.248 C 
ATOM     21  H   UNL     1      34.721 -12.857 -22.644  0.00  0.00    +0.150 HD
BRANCH  20  23
ATOM     22  F   UNL     1      34.655 -16.404 -25.476  0.00  0.00    -0.204 F 
ATOM     23  C   UNL     1      34.349 -15.267 -23.413  0.00  0.00    +0.081 C 
ATOM     24  C   UNL     1      34.698 -16.408 -24.136  0.00  0.00    +0.144 C 
ATOM     25  C   UNL     1      34.398 -15.282 -22.019  0.00  0.00    +0.007 C 
ATOM     26  C   UNL     1      35.144 -17.580 -22.071  0.00  0.00    +0.074 C 
ATOM     27  C   UNL     1      35.095 -17.565 -23.465  0.00  0.00    +0.034 C 
ATOM     28  C   UNL     1      34.794 -16.439 -21.348  0.00  0.00    +0.004 C 
BRANCH  26  32
ATOM     29  F   UNL     1      36.677 -18.643 -20.574  0.00  0.00    -0.166 F 
ATOM     30  F   UNL     1      34.616 -19.315 -20.513  0.00  0.00    -0.166 F 
ATOM     31  F   UNL     1      35.876 -19.838 -22.206  0.00  0.00    -0.166 F 
ATOM     32  C   UNL     1      35.569 -18.817 -21.354  0.00  0.00    +0.419 C 
ENDBRANCH  26  32
ENDBRANCH  20  23
ENDBRANCH  17  19
ENDBRANCH   3  17
TORSDOF 10
ENDMDL
MODEL 7
REMARK VINA RESULT:      -9.9      1.651      2.194
REMARK  Name = 11711595
REMARK  10 active torsions:
REMARK  status: ('A' for Active; 'I' for Inactive)
REMARK    1  A    between atoms: C_1  and  C_9
REMARK    2  A    between atoms: C_3  and  C_17
REMARK    3  A    between atoms: C_5  and  O_7
REMARK    4  A    between atoms: C_9  and  C_10
REMARK    5  A    between atoms: C_10  and  C_12
REMARK    6  A    between atoms: C_10  and  C_15
REMARK    7  A    between atoms: C_12  and  O_13
REMARK    8  A    between atoms: C_17  and  N_19
REMARK    9  A    between atoms: C_20  and  C_23
REMARK   10  A    between atoms: C_26  and  C_32
REMARK                            x       y       z     vdW  Elec       q    Type
REMARK                         _______ _______ _______ _____ _____    ______ ____
ROOT
ATOM      1  C   UNL     1      36.063 -24.033 -13.984  0.00  0.00    -0.022 C 
ATOM      2  C   UNL     1      35.504 -24.174 -15.255  0.00  0.00    -0.004 C 
ATOM      3  C   UNL     1      34.126 -24.341 -15.397  0.00  0.00    +0.031 C 
ATOM      4  C   UNL     1      35.243 -24.059 -12.856  0.00  0.00    -0.001 C 
ATOM      5  C   UNL     1      33.307 -24.366 -14.267  0.00  0.00    +0.136 C 
ATOM      6  C   UNL     1      33.865 -24.226 -12.997  0.00  0.00    +0.036 C 
ENDROOT
BRANCH   5   7
ATOM      7  O   UNL     1      31.959 -24.529 -14.387  0.00  0.00    -0.472 OA
ATOM      8  C   UNL     1      31.346 -25.501 -13.543  0.00  0.00    +0.252 C 
ENDBRANCH   5   7
BRANCH   1   9
ATOM      9  C   UNL     1      37.554 -23.853 -13.831  0.00  0.00    +0.037 C 
BRANCH   9  10
ATOM     10  C   UNL     1      38.193 -24.872 -12.870  0.00  0.00    +0.103 C 
BRANCH  10  12
ATOM     11  O   UNL     1      37.558 -24.924 -10.519  0.00  0.00    -0.250 OA
ATOM     12  C   UNL     1      38.114 -24.344 -11.444  0.00  0.00    +0.314 C 
BRANCH  12  13
ATOM     13  O   UNL     1      38.753 -23.156 -11.290  0.00  0.00    -0.480 OA
ATOM     14  H   UNL     1      38.510 -22.421 -11.818  0.00  0.00    +0.295 HD
ENDBRANCH  12  13
ENDBRANCH  10  12
BRANCH  10  15
ATOM     15  C   UNL     1      37.469 -26.228 -12.973  0.00  0.00    +0.011 C 
ATOM     16  C   UNL     1      37.838 -26.995 -14.237  0.00  0.00    +0.001 C 
ENDBRANCH  10  15
ENDBRANCH   9  10
ENDBRANCH   1   9
BRANCH   3  17
ATOM     17  C   UNL     1      33.545 -24.490 -16.764  0.00  0.00    +0.120 C 
BRANCH  17  19
ATOM     18  O   UNL     1      32.134 -22.329 -18.021  0.00  0.00    -0.270 OA
ATOM     19  N   UNL     1      34.089 -23.534 -17.694  0.00  0.00    -0.297 N 
ATOM     20  C   UNL     1      33.325 -22.519 -18.254  0.00  0.00    +0.248 C 
ATOM     21  H   UNL     1      35.038 -23.605 -17.945  0.00  0.00    +0.150 HD
BRANCH  20  23
ATOM     22  F   UNL     1      36.140 -22.400 -18.454  0.00  0.00    -0.204 F 
ATOM     23  C   UNL     1      34.026 -21.631 -19.218  0.00  0.00    +0.081 C 
ATOM     24  C   UNL     1      35.419 -21.617 -19.271  0.00  0.00    +0.144 C 
ATOM     25  C   UNL     1      33.286 -20.813 -20.071  0.00  0.00    +0.007 C 
ATOM     26  C   UNL     1      35.335 -19.966 -21.031  0.00  0.00    +0.074 C 
ATOM     27  C   UNL     1      36.075 -20.784 -20.177  0.00  0.00    +0.034 C 
ATOM     28  C   UNL     1      33.941 -19.979 -20.978  0.00  0.00    +0.004 C 
BRANCH  26  32
ATOM     29  F   UNL     1      35.631 -17.771 -21.938  0.00  0.00    -0.166 F 
ATOM     30  F   UNL     1      37.390 -19.036 -21.828  0.00  0.00    -0.166 F 
ATOM     31  F   UNL     1      35.843 -19.456 -23.297  0.00  0.00    -0.166 F 
ATOM     32  C   UNL     1      36.036 -19.075 -22.001  0.00  0.00    +0.419 C 
ENDBRANCH  26  32
ENDBRANCH  20  23
ENDBRANCH  17  19
ENDBRANCH   3  17
TORSDOF 10
ENDMDL
MODEL 8
REMARK VINA RESULT:      -9.9      3.192      5.244
REMARK  Name = 11711595
REMARK  10 active torsions:
REMARK  status: ('A' for Active; 'I' for Inactive)
REMARK    1  A    between atoms: C_1  and  C_9
REMARK    2  A    between atoms: C_3  and  C_17
REMARK    3  A    between atoms: C_5  and  O_7
REMARK    4  A    between atoms: C_9  and  C_10
REMARK    5  A    between atoms: C_10  and  C_12
REMARK    6  A    between atoms: C_10  and  C_15
REMARK    7  A    between atoms: C_12  and  O_13
REMARK    8  A    between atoms: C_17  and  N_19
REMARK    9  A    between atoms: C_20  and  C_23
REMARK   10  A    between atoms: C_26  and  C_32
REMARK                            x       y       z     vdW  Elec       q    Type
REMARK                         _______ _______ _______ _____ _____    ______ ____
ROOT
ATOM      1  C   UNL     1      36.214 -22.509 -17.095  0.00  0.00    -0.022 C 
ATOM      2  C   UNL     1      36.781 -21.760 -18.127  0.00  0.00    -0.004 C 
ATOM      3  C   UNL     1      36.007 -21.390 -19.227  0.00  0.00    +0.031 C 
ATOM      4  C   UNL     1      34.873 -22.888 -17.165  0.00  0.00    -0.001 C 
ATOM      5  C   UNL     1      34.666 -21.769 -19.296  0.00  0.00    +0.136 C 
ATOM      6  C   UNL     1      34.100 -22.519 -18.266  0.00  0.00    +0.036 C 
ENDROOT
BRANCH   5   7
ATOM      7  O   UNL     1      33.897 -21.417 -20.364  0.00  0.00    -0.472 OA
ATOM      8  C   UNL     1      32.742 -20.623 -20.096  0.00  0.00    +0.252 C 
ENDBRANCH   5   7
BRANCH   1   9
ATOM      9  C   UNL     1      37.051 -22.910 -15.904  0.00  0.00    +0.037 C 
BRANCH   9  10
ATOM     10  C   UNL     1      36.438 -24.066 -15.092  0.00  0.00    +0.103 C 
BRANCH  10  12
ATOM     11  O   UNL     1      38.571 -24.859 -14.224  0.00  0.00    -0.250 OA
ATOM     12  C   UNL     1      37.513 -25.102 -14.793  0.00  0.00    +0.314 C 
BRANCH  12  13
ATOM     13  O   UNL     1      37.169 -26.348 -15.206  0.00  0.00    -0.480 OA
ATOM     14  H   UNL     1      37.740 -26.829 -15.773  0.00  0.00    +0.295 HD
ENDBRANCH  12  13
ENDBRANCH  10  12
BRANCH  10  15
ATOM     15  C   UNL     1      35.836 -23.533 -13.779  0.00  0.00    +0.011 C 
ATOM     16  C   UNL     1      35.553 -24.640 -12.771  0.00  0.00    +0.001 C 
ENDBRANCH  10  15
ENDBRANCH   9  10
ENDBRANCH   1   9
BRANCH   3  17
ATOM     17  C   UNL     1      36.631 -20.588 -20.321  0.00  0.00    +0.120 C 
BRANCH  17  19
ATOM     18  O   UNL     1      36.607 -19.050 -22.745  0.00  0.00    -0.270 OA
ATOM     19  N   UNL     1      35.946 -19.340 -20.541  0.00  0.00    -0.297 N 
ATOM     20  C   UNL     1      35.993 -18.665 -21.754  0.00  0.00    +0.248 C 
ATOM     21  H   UNL     1      35.426 -18.949 -19.803  0.00  0.00    +0.150 HD
BRANCH  20  23
ATOM     22  F   UNL     1      35.414 -17.345 -24.182  0.00  0.00    -0.204 F 
ATOM     23  C   UNL     1      35.257 -17.376 -21.812  0.00  0.00    +0.081 C 
ATOM     24  C   UNL     1      35.000 -16.772 -23.042  0.00  0.00    +0.144 C 
ATOM     25  C   UNL     1      34.822 -16.772 -20.633  0.00  0.00    +0.007 C 
ATOM     26  C   UNL     1      33.872 -14.958 -21.915  0.00  0.00    +0.074 C 
ATOM     27  C   UNL     1      34.307 -15.563 -23.094  0.00  0.00    +0.034 C 
ATOM     28  C   UNL     1      34.129 -15.562 -20.684  0.00  0.00    +0.004 C 
BRANCH  26  32
ATOM     29  F   UNL     1      31.947 -13.740 -22.651  0.00  0.00    -0.166 F 
ATOM     30  F   UNL     1      32.803 -13.169 -20.741  0.00  0.00    -0.166 F 
ATOM     31  F   UNL     1      33.844 -12.677 -22.585  0.00  0.00    -0.166 F 
ATOM     32  C   UNL     1      33.130 -13.665 -21.971  0.00  0.00    +0.419 C 
ENDBRANCH  26  32
ENDBRANCH  20  23
ENDBRANCH  17  19
ENDBRANCH   3  17
TORSDOF 10
ENDMDL
MODEL 9
REMARK VINA RESULT:      -9.8      1.806      2.269
REMARK  Name = 11711595
REMARK  10 active torsions:
REMARK  status: ('A' for Active; 'I' for Inactive)
REMARK    1  A    between atoms: C_1  and  C_9
REMARK    2  A    between atoms: C_3  and  C_17
REMARK    3  A    between atoms: C_5  and  O_7
REMARK    4  A    between atoms: C_9  and  C_10
REMARK    5  A    between atoms: C_10  and  C_12
REMARK    6  A    between atoms: C_10  and  C_15
REMARK    7  A    between atoms: C_12  and  O_13
REMARK    8  A    between atoms: C_17  and  N_19
REMARK    9  A    between atoms: C_20  and  C_23
REMARK   10  A    between atoms: C_26  and  C_32
REMARK                            x       y       z     vdW  Elec       q    Type
REMARK                         _______ _______ _______ _____ _____    ______ ____
ROOT
ATOM      1  C   UNL     1      34.096 -24.206 -14.060  0.00  0.00    -0.022 C 
ATOM      2  C   UNL     1      33.639 -24.078 -15.373  0.00  0.00    -0.004 C 
ATOM      3  C   UNL     1      32.322 -23.686 -15.618  0.00  0.00    +0.031 C 
ATOM      4  C   UNL     1      33.236 -23.943 -12.994  0.00  0.00    -0.001 C 
ATOM      5  C   UNL     1      31.463 -23.422 -14.550  0.00  0.00    +0.136 C 
ATOM      6  C   UNL     1      31.920 -23.551 -13.239  0.00  0.00    +0.036 C 
ENDROOT
BRANCH   5   7
ATOM      7  O   UNL     1      30.175 -23.039 -14.772  0.00  0.00    -0.472 OA
ATOM      8  C   UNL     1      29.189 -24.070 -14.804  0.00  0.00    +0.252 C 
ENDBRANCH   5   7
BRANCH   1   9
ATOM      9  C   UNL     1      35.521 -24.631 -13.796  0.00  0.00    +0.037 C 
BRANCH   9  10
ATOM     10  C   UNL     1      36.480 -23.443 -13.590  0.00  0.00    +0.103 C 
BRANCH  10  12
ATOM     11  O   UNL     1      37.865 -22.693 -11.733  0.00  0.00    -0.250 OA
ATOM     12  C   UNL     1      37.028 -23.474 -12.170  0.00  0.00    +0.314 C 
BRANCH  12  13
ATOM     13  O   UNL     1      36.471 -24.454 -11.415  0.00  0.00    -0.480 OA
ATOM     14  H   UNL     1      35.665 -24.297 -10.962  0.00  0.00    +0.295 HD
ENDBRANCH  12  13
ENDBRANCH  10  12
BRANCH  10  15
ATOM     15  C   UNL     1      37.635 -23.510 -14.606  0.00  0.00    +0.011 C 
ATOM     16  C   UNL     1      38.339 -24.862 -14.606  0.00  0.00    +0.001 C 
ENDBRANCH  10  15
ENDBRANCH   9  10
ENDBRANCH   1   9
BRANCH   3  17
ATOM     17  C   UNL     1      31.851 -23.554 -17.028  0.00  0.00    +0.120 C 
BRANCH  17  19
ATOM     18  O   UNL     1      33.728 -24.164 -19.113  0.00  0.00    -0.270 OA
ATOM     19  N   UNL     1      32.637 -22.610 -17.780  0.00  0.00    -0.297 N 
ATOM     20  C   UNL     1      33.524 -23.001 -18.774  0.00  0.00    +0.248 C 
ATOM     21  H   UNL     1      32.544 -21.651 -17.581  0.00  0.00    +0.150 HD
BRANCH  20  23
ATOM     22  F   UNL     1      32.273 -20.995 -20.320  0.00  0.00    -0.204 F 
ATOM     23  C   UNL     1      34.281 -21.909 -19.439  0.00  0.00    +0.081 C 
ATOM     24  C   UNL     1      33.607 -20.946 -20.189  0.00  0.00    +0.144 C 
ATOM     25  C   UNL     1      35.669 -21.849 -19.310  0.00  0.00    +0.007 C 
ATOM     26  C   UNL     1      35.708 -19.861 -20.682  0.00  0.00    +0.074 C 
ATOM     27  C   UNL     1      34.320 -19.921 -20.811  0.00  0.00    +0.034 C 
ATOM     28  C   UNL     1      36.382 -20.825 -19.933  0.00  0.00    +0.004 C 
BRANCH  26  32
ATOM     29  F   UNL     1      37.802 -18.760 -21.040  0.00  0.00    -0.166 F 
ATOM     30  F   UNL     1      36.420 -18.813 -22.711  0.00  0.00    -0.166 F 
ATOM     31  F   UNL     1      36.012 -17.525 -21.007  0.00  0.00    -0.166 F 
ATOM     32  C   UNL     1      36.471 -18.764 -21.347  0.00  0.00    +0.419 C 
ENDBRANCH  26  32
ENDBRANCH  20  23
ENDBRANCH  17  19
ENDBRANCH   3  17
TORSDOF 10
ENDMDL
