MODEL 1
REMARK VINA RESULT:     -12.1      0.000      0.000
REMARK  Name = 71245288
REMARK  5 active torsions:
REMARK  status: ('A' for Active; 'I' for Inactive)
REMARK    1  A    between atoms: C_3  and  C_9
REMARK    2  A    between atoms: C_6  and  N_14
REMARK    3  A    between atoms: C_15  and  C_18
REMARK    4  A    between atoms: C_22  and  C_30
REMARK    5  A    between atoms: N_27  and  C_32
REMARK                            x       y       z     vdW  Elec       q    Type
REMARK                         _______ _______ _______ _____ _____    ______ ____
ROOT
ATOM      1  O   UNL     1      32.876 -22.047 -19.288  0.00  0.00    -0.270 OA
ATOM      2  N   UNL     1      34.476 -22.416 -17.611  0.00  0.00    -0.259 N 
ATOM      3  C   UNL     1      34.026 -21.915 -18.841  0.00  0.00    +0.253 C 
ATOM      4  H   UNL     1      35.418 -22.232 -17.392  0.00  0.00    +0.157 HD
ATOM      5  N   UNL     1      34.391 -23.541 -15.517  0.00  0.00    -0.388 NA
ATOM      6  C   UNL     1      33.660 -24.244 -14.623  0.00  0.00    +0.166 C 
ATOM      7  C   UNL     1      33.753 -23.155 -16.643  0.00  0.00    +0.167 C 
ATOM      8  C   UNL     1      32.326 -24.575 -14.801  0.00  0.00    +0.031 C 
ATOM      9  C   UNL     1      32.423 -23.435 -16.916  0.00  0.00    +0.101 C 
ATOM     10  C   UNL     1      31.703 -24.159 -15.972  0.00  0.00    -0.015 C 
ENDROOT
BRANCH   3  15
ATOM     11  F   UNL     1      36.749 -21.846 -18.156  0.00  0.00    -0.204 F 
ATOM     12  C   UNL     1      35.529 -19.729 -21.486  0.00  0.00    +0.046 C 
ATOM     13  C   UNL     1      36.872 -19.725 -21.106  0.00  0.00    -0.006 C 
ATOM     14  C   UNL     1      34.595 -20.449 -20.741  0.00  0.00    +0.021 C 
ATOM     15  C   UNL     1      35.003 -21.165 -19.616  0.00  0.00    +0.082 C 
ATOM     16  C   UNL     1      37.279 -20.440 -19.980  0.00  0.00    +0.027 C 
ATOM     17  C   UNL     1      37.898 -18.963 -21.881  0.00  0.00    +0.032 C 
ATOM     18  C   UNL     1      36.345 -21.161 -19.236  0.00  0.00    +0.144 C 
BRANCH  12  20
ATOM     19  N   UNL     1      34.166 -18.618 -24.572  0.00  0.00    -0.255 NA
ATOM     20  N   UNL     1      35.104 -19.025 -22.600  0.00  0.00    -0.282 N 
ATOM     21  C   UNL     1      34.687 -17.461 -24.050  0.00  0.00    +0.053 C 
ATOM     22  C   UNL     1      35.274 -17.688 -22.827  0.00  0.00    +0.134 C 
ATOM     23  C   UNL     1      34.433 -19.540 -23.674  0.00  0.00    +0.219 C 
BRANCH  21  24
ATOM     24  C   UNL     1      34.620 -16.104 -24.743  0.00  0.00    +0.037 C 
ATOM     25  C   UNL     1      33.614 -15.099 -24.262  0.00  0.00    +0.006 C 
ATOM     26  C   UNL     1      33.420 -15.784 -25.584  0.00  0.00    +0.006 C 
ENDBRANCH  21  24
ENDBRANCH  12  20
ENDBRANCH   3  15
BRANCH   6  30
ATOM     27  N   UNL     1      35.630 -25.167 -13.446  0.00  0.00    -0.252 N 
ATOM     28  N   UNL     1      33.942 -24.543 -12.201  0.00  0.00    -0.129 NA
ATOM     29  N   UNL     1      34.938 -25.027 -11.376  0.00  0.00    -0.128 NA
ATOM     30  C   UNL     1      34.376 -24.636 -13.437  0.00  0.00    +0.188 C 
ATOM     31  C   UNL     1      35.941 -25.395 -12.139  0.00  0.00    +0.192 C 
BRANCH  27  32
ATOM     32  C   UNL     1      36.475 -25.439 -14.584  0.00  0.00    +0.080 C 
ATOM     33  C   UNL     1      37.817 -24.711 -14.475  0.00  0.00    +0.022 C 
ATOM     34  C   UNL     1      36.685 -26.941 -14.783  0.00  0.00    +0.022 C 
ENDBRANCH  27  32
ENDBRANCH   6  30
TORSDOF 5
ENDMDL
MODEL 2
REMARK VINA RESULT:     -11.8      3.368     11.114
REMARK  Name = 71245288
REMARK  5 active torsions:
REMARK  status: ('A' for Active; 'I' for Inactive)
REMARK    1  A    between atoms: C_3  and  C_9
REMARK    2  A    between atoms: C_6  and  N_14
REMARK    3  A    between atoms: C_15  and  C_18
REMARK    4  A    between atoms: C_22  and  C_30
REMARK    5  A    between atoms: N_27  and  C_32
REMARK                            x       y       z     vdW  Elec       q    Type
REMARK                         _______ _______ _______ _____ _____    ______ ____
ROOT
ATOM      1  O   UNL     1      34.564 -18.925 -24.177  0.00  0.00    -0.270 OA
ATOM      2  N   UNL     1      34.741 -16.955 -22.914  0.00  0.00    -0.259 N 
ATOM      3  C   UNL     1      34.864 -18.336 -23.128  0.00  0.00    +0.253 C 
ATOM      4  H   UNL     1      35.019 -16.633 -22.027  0.00  0.00    +0.157 HD
ATOM      5  N   UNL     1      34.233 -14.680 -23.390  0.00  0.00    -0.388 NA
ATOM      6  C   UNL     1      33.772 -13.771 -24.277  0.00  0.00    +0.166 C 
ATOM      7  C   UNL     1      34.266 -15.964 -23.808  0.00  0.00    +0.167 C 
ATOM      8  C   UNL     1      33.347 -14.084 -25.558  0.00  0.00    +0.031 C 
ATOM      9  C   UNL     1      33.864 -16.380 -25.068  0.00  0.00    +0.101 C 
ATOM     10  C   UNL     1      33.396 -15.416 -25.953  0.00  0.00    -0.015 C 
ENDROOT
BRANCH   3  15
ATOM     11  F   UNL     1      37.600 -18.307 -22.498  0.00  0.00    -0.204 F 
ATOM     12  C   UNL     1      35.095 -20.620 -20.167  0.00  0.00    +0.046 C 
ATOM     13  C   UNL     1      36.462 -20.573 -19.894  0.00  0.00    -0.006 C 
ATOM     14  C   UNL     1      34.571 -19.885 -21.231  0.00  0.00    +0.021 C 
ATOM     15  C   UNL     1      35.414 -19.102 -22.020  0.00  0.00    +0.082 C 
ATOM     16  C   UNL     1      37.305 -19.792 -20.683  0.00  0.00    +0.027 C 
ATOM     17  C   UNL     1      37.057 -21.351 -18.763  0.00  0.00    +0.032 C 
ATOM     18  C   UNL     1      36.780 -19.056 -21.746  0.00  0.00    +0.144 C 
BRANCH  12  20
ATOM     19  N   UNL     1      32.347 -22.174 -18.539  0.00  0.00    -0.255 NA
ATOM     20  N   UNL     1      34.241 -21.391 -19.396  0.00  0.00    -0.282 N 
ATOM     21  C   UNL     1      33.420 -22.843 -18.004  0.00  0.00    +0.053 C 
ATOM     22  C   UNL     1      34.605 -22.374 -18.520  0.00  0.00    +0.134 C 
ATOM     23  C   UNL     1      32.876 -21.307 -19.374  0.00  0.00    +0.219 C 
BRANCH  21  24
ATOM     24  C   UNL     1      33.303 -23.959 -16.971  0.00  0.00    +0.037 C 
ATOM     25  C   UNL     1      32.538 -23.693 -15.707  0.00  0.00    +0.006 C 
ATOM     26  C   UNL     1      34.034 -23.815 -15.669  0.00  0.00    +0.006 C 
ENDBRANCH  21  24
ENDBRANCH  12  20
ENDBRANCH   3  15
BRANCH   6  30
ATOM     27  N   UNL     1      32.993 -11.992 -22.745  0.00  0.00    -0.252 N 
ATOM     28  N   UNL     1      34.447 -11.409 -24.273  0.00  0.00    -0.129 NA
ATOM     29  N   UNL     1      34.134 -10.294 -23.521  0.00  0.00    -0.128 NA
ATOM     30  C   UNL     1      33.753 -12.415 -23.793  0.00  0.00    +0.188 C 
ATOM     31  C   UNL     1      33.262 -10.663 -22.611  0.00  0.00    +0.192 C 
BRANCH  27  32
ATOM     32  C   UNL     1      32.087 -12.766 -21.931  0.00  0.00    +0.080 C 
ATOM     33  C   UNL     1      32.834 -13.555 -20.853  0.00  0.00    +0.022 C 
ATOM     34  C   UNL     1      31.000 -11.887 -21.308  0.00  0.00    +0.022 C 
ENDBRANCH  27  32
ENDBRANCH   6  30
TORSDOF 5
ENDMDL
MODEL 3
REMARK VINA RESULT:     -11.7      5.640      9.481
REMARK  Name = 71245288
REMARK  5 active torsions:
REMARK  status: ('A' for Active; 'I' for Inactive)
REMARK    1  A    between atoms: C_3  and  C_9
REMARK    2  A    between atoms: C_6  and  N_14
REMARK    3  A    between atoms: C_15  and  C_18
REMARK    4  A    between atoms: C_22  and  C_30
REMARK    5  A    between atoms: N_27  and  C_32
REMARK                            x       y       z     vdW  Elec       q    Type
REMARK                         _______ _______ _______ _____ _____    ______ ____
ROOT
ATOM      1  O   UNL     1      33.053 -14.325 -23.710  0.00  0.00    -0.270 OA
ATOM      2  N   UNL     1      33.901 -15.286 -21.744  0.00  0.00    -0.259 N 
ATOM      3  C   UNL     1      33.247 -14.291 -22.485  0.00  0.00    +0.253 C 
ATOM      4  H   UNL     1      33.980 -15.118 -20.778  0.00  0.00    +0.157 HD
ATOM      5  N   UNL     1      35.052 -17.321 -21.308  0.00  0.00    -0.388 NA
ATOM      6  C   UNL     1      35.575 -18.469 -21.794  0.00  0.00    +0.166 C 
ATOM      7  C   UNL     1      34.464 -16.501 -22.205  0.00  0.00    +0.167 C 
ATOM      8  C   UNL     1      35.536 -18.833 -23.131  0.00  0.00    +0.031 C 
ATOM      9  C   UNL     1      34.373 -16.773 -23.561  0.00  0.00    +0.101 C 
ATOM     10  C   UNL     1      34.922 -17.963 -24.025  0.00  0.00    -0.015 C 
ENDROOT
BRANCH   3  15
ATOM     11  F   UNL     1      32.363 -14.542 -19.831  0.00  0.00    -0.204 F 
ATOM     12  C   UNL     1      32.221 -10.803 -21.580  0.00  0.00    +0.046 C 
ATOM     13  C   UNL     1      31.792 -10.979 -20.264  0.00  0.00    -0.006 C 
ATOM     14  C   UNL     1      32.698 -11.892 -22.309  0.00  0.00    +0.021 C 
ATOM     15  C   UNL     1      32.748 -13.157 -21.722  0.00  0.00    +0.082 C 
ATOM     16  C   UNL     1      31.841 -12.243 -19.677  0.00  0.00    +0.027 C 
ATOM     17  C   UNL     1      31.273  -9.833 -19.455  0.00  0.00    +0.032 C 
ATOM     18  C   UNL     1      32.320 -13.332 -20.406  0.00  0.00    +0.144 C 
BRANCH  12  20
ATOM     19  N   UNL     1      31.373  -7.798 -23.273  0.00  0.00    -0.255 NA
ATOM     20  N   UNL     1      32.180  -9.557 -22.181  0.00  0.00    -0.282 N 
ATOM     21  C   UNL     1      32.688  -7.586 -22.943  0.00  0.00    +0.053 C 
ATOM     22  C   UNL     1      33.210  -8.663 -22.265  0.00  0.00    +0.134 C 
ATOM     23  C   UNL     1      31.098  -8.993 -22.800  0.00  0.00    +0.219 C 
BRANCH  21  24
ATOM     24  C   UNL     1      33.462  -6.318 -23.287  0.00  0.00    +0.037 C 
ATOM     25  C   UNL     1      32.789  -5.268 -24.123  0.00  0.00    +0.006 C 
ATOM     26  C   UNL     1      33.894  -6.100 -24.707  0.00  0.00    +0.006 C 
ENDBRANCH  21  24
ENDBRANCH  12  20
ENDBRANCH   3  15
BRANCH   6  30
ATOM     27  N   UNL     1      35.586 -20.394 -20.241  0.00  0.00    -0.252 N 
ATOM     28  N   UNL     1      37.403 -19.178 -20.315  0.00  0.00    -0.129 NA
ATOM     29  N   UNL     1      37.596 -20.195 -19.401  0.00  0.00    -0.128 NA
ATOM     30  C   UNL     1      36.193 -19.314 -20.806  0.00  0.00    +0.188 C 
ATOM     31  C   UNL     1      36.497 -20.913 -19.372  0.00  0.00    +0.192 C 
BRANCH  27  32
ATOM     32  C   UNL     1      34.260 -20.904 -20.494  0.00  0.00    +0.080 C 
ATOM     33  C   UNL     1      33.900 -22.038 -19.530  0.00  0.00    +0.022 C 
ATOM     34  C   UNL     1      33.210 -19.792 -20.443  0.00  0.00    +0.022 C 
ENDBRANCH  27  32
ENDBRANCH   6  30
TORSDOF 5
ENDMDL
MODEL 4
REMARK VINA RESULT:     -11.1      2.932      5.319
REMARK  Name = 71245288
REMARK  5 active torsions:
REMARK  status: ('A' for Active; 'I' for Inactive)
REMARK    1  A    between atoms: C_3  and  C_9
REMARK    2  A    between atoms: C_6  and  N_14
REMARK    3  A    between atoms: C_15  and  C_18
REMARK    4  A    between atoms: C_22  and  C_30
REMARK    5  A    between atoms: N_27  and  C_32
REMARK                            x       y       z     vdW  Elec       q    Type
REMARK                         _______ _______ _______ _____ _____    ______ ____
ROOT
ATOM      1  O   UNL     1      37.003 -19.003 -21.933  0.00  0.00    -0.270 OA
ATOM      2  N   UNL     1      34.917 -19.681 -21.097  0.00  0.00    -0.259 N 
ATOM      3  C   UNL     1      35.763 -18.947 -21.942  0.00  0.00    +0.253 C 
ATOM      4  H   UNL     1      33.953 -19.530 -21.222  0.00  0.00    +0.157 HD
ATOM      5  N   UNL     1      34.282 -21.208 -19.387  0.00  0.00    -0.388 NA
ATOM      6  C   UNL     1      34.667 -22.086 -18.435  0.00  0.00    +0.166 C 
ATOM      7  C   UNL     1      35.270 -20.610 -20.088  0.00  0.00    +0.167 C 
ATOM      8  C   UNL     1      35.988 -22.394 -18.153  0.00  0.00    +0.031 C 
ATOM      9  C   UNL     1      36.620 -20.849 -19.883  0.00  0.00    +0.101 C 
ATOM     10  C   UNL     1      36.977 -21.759 -18.895  0.00  0.00    -0.015 C 
ENDROOT
BRANCH   3  15
ATOM     11  F   UNL     1      35.069 -19.830 -24.516  0.00  0.00    -0.204 F 
ATOM     12  C   UNL     1      34.156 -15.936 -23.486  0.00  0.00    +0.046 C 
ATOM     13  C   UNL     1      33.831 -16.421 -24.754  0.00  0.00    -0.006 C 
ATOM     14  C   UNL     1      34.791 -16.767 -22.563  0.00  0.00    +0.021 C 
ATOM     15  C   UNL     1      35.101 -18.083 -22.907  0.00  0.00    +0.082 C 
ATOM     16  C   UNL     1      34.142 -17.736 -25.098  0.00  0.00    +0.027 C 
ATOM     17  C   UNL     1      33.152 -15.557 -25.767  0.00  0.00    +0.032 C 
ATOM     18  C   UNL     1      34.777 -18.567 -24.174  0.00  0.00    +0.144 C 
BRANCH  12  20
ATOM     19  N   UNL     1      33.802 -12.414 -23.198  0.00  0.00    -0.255 NA
ATOM     20  N   UNL     1      33.857 -14.633 -23.125  0.00  0.00    -0.282 N 
ATOM     21  C   UNL     1      33.102 -12.867 -22.109  0.00  0.00    +0.053 C 
ATOM     22  C   UNL     1      33.122 -14.241 -22.042  0.00  0.00    +0.134 C 
ATOM     23  C   UNL     1      34.244 -13.502 -23.789  0.00  0.00    +0.219 C 
BRANCH  21  24
ATOM     24  C   UNL     1      32.396 -11.959 -21.107  0.00  0.00    +0.037 C 
ATOM     25  C   UNL     1      31.577 -12.587 -20.018  0.00  0.00    +0.006 C 
ATOM     26  C   UNL     1      30.899 -11.868 -21.147  0.00  0.00    +0.006 C 
ENDBRANCH  21  24
ENDBRANCH  12  20
ENDBRANCH   3  15
BRANCH   6  30
ATOM     27  N   UNL     1      33.744 -23.412 -16.562  0.00  0.00    -0.252 N 
ATOM     28  N   UNL     1      32.313 -22.669 -18.041  0.00  0.00    -0.129 NA
ATOM     29  N   UNL     1      31.619 -23.379 -17.082  0.00  0.00    -0.128 NA
ATOM     30  C   UNL     1      33.585 -22.701 -17.712  0.00  0.00    +0.188 C 
ATOM     31  C   UNL     1      32.493 -23.816 -16.204  0.00  0.00    +0.192 C 
BRANCH  27  32
ATOM     32  C   UNL     1      34.967 -23.692 -15.850  0.00  0.00    +0.080 C 
ATOM     33  C   UNL     1      35.205 -22.685 -14.721  0.00  0.00    +0.022 C 
ATOM     34  C   UNL     1      34.991 -25.126 -15.314  0.00  0.00    +0.022 C 
ENDBRANCH  27  32
ENDBRANCH   6  30
TORSDOF 5
ENDMDL
MODEL 5
REMARK VINA RESULT:     -10.8      1.650     10.716
REMARK  Name = 71245288
REMARK  5 active torsions:
REMARK  status: ('A' for Active; 'I' for Inactive)
REMARK    1  A    between atoms: C_3  and  C_9
REMARK    2  A    between atoms: C_6  and  N_14
REMARK    3  A    between atoms: C_15  and  C_18
REMARK    4  A    between atoms: C_22  and  C_30
REMARK    5  A    between atoms: N_27  and  C_32
REMARK                            x       y       z     vdW  Elec       q    Type
REMARK                         _______ _______ _______ _____ _____    ______ ____
ROOT
ATOM      1  O   UNL     1      36.835 -21.760 -18.141  0.00  0.00    -0.270 OA
ATOM      2  N   UNL     1      35.111 -21.020 -19.551  0.00  0.00    -0.259 N 
ATOM      3  C   UNL     1      35.636 -21.730 -18.462  0.00  0.00    +0.253 C 
ATOM      4  H   UNL     1      34.138 -21.093 -19.680  0.00  0.00    +0.157 HD
ATOM      5  N   UNL     1      35.085 -19.614 -21.470  0.00  0.00    -0.388 NA
ATOM      6  C   UNL     1      35.784 -18.854 -22.342  0.00  0.00    +0.166 C 
ATOM      7  C   UNL     1      35.798 -20.212 -20.490  0.00  0.00    +0.167 C 
ATOM      8  C   UNL     1      37.155 -18.664 -22.280  0.00  0.00    +0.031 C 
ATOM      9  C   UNL     1      37.170 -20.086 -20.341  0.00  0.00    +0.101 C 
ATOM     10  C   UNL     1      37.854 -19.295 -21.257  0.00  0.00    -0.015 C 
ENDROOT
BRANCH   3  15
ATOM     11  F   UNL     1      32.979 -22.115 -19.285  0.00  0.00    -0.204 F 
ATOM     12  C   UNL     1      34.130 -23.685 -15.643  0.00  0.00    +0.046 C 
ATOM     13  C   UNL     1      32.821 -23.850 -16.095  0.00  0.00    -0.006 C 
ATOM     14  C   UNL     1      35.055 -22.988 -16.421  0.00  0.00    +0.021 C 
ATOM     15  C   UNL     1      34.670 -22.456 -17.652  0.00  0.00    +0.082 C 
ATOM     16  C   UNL     1      32.436 -23.318 -17.325  0.00  0.00    +0.027 C 
ATOM     17  C   UNL     1      31.805 -24.590 -15.285  0.00  0.00    +0.032 C 
ATOM     18  C   UNL     1      33.361 -22.621 -18.104  0.00  0.00    +0.144 C 
BRANCH  12  20
ATOM     19  N   UNL     1      34.464 -24.763 -12.275  0.00  0.00    -0.255 NA
ATOM     20  N   UNL     1      34.533 -24.205 -14.424  0.00  0.00    -0.282 N 
ATOM     21  C   UNL     1      35.655 -25.162 -12.829  0.00  0.00    +0.053 C 
ATOM     22  C   UNL     1      35.721 -24.826 -14.161  0.00  0.00    +0.134 C 
ATOM     23  C   UNL     1      33.812 -24.191 -13.262  0.00  0.00    +0.219 C 
BRANCH  21  24
ATOM     24  C   UNL     1      36.757 -25.882 -12.059  0.00  0.00    +0.037 C 
ATOM     25  C   UNL     1      38.019 -25.135 -11.738  0.00  0.00    +0.006 C 
ATOM     26  C   UNL     1      38.032 -26.222 -12.773  0.00  0.00    +0.006 C 
ENDBRANCH  21  24
ENDBRANCH  12  20
ENDBRANCH   3  15
BRANCH   6  30
ATOM     27  N   UNL     1      34.651 -16.916 -23.381  0.00  0.00    -0.252 N 
ATOM     28  N   UNL     1      34.482 -18.831 -24.425  0.00  0.00    -0.129 NA
ATOM     29  N   UNL     1      33.793 -17.878 -25.148  0.00  0.00    -0.128 NA
ATOM     30  C   UNL     1      34.988 -18.235 -23.370  0.00  0.00    +0.188 C 
ATOM     31  C   UNL     1      33.907 -16.737 -24.508  0.00  0.00    +0.192 C 
BRANCH  27  32
ATOM     32  C   UNL     1      34.998 -15.899 -22.417  0.00  0.00    +0.080 C 
ATOM     33  C   UNL     1      34.584 -14.505 -22.896  0.00  0.00    +0.022 C 
ATOM     34  C   UNL     1      34.402 -16.202 -21.041  0.00  0.00    +0.022 C 
ENDBRANCH  27  32
ENDBRANCH   6  30
TORSDOF 5
ENDMDL
MODEL 6
REMARK VINA RESULT:     -10.8      6.397     12.425
REMARK  Name = 71245288
REMARK  5 active torsions:
REMARK  status: ('A' for Active; 'I' for Inactive)
REMARK    1  A    between atoms: C_3  and  C_9
REMARK    2  A    between atoms: C_6  and  N_14
REMARK    3  A    between atoms: C_15  and  C_18
REMARK    4  A    between atoms: C_22  and  C_30
REMARK    5  A    between atoms: N_27  and  C_32
REMARK                            x       y       z     vdW  Elec       q    Type
REMARK                         _______ _______ _______ _____ _____    ______ ____
ROOT
ATOM      1  O   UNL     1      32.051 -14.781 -19.525  0.00  0.00    -0.270 OA
ATOM      2  N   UNL     1      32.855 -12.917 -20.703  0.00  0.00    -0.259 N 
ATOM      3  C   UNL     1      32.725 -14.289 -20.444  0.00  0.00    +0.253 C 
ATOM      4  H   UNL     1      33.426 -12.679 -21.469  0.00  0.00    +0.157 HD
ATOM      5  N   UNL     1      32.534 -10.575 -20.435  0.00  0.00    -0.388 NA
ATOM      6  C   UNL     1      31.956  -9.571 -19.739  0.00  0.00    +0.166 C 
ATOM      7  C   UNL     1      32.272 -11.830 -20.008  0.00  0.00    +0.167 C 
ATOM      8  C   UNL     1      31.131  -9.762 -18.642  0.00  0.00    +0.031 C 
ATOM      9  C   UNL     1      31.462 -12.127 -18.923  0.00  0.00    +0.101 C 
ATOM     10  C   UNL     1      30.884 -11.067 -18.233  0.00  0.00    -0.015 C 
ENDROOT
BRANCH   3  15
ATOM     11  F   UNL     1      32.902 -13.772 -23.198  0.00  0.00    -0.204 F 
ATOM     12  C   UNL     1      34.720 -17.182 -21.742  0.00  0.00    +0.046 C 
ATOM     13  C   UNL     1      34.780 -16.883 -23.104  0.00  0.00    -0.006 C 
ATOM     14  C   UNL     1      34.044 -16.330 -20.869  0.00  0.00    +0.021 C 
ATOM     15  C   UNL     1      33.429 -15.177 -21.357  0.00  0.00    +0.082 C 
ATOM     16  C   UNL     1      34.164 -15.731 -23.591  0.00  0.00    +0.027 C 
ATOM     17  C   UNL     1      35.494 -17.776 -24.067  0.00  0.00    +0.032 C 
ATOM     18  C   UNL     1      33.489 -14.878 -22.718  0.00  0.00    +0.144 C 
BRANCH  12  20
ATOM     19  N   UNL     1      36.922 -19.679 -20.503  0.00  0.00    -0.255 NA
ATOM     20  N   UNL     1      35.324 -18.322 -21.237  0.00  0.00    -0.282 N 
ATOM     21  C   UNL     1      35.705 -20.312 -20.455  0.00  0.00    +0.053 C 
ATOM     22  C   UNL     1      34.699 -19.491 -20.905  0.00  0.00    +0.134 C 
ATOM     23  C   UNL     1      36.657 -18.483 -20.979  0.00  0.00    +0.219 C 
BRANCH  21  24
ATOM     24  C   UNL     1      35.505 -21.743 -19.963  0.00  0.00    +0.037 C 
ATOM     25  C   UNL     1      34.376 -22.028 -19.017  0.00  0.00    +0.006 C 
ATOM     26  C   UNL     1      35.794 -22.057 -18.525  0.00  0.00    +0.006 C 
ENDBRANCH  21  24
ENDBRANCH  12  20
ENDBRANCH   3  15
BRANCH   6  30
ATOM     27  N   UNL     1      32.010  -7.831 -21.497  0.00  0.00    -0.252 N 
ATOM     28  N   UNL     1      32.810  -7.276 -19.537  0.00  0.00    -0.129 NA
ATOM     29  N   UNL     1      32.924  -6.188 -20.379  0.00  0.00    -0.128 NA
ATOM     30  C   UNL     1      32.261  -8.251 -20.226  0.00  0.00    +0.188 C 
ATOM     31  C   UNL     1      32.439  -6.539 -21.547  0.00  0.00    +0.192 C 
BRANCH  27  32
ATOM     32  C   UNL     1      31.415  -8.575 -22.580  0.00  0.00    +0.080 C 
ATOM     33  C   UNL     1      30.564  -7.676 -23.481  0.00  0.00    +0.022 C 
ATOM     34  C   UNL     1      32.471  -9.322 -23.397  0.00  0.00    +0.022 C 
ENDBRANCH  27  32
ENDBRANCH   6  30
TORSDOF 5
ENDMDL
MODEL 7
REMARK VINA RESULT:     -10.7      2.767     10.845
REMARK  Name = 71245288
REMARK  5 active torsions:
REMARK  status: ('A' for Active; 'I' for Inactive)
REMARK    1  A    between atoms: C_3  and  C_9
REMARK    2  A    between atoms: C_6  and  N_14
REMARK    3  A    between atoms: C_15  and  C_18
REMARK    4  A    between atoms: C_22  and  C_30
REMARK    5  A    between atoms: N_27  and  C_32
REMARK                            x       y       z     vdW  Elec       q    Type
REMARK                         _______ _______ _______ _____ _____    ______ ____
ROOT
ATOM      1  O   UNL     1      36.010 -20.695 -21.404  0.00  0.00    -0.270 OA
ATOM      2  N   UNL     1      34.574 -19.075 -20.498  0.00  0.00    -0.259 N 
ATOM      3  C   UNL     1      35.188 -20.335 -20.547  0.00  0.00    +0.253 C 
ATOM      4  H   UNL     1      33.941 -18.937 -19.757  0.00  0.00    +0.157 HD
ATOM      5  N   UNL     1      34.045 -16.847 -21.139  0.00  0.00    -0.388 NA
ATOM      6  C   UNL     1      34.240 -15.826 -22.003  0.00  0.00    +0.166 C 
ATOM      7  C   UNL     1      34.744 -17.978 -21.376  0.00  0.00    +0.167 C 
ATOM      8  C   UNL     1      35.099 -15.884 -23.089  0.00  0.00    +0.031 C 
ATOM      9  C   UNL     1      35.628 -18.136 -22.433  0.00  0.00    +0.101 C 
ATOM     10  C   UNL     1      35.803 -17.064 -23.301  0.00  0.00    -0.015 C 
ENDROOT
BRANCH   3  15
ATOM     11  F   UNL     1      32.593 -21.374 -20.273  0.00  0.00    -0.204 F 
ATOM     12  C   UNL     1      35.452 -22.537 -17.528  0.00  0.00    +0.046 C 
ATOM     13  C   UNL     1      34.148 -23.026 -17.433  0.00  0.00    -0.006 C 
ATOM     14  C   UNL     1      35.792 -21.653 -18.551  0.00  0.00    +0.021 C 
ATOM     15  C   UNL     1      34.830 -21.258 -19.481  0.00  0.00    +0.082 C 
ATOM     16  C   UNL     1      33.186 -22.631 -18.361  0.00  0.00    +0.027 C 
ATOM     17  C   UNL     1      33.750 -23.974 -16.348  0.00  0.00    +0.032 C 
ATOM     18  C   UNL     1      33.527 -21.747 -19.386  0.00  0.00    +0.144 C 
BRANCH  12  20
ATOM     19  N   UNL     1      38.404 -23.055 -15.622  0.00  0.00    -0.255 NA
ATOM     20  N   UNL     1      36.422 -22.917 -16.616  0.00  0.00    -0.282 N 
ATOM     21  C   UNL     1      37.484 -23.818 -14.948  0.00  0.00    +0.053 C 
ATOM     22  C   UNL     1      36.248 -23.749 -15.546  0.00  0.00    +0.134 C 
ATOM     23  C   UNL     1      37.732 -22.525 -16.620  0.00  0.00    +0.219 C 
BRANCH  21  24
ATOM     24  C   UNL     1      37.801 -24.635 -13.700  0.00  0.00    +0.037 C 
ATOM     25  C   UNL     1      38.831 -25.723 -13.793  0.00  0.00    +0.006 C 
ATOM     26  C   UNL     1      37.379 -26.074 -13.654  0.00  0.00    +0.006 C 
ENDBRANCH  21  24
ENDBRANCH  12  20
ENDBRANCH   3  15
BRANCH   6  30
ATOM     27  N   UNL     1      33.299 -13.616 -22.595  0.00  0.00    -0.252 N 
ATOM     28  N   UNL     1      32.850 -14.374 -20.592  0.00  0.00    -0.129 NA
ATOM     29  N   UNL     1      32.246 -13.141 -20.737  0.00  0.00    -0.128 NA
ATOM     30  C   UNL     1      33.476 -14.640 -21.715  0.00  0.00    +0.188 C 
ATOM     31  C   UNL     1      32.526 -12.703 -21.944  0.00  0.00    +0.192 C 
BRANCH  27  32
ATOM     32  C   UNL     1      33.809 -13.498 -23.940  0.00  0.00    +0.080 C 
ATOM     33  C   UNL     1      32.889 -14.185 -24.953  0.00  0.00    +0.022 C 
ATOM     34  C   UNL     1      34.048 -12.037 -24.324  0.00  0.00    +0.022 C 
ENDBRANCH  27  32
ENDBRANCH   6  30
TORSDOF 5
ENDMDL
MODEL 8
REMARK VINA RESULT:     -10.6      2.001     10.630
REMARK  Name = 71245288
REMARK  5 active torsions:
REMARK  status: ('A' for Active; 'I' for Inactive)
REMARK    1  A    between atoms: C_3  and  C_9
REMARK    2  A    between atoms: C_6  and  N_14
REMARK    3  A    between atoms: C_15  and  C_18
REMARK    4  A    between atoms: C_22  and  C_30
REMARK    5  A    between atoms: N_27  and  C_32
REMARK                            x       y       z     vdW  Elec       q    Type
REMARK                         _______ _______ _______ _____ _____    ______ ____
ROOT
ATOM      1  O   UNL     1      36.603 -22.207 -19.531  0.00  0.00    -0.270 OA
ATOM      2  N   UNL     1      35.020 -20.476 -19.595  0.00  0.00    -0.259 N 
ATOM      3  C   UNL     1      35.537 -21.700 -19.147  0.00  0.00    +0.253 C 
ATOM      4  H   UNL     1      34.161 -20.204 -19.199  0.00  0.00    +0.157 HD
ATOM      5  N   UNL     1      34.895 -18.446 -20.829  0.00  0.00    -0.388 NA
ATOM      6  C   UNL     1      35.460 -17.623 -21.741  0.00  0.00    +0.166 C 
ATOM      7  C   UNL     1      35.570 -19.581 -20.545  0.00  0.00    +0.167 C 
ATOM      8  C   UNL     1      36.663 -17.881 -22.378  0.00  0.00    +0.031 C 
ATOM      9  C   UNL     1      36.779 -19.931 -21.125  0.00  0.00    +0.101 C 
ATOM     10  C   UNL     1      37.329 -19.059 -22.059  0.00  0.00    -0.015 C 
ENDROOT
BRANCH   3  15
ATOM     11  F   UNL     1      32.735 -21.839 -19.266  0.00  0.00    -0.204 F 
ATOM     12  C   UNL     1      34.638 -23.671 -16.091  0.00  0.00    +0.046 C 
ATOM     13  C   UNL     1      33.247 -23.713 -16.194  0.00  0.00    -0.006 C 
ATOM     14  C   UNL     1      35.389 -23.009 -17.062  0.00  0.00    +0.021 C 
ATOM     15  C   UNL     1      34.750 -22.389 -18.136  0.00  0.00    +0.082 C 
ATOM     16  C   UNL     1      32.608 -23.092 -17.267  0.00  0.00    +0.027 C 
ATOM     17  C   UNL     1      32.412 -24.412 -15.170  0.00  0.00    +0.032 C 
ATOM     18  C   UNL     1      33.360 -22.431 -18.238  0.00  0.00    +0.144 C 
BRANCH  12  20
ATOM     19  N   UNL     1      36.294 -25.862 -13.840  0.00  0.00    -0.255 NA
ATOM     20  N   UNL     1      35.292 -24.280 -15.033  0.00  0.00    -0.282 N 
ATOM     21  C   UNL     1      36.266 -24.686 -13.134  0.00  0.00    +0.053 C 
ATOM     22  C   UNL     1      35.649 -23.690 -13.854  0.00  0.00    +0.134 C 
ATOM     23  C   UNL     1      35.701 -25.584 -14.979  0.00  0.00    +0.219 C 
BRANCH  21  24
ATOM     24  C   UNL     1      36.845 -24.514 -11.733  0.00  0.00    +0.037 C 
ATOM     25  C   UNL     1      37.130 -23.127 -11.236  0.00  0.00    +0.006 C 
ATOM     26  C   UNL     1      38.263 -24.044 -11.593  0.00  0.00    +0.006 C 
ENDBRANCH  21  24
ENDBRANCH  12  20
ENDBRANCH   3  15
BRANCH   6  30
ATOM     27  N   UNL     1      34.358 -16.017 -23.267  0.00  0.00    -0.252 N 
ATOM     28  N   UNL     1      34.259 -15.570 -21.127  0.00  0.00    -0.129 NA
ATOM     29  N   UNL     1      33.596 -14.572 -21.812  0.00  0.00    -0.128 NA
ATOM     30  C   UNL     1      34.709 -16.426 -22.016  0.00  0.00    +0.188 C 
ATOM     31  C   UNL     1      33.665 -14.858 -23.092  0.00  0.00    +0.192 C 
BRANCH  27  32
ATOM     32  C   UNL     1      34.644 -16.659 -24.527  0.00  0.00    +0.080 C 
ATOM     33  C   UNL     1      34.234 -18.134 -24.514  0.00  0.00    +0.022 C 
ATOM     34  C   UNL     1      33.988 -15.921 -25.696  0.00  0.00    +0.022 C 
ENDBRANCH  27  32
ENDBRANCH   6  30
TORSDOF 5
ENDMDL
MODEL 9
REMARK VINA RESULT:     -10.3      5.906     12.416
REMARK  Name = 71245288
REMARK  5 active torsions:
REMARK  status: ('A' for Active; 'I' for Inactive)
REMARK    1  A    between atoms: C_3  and  C_9
REMARK    2  A    between atoms: C_6  and  N_14
REMARK    3  A    between atoms: C_15  and  C_18
REMARK    4  A    between atoms: C_22  and  C_30
REMARK    5  A    between atoms: N_27  and  C_32
REMARK                            x       y       z     vdW  Elec       q    Type
REMARK                         _______ _______ _______ _____ _____    ______ ____
ROOT
ATOM      1  O   UNL     1      32.924 -14.996 -19.524  0.00  0.00    -0.270 OA
ATOM      2  N   UNL     1      32.956 -13.569 -21.386  0.00  0.00    -0.259 N 
ATOM      3  C   UNL     1      33.227 -14.764 -20.704  0.00  0.00    +0.253 C 
ATOM      4  H   UNL     1      33.258 -13.532 -22.322  0.00  0.00    +0.157 HD
ATOM      5  N   UNL     1      32.151 -11.359 -21.742  0.00  0.00    -0.388 NA
ATOM      6  C   UNL     1      31.525 -10.272 -21.236  0.00  0.00    +0.166 C 
ATOM      7  C   UNL     1      32.307 -12.407 -20.903  0.00  0.00    +0.167 C 
ATOM      8  C   UNL     1      31.049 -10.186 -19.937  0.00  0.00    +0.031 C 
ATOM      9  C   UNL     1      31.867 -12.420 -19.589  0.00  0.00    +0.101 C 
ATOM     10  C   UNL     1      31.227 -11.284 -19.104  0.00  0.00    -0.015 C 
ENDROOT
BRANCH   3  15
ATOM     11  F   UNL     1      33.608 -14.548 -23.478  0.00  0.00    -0.204 F 
ATOM     12  C   UNL     1      35.002 -17.943 -21.585  0.00  0.00    +0.046 C 
ATOM     13  C   UNL     1      35.168 -17.790 -22.962  0.00  0.00    -0.006 C 
ATOM     14  C   UNL     1      34.364 -16.948 -20.844  0.00  0.00    +0.021 C 
ATOM     15  C   UNL     1      33.892 -15.800 -21.480  0.00  0.00    +0.082 C 
ATOM     16  C   UNL     1      34.695 -16.643 -23.597  0.00  0.00    +0.027 C 
ATOM     17  C   UNL     1      35.846 -18.838 -23.786  0.00  0.00    +0.032 C 
ATOM     18  C   UNL     1      34.057 -15.647 -22.856  0.00  0.00    +0.144 C 
BRANCH  12  20
ATOM     19  N   UNL     1      36.869 -20.470 -19.928  0.00  0.00    -0.255 NA
ATOM     20  N   UNL     1      35.463 -19.075 -20.935  0.00  0.00    -0.282 N 
ATOM     21  C   UNL     1      35.611 -21.018 -19.973  0.00  0.00    +0.053 C 
ATOM     22  C   UNL     1      34.722 -20.172 -20.592  0.00  0.00    +0.134 C 
ATOM     23  C   UNL     1      36.745 -19.301 -20.515  0.00  0.00    +0.219 C 
BRANCH  21  24
ATOM     24  C   UNL     1      35.256 -22.389 -19.406  0.00  0.00    +0.037 C 
ATOM     25  C   UNL     1      33.939 -22.559 -18.705  0.00  0.00    +0.006 C 
ATOM     26  C   UNL     1      35.217 -22.565 -17.917  0.00  0.00    +0.006 C 
ENDBRANCH  21  24
ENDBRANCH  12  20
ENDBRANCH   3  15
BRANCH   6  30
ATOM     27  N   UNL     1      32.269  -8.154 -22.275  0.00  0.00    -0.252 N 
ATOM     28  N   UNL     1      30.395  -9.008 -23.013  0.00  0.00    -0.129 NA
ATOM     29  N   UNL     1      30.644  -7.840 -23.705  0.00  0.00    -0.128 NA
ATOM     30  C   UNL     1      31.380  -9.179 -22.161  0.00  0.00    +0.188 C 
ATOM     31  C   UNL     1      31.771  -7.343 -23.249  0.00  0.00    +0.192 C 
BRANCH  27  32
ATOM     32  C   UNL     1      33.490  -7.948 -21.534  0.00  0.00    +0.080 C 
ATOM     33  C   UNL     1      34.538  -7.208 -22.370  0.00  0.00    +0.022 C 
ATOM     34  C   UNL     1      33.232  -7.217 -20.215  0.00  0.00    +0.022 C 
ENDBRANCH  27  32
ENDBRANCH   6  30
TORSDOF 5
ENDMDL
