MODEL 1
REMARK VINA RESULT:     -11.5      0.000      0.000
REMARK  Name = 446129
REMARK  7 active torsions:
REMARK  status: ('A' for Active; 'I' for Inactive)
REMARK    1  A    between atoms: C_1  and  O_2
REMARK    2  A    between atoms: C_1  and  C_4
REMARK    3  A    between atoms: C_1  and  C_18
REMARK    4  A    between atoms: C_4  and  N_5
REMARK    5  A    between atoms: C_18  and  O_19
REMARK    6  A    between atoms: O_19  and  C_23
REMARK    7  A    between atoms: C_20  and  C_26
REMARK                            x       y       z     vdW  Elec       q    Type
REMARK                         _______ _______ _______ _____ _____    ______ ____
ROOT
ATOM      1  C   UNL     1      35.833 -18.287 -21.888  0.00  0.00    +0.133 C 
ENDROOT
BRANCH   1   2
ATOM      2  O   UNL     1      37.191 -18.666 -22.124  0.00  0.00    -0.383 OA
ATOM      3  H   UNL     1      37.765 -18.239 -21.468  0.00  0.00    +0.210 HD
ENDBRANCH   1   2
BRANCH   1   4
ATOM      4  C   UNL     1      35.328 -17.532 -23.120  0.00  0.00    -0.043 C 
BRANCH   4   5
ATOM      5  N   UNL     1      35.012 -16.136 -22.818  0.00  0.00    +0.391 N 
ATOM      6  N   UNL     1      33.345 -13.945 -22.057  0.00  0.00    -0.298 N 
ATOM      7  C   UNL     1      34.552 -15.999 -21.431  0.00  0.00    -0.055 C 
ATOM      8  C   UNL     1      33.985 -15.631 -23.737  0.00  0.00    -0.055 C 
ATOM      9  C   UNL     1      34.273 -14.534 -21.086  0.00  0.00    +0.069 C 
ATOM     10  C   UNL     1      33.686 -14.153 -23.470  0.00  0.00    +0.069 C 
ATOM     11  H   UNL     1      35.862 -15.584 -22.940  0.00  0.00    -0.079 HD
ATOM     12  N   UNL     1      32.767 -11.653 -22.459  0.00  0.00    -0.229 NA
ATOM     13  C   UNL     1      32.623 -12.795 -21.719  0.00  0.00    +0.132 C 
ATOM     14  C   UNL     1      31.762 -12.848 -20.613  0.00  0.00    +0.034 C 
ATOM     15  C   UNL     1      31.038 -11.713 -20.264  0.00  0.00    +0.004 C 
ATOM     16  C   UNL     1      32.047 -10.570 -22.089  0.00  0.00    +0.100 C 
ATOM     17  C   UNL     1      31.177 -10.549 -21.011  0.00  0.00    +0.021 C 
ENDBRANCH   4   5
ENDBRANCH   1   4
BRANCH   1  18
ATOM     18  C   UNL     1      35.022 -19.543 -21.575  0.00  0.00    +0.232 C 
BRANCH  18  19
ATOM     19  O   UNL     1      35.844 -20.454 -20.852  0.00  0.00    -0.473 OA
BRANCH  19  23
ATOM     20  C   UNL     1      33.993 -22.691 -17.886  0.00  0.00    -0.022 C 
ATOM     21  C   UNL     1      33.224 -22.045 -18.855  0.00  0.00    -0.001 C 
ATOM     22  C   UNL     1      35.383 -22.583 -17.914  0.00  0.00    -0.001 C 
ATOM     23  C   UNL     1      35.233 -21.191 -19.874  0.00  0.00    +0.139 C 
ATOM     24  C   UNL     1      33.846 -21.294 -19.852  0.00  0.00    +0.037 C 
ATOM     25  C   UNL     1      36.005 -21.831 -18.910  0.00  0.00    +0.037 C 
BRANCH  20  26
ATOM     26  C   UNL     1      33.316 -23.507 -16.801  0.00  0.00    +0.022 C 
ATOM     27  C   UNL     1      34.099 -23.464 -15.477  0.00  0.00    +0.004 C 
ATOM     28  C   UNL     1      31.854 -23.078 -16.590  0.00  0.00    +0.004 C 
ATOM     29  C   UNL     1      33.413 -24.297 -14.395  0.00  0.00    +0.000 C 
ATOM     30  C   UNL     1      31.177 -23.912 -15.503  0.00  0.00    +0.000 C 
ATOM     31  C   UNL     1      31.961 -23.874 -14.195  0.00  0.00    +0.000 C 
ENDBRANCH  20  26
ENDBRANCH  19  23
ENDBRANCH  18  19
ENDBRANCH   1  18
TORSDOF 7
ENDMDL
MODEL 2
REMARK VINA RESULT:     -11.2      3.132     11.000
REMARK  Name = 446129
REMARK  7 active torsions:
REMARK  status: ('A' for Active; 'I' for Inactive)
REMARK    1  A    between atoms: C_1  and  O_2
REMARK    2  A    between atoms: C_1  and  C_4
REMARK    3  A    between atoms: C_1  and  C_18
REMARK    4  A    between atoms: C_4  and  N_5
REMARK    5  A    between atoms: C_18  and  O_19
REMARK    6  A    between atoms: O_19  and  C_23
REMARK    7  A    between atoms: C_20  and  C_26
REMARK                            x       y       z     vdW  Elec       q    Type
REMARK                         _______ _______ _______ _____ _____    ______ ____
ROOT
ATOM      1  C   UNL     1      33.862 -15.986 -24.821  0.00  0.00    +0.133 C 
ENDROOT
BRANCH   1   2
ATOM      2  O   UNL     1      33.962 -16.039 -26.247  0.00  0.00    -0.383 OA
ATOM      3  H   UNL     1      34.867 -16.281 -26.499  0.00  0.00    +0.210 HD
ENDBRANCH   1   2
BRANCH   1   4
ATOM      4  C   UNL     1      35.277 -16.033 -24.241  0.00  0.00    -0.043 C 
BRANCH   4   5
ATOM      5  N   UNL     1      35.525 -17.265 -23.492  0.00  0.00    +0.391 N 
ATOM      6  N   UNL     1      35.006 -19.270 -21.525  0.00  0.00    -0.298 N 
ATOM      7  C   UNL     1      34.414 -18.207 -23.667  0.00  0.00    -0.055 C 
ATOM      8  C   UNL     1      35.711 -16.971 -22.066  0.00  0.00    -0.055 C 
ATOM      9  C   UNL     1      34.687 -19.523 -22.934  0.00  0.00    +0.069 C 
ATOM     10  C   UNL     1      36.028 -18.245 -21.279  0.00  0.00    +0.069 C 
ATOM     11  H   UNL     1      36.379 -17.691 -23.854  0.00  0.00    -0.079 HD
ATOM     12  N   UNL     1      35.950 -20.716 -19.863  0.00  0.00    -0.229 NA
ATOM     13  C   UNL     1      34.867 -20.298 -20.586  0.00  0.00    +0.132 C 
ATOM     14  C   UNL     1      33.602 -20.878 -20.412  0.00  0.00    +0.034 C 
ATOM     15  C   UNL     1      33.448 -21.901 -19.484  0.00  0.00    +0.004 C 
ATOM     16  C   UNL     1      35.762 -21.714 -18.969  0.00  0.00    +0.100 C 
ATOM     17  C   UNL     1      34.543 -22.332 -18.744  0.00  0.00    +0.021 C 
ENDBRANCH   4   5
ENDBRANCH   1   4
BRANCH   1  18
ATOM     18  C   UNL     1      33.091 -14.726 -24.431  0.00  0.00    +0.232 C 
BRANCH  18  19
ATOM     19  O   UNL     1      33.817 -14.038 -23.418  0.00  0.00    -0.473 OA
BRANCH  19  23
ATOM     20  C   UNL     1      32.367 -10.316 -22.289  0.00  0.00    -0.022 C 
ATOM     21  C   UNL     1      33.295 -10.418 -23.325  0.00  0.00    -0.001 C 
ATOM     22  C   UNL     1      31.927 -11.465 -21.631  0.00  0.00    -0.001 C 
ATOM     23  C   UNL     1      33.339 -12.810 -23.045  0.00  0.00    +0.139 C 
ATOM     24  C   UNL     1      33.782 -11.668 -23.705  0.00  0.00    +0.037 C 
ATOM     25  C   UNL     1      32.415 -12.715 -22.010  0.00  0.00    +0.037 C 
BRANCH  20  26
ATOM     26  C   UNL     1      31.838  -8.955 -21.875  0.00  0.00    +0.022 C 
ATOM     27  C   UNL     1      32.857  -8.178 -21.024  0.00  0.00    +0.004 C 
ATOM     28  C   UNL     1      31.386  -8.124 -23.088  0.00  0.00    +0.004 C 
ATOM     29  C   UNL     1      32.311  -6.814 -20.606  0.00  0.00    +0.000 C 
ATOM     30  C   UNL     1      30.846  -6.760 -22.662  0.00  0.00    +0.000 C 
ATOM     31  C   UNL     1      31.856  -5.996 -21.811  0.00  0.00    +0.000 C 
ENDBRANCH  20  26
ENDBRANCH  19  23
ENDBRANCH  18  19
ENDBRANCH   1  18
TORSDOF 7
ENDMDL
MODEL 3
REMARK VINA RESULT:     -11.2      0.998      1.967
REMARK  Name = 446129
REMARK  7 active torsions:
REMARK  status: ('A' for Active; 'I' for Inactive)
REMARK    1  A    between atoms: C_1  and  O_2
REMARK    2  A    between atoms: C_1  and  C_4
REMARK    3  A    between atoms: C_1  and  C_18
REMARK    4  A    between atoms: C_4  and  N_5
REMARK    5  A    between atoms: C_18  and  O_19
REMARK    6  A    between atoms: O_19  and  C_23
REMARK    7  A    between atoms: C_20  and  C_26
REMARK                            x       y       z     vdW  Elec       q    Type
REMARK                         _______ _______ _______ _____ _____    ______ ____
ROOT
ATOM      1  C   UNL     1      36.721 -18.633 -21.540  0.00  0.00    +0.133 C 
ENDROOT
BRANCH   1   2
ATOM      2  O   UNL     1      38.058 -18.621 -22.047  0.00  0.00    -0.383 OA
ATOM      3  H   UNL     1      38.037 -18.575 -23.015  0.00  0.00    +0.210 HD
ENDBRANCH   1   2
BRANCH   1   4
ATOM      4  C   UNL     1      35.760 -18.671 -22.731  0.00  0.00    -0.043 C 
BRANCH   4   5
ATOM      5  N   UNL     1      34.841 -17.532 -22.734  0.00  0.00    +0.391 N 
ATOM      6  N   UNL     1      34.109 -14.772 -22.790  0.00  0.00    -0.298 N 
ATOM      7  C   UNL     1      34.997 -16.747 -23.964  0.00  0.00    -0.055 C 
ATOM      8  C   UNL     1      35.076 -16.679 -21.563  0.00  0.00    -0.055 C 
ATOM      9  C   UNL     1      34.001 -15.586 -24.005  0.00  0.00    +0.069 C 
ATOM     10  C   UNL     1      34.083 -15.515 -21.524  0.00  0.00    +0.069 C 
ATOM     11  H   UNL     1      33.888 -17.894 -22.692  0.00  0.00    -0.079 HD
ATOM     12  N   UNL     1      32.648 -13.085 -21.916  0.00  0.00    -0.229 NA
ATOM     13  C   UNL     1      33.633 -13.456 -22.790  0.00  0.00    +0.132 C 
ATOM     14  C   UNL     1      34.187 -12.545 -23.701  0.00  0.00    +0.034 C 
ATOM     15  C   UNL     1      33.723 -11.234 -23.714  0.00  0.00    +0.004 C 
ATOM     16  C   UNL     1      32.223 -11.802 -21.957  0.00  0.00    +0.100 C 
ATOM     17  C   UNL     1      32.723 -10.848 -22.828  0.00  0.00    +0.021 C 
ENDBRANCH   4   5
ENDBRANCH   1   4
BRANCH   1  18
ATOM     18  C   UNL     1      36.564 -19.826 -20.600  0.00  0.00    +0.232 C 
BRANCH  18  19
ATOM     19  O   UNL     1      35.325 -20.472 -20.878  0.00  0.00    -0.473 OA
BRANCH  19  23
ATOM     20  C   UNL     1      33.678 -22.744 -17.820  0.00  0.00    -0.022 C 
ATOM     21  C   UNL     1      35.060 -22.723 -18.006  0.00  0.00    -0.001 C 
ATOM     22  C   UNL     1      32.850 -22.003 -18.662  0.00  0.00    -0.001 C 
ATOM     23  C   UNL     1      34.782 -21.222 -19.869  0.00  0.00    +0.139 C 
ATOM     24  C   UNL     1      35.614 -21.959 -19.033  0.00  0.00    +0.037 C 
ATOM     25  C   UNL     1      33.403 -21.240 -19.690  0.00  0.00    +0.037 C 
BRANCH  20  26
ATOM     26  C   UNL     1      33.076 -23.576 -16.702  0.00  0.00    +0.022 C 
ATOM     27  C   UNL     1      33.917 -23.502 -15.415  0.00  0.00    +0.004 C 
ATOM     28  C   UNL     1      31.613 -23.191 -16.427  0.00  0.00    +0.004 C 
ATOM     29  C   UNL     1      33.307 -24.350 -14.300  0.00  0.00    +0.000 C 
ATOM     30  C   UNL     1      31.012 -24.040 -15.308  0.00  0.00    +0.000 C 
ATOM     31  C   UNL     1      31.853 -23.971 -14.036  0.00  0.00    +0.000 C 
ENDBRANCH  20  26
ENDBRANCH  19  23
ENDBRANCH  18  19
ENDBRANCH   1  18
TORSDOF 7
ENDMDL
MODEL 4
REMARK VINA RESULT:     -11.1      1.080      1.702
REMARK  Name = 446129
REMARK  7 active torsions:
REMARK  status: ('A' for Active; 'I' for Inactive)
REMARK    1  A    between atoms: C_1  and  O_2
REMARK    2  A    between atoms: C_1  and  C_4
REMARK    3  A    between atoms: C_1  and  C_18
REMARK    4  A    between atoms: C_4  and  N_5
REMARK    5  A    between atoms: C_18  and  O_19
REMARK    6  A    between atoms: O_19  and  C_23
REMARK    7  A    between atoms: C_20  and  C_26
REMARK                            x       y       z     vdW  Elec       q    Type
REMARK                         _______ _______ _______ _____ _____    ______ ____
ROOT
ATOM      1  C   UNL     1      35.472 -18.278 -22.386  0.00  0.00    +0.133 C 
ENDROOT
BRANCH   1   2
ATOM      2  O   UNL     1      36.896 -18.235 -22.271  0.00  0.00    -0.383 OA
ATOM      3  H   UNL     1      37.251 -19.137 -22.297  0.00  0.00    +0.210 HD
ENDBRANCH   1   2
BRANCH   1   4
ATOM      4  C   UNL     1      35.067 -17.465 -23.618  0.00  0.00    -0.043 C 
BRANCH   4   5
ATOM      5  N   UNL     1      34.896 -16.046 -23.309  0.00  0.00    +0.391 N 
ATOM      6  N   UNL     1      33.446 -13.681 -22.630  0.00  0.00    -0.298 N 
ATOM      7  C   UNL     1      34.345 -15.874 -21.960  0.00  0.00    -0.055 C 
ATOM      8  C   UNL     1      34.015 -15.407 -24.294  0.00  0.00    -0.055 C 
ATOM      9  C   UNL     1      34.214 -14.392 -21.603  0.00  0.00    +0.069 C 
ATOM     10  C   UNL     1      33.874 -13.909 -24.015  0.00  0.00    +0.069 C 
ATOM     11  H   UNL     1      35.813 -15.600 -23.350  0.00  0.00    -0.079 HD
ATOM     12  N   UNL     1      33.180 -11.331 -23.021  0.00  0.00    -0.229 NA
ATOM     13  C   UNL     1      32.841 -12.457 -22.321  0.00  0.00    +0.132 C 
ATOM     14  C   UNL     1      31.892 -12.422 -21.289  0.00  0.00    +0.034 C 
ATOM     15  C   UNL     1      31.283 -11.213 -20.971  0.00  0.00    +0.004 C 
ATOM     16  C   UNL     1      32.566 -10.174 -22.683  0.00  0.00    +0.100 C 
ATOM     17  C   UNL     1      31.621 -10.064 -21.676  0.00  0.00    +0.021 C 
ENDBRANCH   4   5
ENDBRANCH   1   4
BRANCH   1  18
ATOM     18  C   UNL     1      35.031 -19.740 -22.456  0.00  0.00    +0.232 C 
BRANCH  18  19
ATOM     19  O   UNL     1      33.967 -19.944 -21.531  0.00  0.00    -0.473 OA
BRANCH  19  23
ATOM     20  C   UNL     1      34.785 -22.339 -18.242  0.00  0.00    -0.022 C 
ATOM     21  C   UNL     1      35.832 -21.794 -18.985  0.00  0.00    -0.001 C 
ATOM     22  C   UNL     1      33.463 -22.080 -18.605  0.00  0.00    -0.001 C 
ATOM     23  C   UNL     1      34.237 -20.735 -20.447  0.00  0.00    +0.139 C 
ATOM     24  C   UNL     1      35.557 -20.989 -20.090  0.00  0.00    +0.037 C 
ATOM     25  C   UNL     1      33.189 -21.276 -19.711  0.00  0.00    +0.037 C 
BRANCH  20  26
ATOM     26  C   UNL     1      35.084 -23.216 -17.040  0.00  0.00    +0.022 C 
ATOM     27  C   UNL     1      36.310 -22.716 -16.256  0.00  0.00    +0.004 C 
ATOM     28  C   UNL     1      33.862 -23.359 -16.117  0.00  0.00    +0.004 C 
ATOM     29  C   UNL     1      36.608 -23.610 -15.054  0.00  0.00    +0.000 C 
ATOM     30  C   UNL     1      34.169 -24.251 -14.916  0.00  0.00    +0.000 C 
ATOM     31  C   UNL     1      35.390 -23.757 -14.146  0.00  0.00    +0.000 C 
ENDBRANCH  20  26
ENDBRANCH  19  23
ENDBRANCH  18  19
ENDBRANCH   1  18
TORSDOF 7
ENDMDL
MODEL 5
REMARK VINA RESULT:     -10.9      2.539      5.012
REMARK  Name = 446129
REMARK  7 active torsions:
REMARK  status: ('A' for Active; 'I' for Inactive)
REMARK    1  A    between atoms: C_1  and  O_2
REMARK    2  A    between atoms: C_1  and  C_4
REMARK    3  A    between atoms: C_1  and  C_18
REMARK    4  A    between atoms: C_4  and  N_5
REMARK    5  A    between atoms: C_18  and  O_19
REMARK    6  A    between atoms: O_19  and  C_23
REMARK    7  A    between atoms: C_20  and  C_26
REMARK                            x       y       z     vdW  Elec       q    Type
REMARK                         _______ _______ _______ _____ _____    ______ ____
ROOT
ATOM      1  C   UNL     1      33.774 -14.231 -23.843  0.00  0.00    +0.133 C 
ENDROOT
BRANCH   1   2
ATOM      2  O   UNL     1      33.024 -14.998 -24.789  0.00  0.00    -0.383 OA
ATOM      3  H   UNL     1      32.940 -15.910 -24.472  0.00  0.00    +0.210 HD
ENDBRANCH   1   2
BRANCH   1   4
ATOM      4  C   UNL     1      32.823 -13.780 -22.733  0.00  0.00    -0.043 C 
BRANCH   4   5
ATOM      5  N   UNL     1      32.963 -12.355 -22.434  0.00  0.00    +0.391 N 
ATOM      6  N   UNL     1      32.429  -9.564 -22.725  0.00  0.00    -0.298 N 
ATOM      7  C   UNL     1      31.682 -11.793 -21.989  0.00  0.00    -0.055 C 
ATOM      8  C   UNL     1      33.445 -11.626 -23.613  0.00  0.00    -0.055 C 
ATOM      9  C   UNL     1      31.828 -10.315 -21.618  0.00  0.00    +0.069 C 
ATOM     10  C   UNL     1      33.651 -10.143 -23.297  0.00  0.00    +0.069 C 
ATOM     11  H   UNL     1      33.646 -12.254 -21.682  0.00  0.00    -0.079 HD
ATOM     12  N   UNL     1      33.362  -7.356 -22.778  0.00  0.00    -0.229 NA
ATOM     13  C   UNL     1      32.266  -8.175 -22.792  0.00  0.00    +0.132 C 
ATOM     14  C   UNL     1      30.965  -7.659 -22.871  0.00  0.00    +0.034 C 
ATOM     15  C   UNL     1      30.787  -6.281 -22.937  0.00  0.00    +0.004 C 
ATOM     16  C   UNL     1      33.150  -6.023 -22.844  0.00  0.00    +0.100 C 
ATOM     17  C   UNL     1      31.894  -5.441 -22.924  0.00  0.00    +0.021 C 
ENDBRANCH   4   5
ENDBRANCH   1   4
BRANCH   1  18
ATOM     18  C   UNL     1      34.936 -15.084 -23.334  0.00  0.00    +0.232 C 
BRANCH  18  19
ATOM     19  O   UNL     1      34.894 -16.352 -23.980  0.00  0.00    -0.473 OA
BRANCH  19  23
ATOM     20  C   UNL     1      35.005 -19.700 -21.531  0.00  0.00    -0.022 C 
ATOM     21  C   UNL     1      35.170 -18.429 -20.982  0.00  0.00    -0.001 C 
ATOM     22  C   UNL     1      34.803 -19.846 -22.903  0.00  0.00    -0.001 C 
ATOM     23  C   UNL     1      34.931 -17.456 -23.172  0.00  0.00    +0.139 C 
ATOM     24  C   UNL     1      35.133 -17.304 -21.804  0.00  0.00    +0.037 C 
ATOM     25  C   UNL     1      34.767 -18.721 -23.726  0.00  0.00    +0.037 C 
BRANCH  20  26
ATOM     26  C   UNL     1      35.046 -20.924 -20.635  0.00  0.00    +0.022 C 
ATOM     27  C   UNL     1      36.271 -20.913 -19.703  0.00  0.00    +0.004 C 
ATOM     28  C   UNL     1      33.745 -21.090 -19.831  0.00  0.00    +0.004 C 
ATOM     29  C   UNL     1      36.308 -22.154 -18.813  0.00  0.00    +0.000 C 
ATOM     30  C   UNL     1      33.792 -22.330 -18.940  0.00  0.00    +0.000 C 
ATOM     31  C   UNL     1      35.012 -22.319 -18.024  0.00  0.00    +0.000 C 
ENDBRANCH  20  26
ENDBRANCH  19  23
ENDBRANCH  18  19
ENDBRANCH   1  18
TORSDOF 7
ENDMDL
MODEL 6
REMARK VINA RESULT:     -10.6      4.848      9.805
REMARK  Name = 446129
REMARK  7 active torsions:
REMARK  status: ('A' for Active; 'I' for Inactive)
REMARK    1  A    between atoms: C_1  and  O_2
REMARK    2  A    between atoms: C_1  and  C_4
REMARK    3  A    between atoms: C_1  and  C_18
REMARK    4  A    between atoms: C_4  and  N_5
REMARK    5  A    between atoms: C_18  and  O_19
REMARK    6  A    between atoms: O_19  and  C_23
REMARK    7  A    between atoms: C_20  and  C_26
REMARK                            x       y       z     vdW  Elec       q    Type
REMARK                         _______ _______ _______ _____ _____    ______ ____
ROOT
ATOM      1  C   UNL     1      37.331 -23.054 -15.663  0.00  0.00    +0.133 C 
ENDROOT
BRANCH   1   2
ATOM      2  O   UNL     1      37.565 -22.497 -14.367  0.00  0.00    -0.383 OA
ATOM      3  H   UNL     1      38.447 -22.754 -14.058  0.00  0.00    +0.210 HD
ENDBRANCH   1   2
BRANCH   1   4
ATOM      4  C   UNL     1      36.277 -24.155 -15.526  0.00  0.00    -0.043 C 
BRANCH   4   5
ATOM      5  N   UNL     1      34.916 -23.620 -15.553  0.00  0.00    +0.391 N 
ATOM      6  N   UNL     1      32.063 -23.751 -15.612  0.00  0.00    -0.298 N 
ATOM      7  C   UNL     1      34.168 -24.054 -14.367  0.00  0.00    -0.055 C 
ATOM      8  C   UNL     1      34.218 -24.052 -16.770  0.00  0.00    -0.055 C 
ATOM      9  C   UNL     1      32.759 -23.455 -14.355  0.00  0.00    +0.069 C 
ATOM     10  C   UNL     1      32.811 -23.452 -16.839  0.00  0.00    +0.069 C 
ATOM     11  H   UNL     1      34.975 -22.601 -15.551  0.00  0.00    -0.079 HD
ATOM     12  N   UNL     1      30.049 -22.828 -16.526  0.00  0.00    -0.229 NA
ATOM     13  C   UNL     1      30.666 -23.691 -15.662  0.00  0.00    +0.132 C 
ATOM     14  C   UNL     1      29.930 -24.529 -14.813  0.00  0.00    +0.034 C 
ATOM     15  C   UNL     1      28.541 -24.480 -14.851  0.00  0.00    +0.004 C 
ATOM     16  C   UNL     1      28.697 -22.808 -16.535  0.00  0.00    +0.100 C 
ATOM     17  C   UNL     1      27.905 -23.607 -15.726  0.00  0.00    +0.021 C 
ENDBRANCH   4   5
ENDBRANCH   1   4
BRANCH   1  18
ATOM     18  C   UNL     1      36.912 -21.931 -16.610  0.00  0.00    +0.232 C 
BRANCH  18  19
ATOM     19  O   UNL     1      36.875 -22.440 -17.940  0.00  0.00    -0.473 OA
BRANCH  19  23
ATOM     20  C   UNL     1      35.337 -19.924 -20.861  0.00  0.00    -0.022 C 
ATOM     21  C   UNL     1      36.681 -19.835 -20.501  0.00  0.00    -0.001 C 
ATOM     22  C   UNL     1      34.509 -20.858 -20.238  0.00  0.00    -0.001 C 
ATOM     23  C   UNL     1      36.368 -21.609 -18.903  0.00  0.00    +0.139 C 
ATOM     24  C   UNL     1      37.199 -20.680 -19.520  0.00  0.00    +0.037 C 
ATOM     25  C   UNL     1      35.026 -21.703 -19.255  0.00  0.00    +0.037 C 
BRANCH  20  26
ATOM     26  C   UNL     1      34.774 -19.003 -21.927  0.00  0.00    +0.022 C 
ATOM     27  C   UNL     1      35.439 -17.616 -21.898  0.00  0.00    +0.004 C 
ATOM     28  C   UNL     1      34.867 -19.628 -23.330  0.00  0.00    +0.004 C 
ATOM     29  C   UNL     1      34.859 -16.695 -22.969  0.00  0.00    +0.000 C 
ATOM     30  C   UNL     1      34.290 -18.699 -24.396  0.00  0.00    +0.000 C 
ATOM     31  C   UNL     1      34.946 -17.322 -24.358  0.00  0.00    +0.000 C 
ENDBRANCH  20  26
ENDBRANCH  19  23
ENDBRANCH  18  19
ENDBRANCH   1  18
TORSDOF 7
ENDMDL
MODEL 7
REMARK VINA RESULT:     -10.5      4.137     11.241
REMARK  Name = 446129
REMARK  7 active torsions:
REMARK  status: ('A' for Active; 'I' for Inactive)
REMARK    1  A    between atoms: C_1  and  O_2
REMARK    2  A    between atoms: C_1  and  C_4
REMARK    3  A    between atoms: C_1  and  C_18
REMARK    4  A    between atoms: C_4  and  N_5
REMARK    5  A    between atoms: C_18  and  O_19
REMARK    6  A    between atoms: O_19  and  C_23
REMARK    7  A    between atoms: C_20  and  C_26
REMARK                            x       y       z     vdW  Elec       q    Type
REMARK                         _______ _______ _______ _____ _____    ______ ____
ROOT
ATOM      1  C   UNL     1      33.973 -21.497 -19.286  0.00  0.00    +0.133 C 
ENDROOT
BRANCH   1   2
ATOM      2  O   UNL     1      33.045 -22.577 -19.419  0.00  0.00    -0.383 OA
ATOM      3  H   UNL     1      33.302 -23.300 -18.826  0.00  0.00    +0.210 HD
ENDBRANCH   1   2
BRANCH   1   4
ATOM      4  C   UNL     1      35.356 -22.089 -19.004  0.00  0.00    -0.043 C 
BRANCH   4   5
ATOM      5  N   UNL     1      35.652 -22.141 -17.573  0.00  0.00    +0.391 N 
ATOM      6  N   UNL     1      36.505 -23.345 -15.127  0.00  0.00    -0.298 N 
ATOM      7  C   UNL     1      37.070 -22.445 -17.350  0.00  0.00    -0.055 C 
ATOM      8  C   UNL     1      34.814 -23.147 -16.910  0.00  0.00    -0.055 C 
ATOM      9  C   UNL     1      37.405 -22.446 -15.856  0.00  0.00    +0.069 C 
ATOM     10  C   UNL     1      35.073 -23.171 -15.401  0.00  0.00    +0.069 C 
ATOM     11  H   UNL     1      35.444 -21.225 -17.173  0.00  0.00    -0.079 HD
ATOM     12  N   UNL     1      36.103 -23.568 -12.775  0.00  0.00    -0.229 NA
ATOM     13  C   UNL     1      36.879 -23.833 -13.870  0.00  0.00    +0.132 C 
ATOM     14  C   UNL     1      38.055 -24.589 -13.769  0.00  0.00    +0.034 C 
ATOM     15  C   UNL     1      38.441 -25.080 -12.527  0.00  0.00    +0.004 C 
ATOM     16  C   UNL     1      36.509 -24.062 -11.583  0.00  0.00    +0.100 C 
ATOM     17  C   UNL     1      37.658 -24.816 -11.408  0.00  0.00    +0.021 C 
ENDBRANCH   4   5
ENDBRANCH   1   4
BRANCH   1  18
ATOM     18  C   UNL     1      33.926 -20.651 -20.557  0.00  0.00    +0.232 C 
BRANCH  18  19
ATOM     19  O   UNL     1      35.025 -19.746 -20.549  0.00  0.00    -0.473 OA
BRANCH  19  23
ATOM     20  C   UNL     1      34.779 -16.485 -23.105  0.00  0.00    -0.022 C 
ATOM     21  C   UNL     1      34.711 -16.296 -21.725  0.00  0.00    -0.001 C 
ATOM     22  C   UNL     1      34.928 -17.771 -23.626  0.00  0.00    -0.001 C 
ATOM     23  C   UNL     1      34.943 -18.671 -21.392  0.00  0.00    +0.139 C 
ATOM     24  C   UNL     1      34.795 -17.391 -20.866  0.00  0.00    +0.037 C 
ATOM     25  C   UNL     1      35.010 -18.866 -22.767  0.00  0.00    +0.037 C 
BRANCH  20  26
ATOM     26  C   UNL     1      34.687 -15.293 -24.039  0.00  0.00    +0.022 C 
ATOM     27  C   UNL     1      33.806 -15.591 -25.265  0.00  0.00    +0.004 C 
ATOM     28  C   UNL     1      34.205 -14.029 -23.308  0.00  0.00    +0.004 C 
ATOM     29  C   UNL     1      33.728 -14.388 -26.203  0.00  0.00    +0.000 C 
ATOM     30  C   UNL     1      34.126 -12.832 -24.254  0.00  0.00    +0.000 C 
ATOM     31  C   UNL     1      33.258 -13.133 -25.472  0.00  0.00    +0.000 C 
ENDBRANCH  20  26
ENDBRANCH  19  23
ENDBRANCH  18  19
ENDBRANCH   1  18
TORSDOF 7
ENDMDL
MODEL 8
REMARK VINA RESULT:     -10.4      1.458      2.398
REMARK  Name = 446129
REMARK  7 active torsions:
REMARK  status: ('A' for Active; 'I' for Inactive)
REMARK    1  A    between atoms: C_1  and  O_2
REMARK    2  A    between atoms: C_1  and  C_4
REMARK    3  A    between atoms: C_1  and  C_18
REMARK    4  A    between atoms: C_4  and  N_5
REMARK    5  A    between atoms: C_18  and  O_19
REMARK    6  A    between atoms: O_19  and  C_23
REMARK    7  A    between atoms: C_20  and  C_26
REMARK                            x       y       z     vdW  Elec       q    Type
REMARK                         _______ _______ _______ _____ _____    ______ ____
ROOT
ATOM      1  C   UNL     1      34.819 -17.797 -24.585  0.00  0.00    +0.133 C 
ENDROOT
BRANCH   1   2
ATOM      2  O   UNL     1      33.695 -17.528 -25.428  0.00  0.00    -0.383 OA
ATOM      3  H   UNL     1      33.462 -18.330 -25.921  0.00  0.00    +0.210 HD
ENDBRANCH   1   2
BRANCH   1   4
ATOM      4  C   UNL     1      35.313 -16.466 -24.012  0.00  0.00    -0.043 C 
BRANCH   4   5
ATOM      5  N   UNL     1      34.284 -15.791 -23.221  0.00  0.00    +0.391 N 
ATOM      6  N   UNL     1      33.069 -13.601 -21.849  0.00  0.00    -0.298 N 
ATOM      7  C   UNL     1      33.708 -14.671 -23.974  0.00  0.00    -0.055 C 
ATOM      8  C   UNL     1      34.845 -15.307 -21.954  0.00  0.00    -0.055 C 
ATOM      9  C   UNL     1      32.591 -13.991 -23.179  0.00  0.00    +0.069 C 
ATOM     10  C   UNL     1      33.765 -14.648 -21.092  0.00  0.00    +0.069 C 
ATOM     11  H   UNL     1      33.546 -16.466 -23.018  0.00  0.00    -0.079 HD
ATOM     12  N   UNL     1      31.853 -12.901 -19.906  0.00  0.00    -0.229 NA
ATOM     13  C   UNL     1      32.390 -12.611 -21.130  0.00  0.00    +0.132 C 
ATOM     14  C   UNL     1      32.280 -11.332 -21.694  0.00  0.00    +0.034 C 
ATOM     15  C   UNL     1      31.608 -10.338 -20.992  0.00  0.00    +0.004 C 
ATOM     16  C   UNL     1      31.206 -11.909 -19.252  0.00  0.00    +0.100 C 
ATOM     17  C   UNL     1      31.059 -10.623 -19.747  0.00  0.00    +0.021 C 
ENDBRANCH   4   5
ENDBRANCH   1   4
BRANCH   1  18
ATOM     18  C   UNL     1      34.396 -18.798 -23.511  0.00  0.00    +0.232 C 
BRANCH  18  19
ATOM     19  O   UNL     1      35.246 -18.643 -22.378  0.00  0.00    -0.473 OA
BRANCH  19  23
ATOM     20  C   UNL     1      34.930 -21.520 -19.404  0.00  0.00    -0.022 C 
ATOM     21  C   UNL     1      33.779 -20.996 -19.992  0.00  0.00    -0.001 C 
ATOM     22  C   UNL     1      36.187 -21.076 -19.814  0.00  0.00    -0.001 C 
ATOM     23  C   UNL     1      35.141 -19.591 -21.397  0.00  0.00    +0.139 C 
ATOM     24  C   UNL     1      33.885 -20.030 -20.992  0.00  0.00    +0.037 C 
ATOM     25  C   UNL     1      36.293 -20.108 -20.813  0.00  0.00    +0.037 C 
BRANCH  20  26
ATOM     26  C   UNL     1      34.815 -22.571 -18.315  0.00  0.00    +0.022 C 
ATOM     27  C   UNL     1      35.735 -22.264 -17.121  0.00  0.00    +0.004 C 
ATOM     28  C   UNL     1      33.359 -22.760 -17.855  0.00  0.00    +0.004 C 
ATOM     29  C   UNL     1      35.618 -23.333 -16.036  0.00  0.00    +0.000 C 
ATOM     30  C   UNL     1      33.251 -23.827 -16.766  0.00  0.00    +0.000 C 
ATOM     31  C   UNL     1      34.171 -23.524 -15.587  0.00  0.00    +0.000 C 
ENDBRANCH  20  26
ENDBRANCH  19  23
ENDBRANCH  18  19
ENDBRANCH   1  18
TORSDOF 7
ENDMDL
MODEL 9
REMARK VINA RESULT:     -10.4      5.168     11.294
REMARK  Name = 446129
REMARK  7 active torsions:
REMARK  status: ('A' for Active; 'I' for Inactive)
REMARK    1  A    between atoms: C_1  and  O_2
REMARK    2  A    between atoms: C_1  and  C_4
REMARK    3  A    between atoms: C_1  and  C_18
REMARK    4  A    between atoms: C_4  and  N_5
REMARK    5  A    between atoms: C_18  and  O_19
REMARK    6  A    between atoms: O_19  and  C_23
REMARK    7  A    between atoms: C_20  and  C_26
REMARK                            x       y       z     vdW  Elec       q    Type
REMARK                         _______ _______ _______ _____ _____    ______ ____
ROOT
ATOM      1  C   UNL     1      32.299 -22.871 -16.519  0.00  0.00    +0.133 C 
ENDROOT
BRANCH   1   2
ATOM      2  O   UNL     1      30.903 -23.179 -16.534  0.00  0.00    -0.383 OA
ATOM      3  H   UNL     1      30.774 -24.083 -16.861  0.00  0.00    +0.210 HD
ENDBRANCH   1   2
BRANCH   1   4
ATOM      4  C   UNL     1      32.893 -23.411 -15.216  0.00  0.00    -0.043 C 
BRANCH   4   5
ATOM      5  N   UNL     1      34.245 -23.937 -15.404  0.00  0.00    +0.391 N 
ATOM      6  N   UNL     1      36.843 -24.801 -14.591  0.00  0.00    -0.298 N 
ATOM      7  C   UNL     1      34.413 -25.199 -14.673  0.00  0.00    -0.055 C 
ATOM      8  C   UNL     1      35.244 -22.961 -14.953  0.00  0.00    -0.055 C 
ATOM      9  C   UNL     1      35.806 -25.788 -14.907  0.00  0.00    +0.069 C 
ATOM     10  C   UNL     1      36.665 -23.475 -15.197  0.00  0.00    +0.069 C 
ATOM     11  H   UNL     1      34.382 -24.112 -16.400  0.00  0.00    -0.079 HD
ATOM     12  N   UNL     1      39.187 -24.796 -15.093  0.00  0.00    -0.229 NA
ATOM     13  C   UNL     1      38.147 -25.227 -14.315  0.00  0.00    +0.132 C 
ATOM     14  C   UNL     1      38.351 -26.097 -13.235  0.00  0.00    +0.034 C 
ATOM     15  C   UNL     1      39.642 -26.530 -12.949  0.00  0.00    +0.004 C 
ATOM     16  C   UNL     1      40.427 -25.238 -14.785  0.00  0.00    +0.100 C 
ATOM     17  C   UNL     1      40.704 -26.097 -13.733  0.00  0.00    +0.021 C 
ENDBRANCH   4   5
ENDBRANCH   1   4
BRANCH   1  18
ATOM     18  C   UNL     1      32.945 -23.466 -17.770  0.00  0.00    +0.232 C 
BRANCH  18  19
ATOM     19  O   UNL     1      34.285 -22.993 -17.865  0.00  0.00    -0.473 OA
BRANCH  19  23
ATOM     20  C   UNL     1      35.061 -20.172 -20.809  0.00  0.00    -0.022 C 
ATOM     21  C   UNL     1      36.117 -20.802 -20.151  0.00  0.00    -0.001 C 
ATOM     22  C   UNL     1      33.744 -20.489 -20.477  0.00  0.00    -0.001 C 
ATOM     23  C   UNL     1      34.541 -22.062 -18.835  0.00  0.00    +0.139 C 
ATOM     24  C   UNL     1      35.857 -21.750 -19.162  0.00  0.00    +0.037 C 
ATOM     25  C   UNL     1      33.483 -21.437 -19.486  0.00  0.00    +0.037 C 
BRANCH  20  26
ATOM     26  C   UNL     1      35.345 -19.140 -21.884  0.00  0.00    +0.022 C 
ATOM     27  C   UNL     1      34.579 -19.440 -23.185  0.00  0.00    +0.004 C 
ATOM     28  C   UNL     1      35.059 -17.710 -21.395  0.00  0.00    +0.004 C 
ATOM     29  C   UNL     1      34.880 -18.401 -24.263  0.00  0.00    +0.000 C 
ATOM     30  C   UNL     1      35.357 -16.677 -22.481  0.00  0.00    +0.000 C 
ATOM     31  C   UNL     1      34.603 -16.983 -23.771  0.00  0.00    +0.000 C 
ENDBRANCH  20  26
ENDBRANCH  19  23
ENDBRANCH  18  19
ENDBRANCH   1  18
TORSDOF 7
ENDMDL
