MODEL 1
REMARK VINA RESULT:     -11.2      0.000      0.000
REMARK  Name = 46892373
REMARK  3 active torsions:
REMARK  status: ('A' for Active; 'I' for Inactive)
REMARK    1  A    between atoms: C_7  and  C_20
REMARK    2  A    between atoms: C_20  and  C_22
REMARK    3  A    between atoms: C_20  and  O_28
REMARK                            x       y       z     vdW  Elec       q    Type
REMARK                         _______ _______ _______ _____ _____    ______ ____
ROOT
ATOM      1  N   UNL     1      33.511 -23.887 -15.248  0.00  0.00    -0.326 NA
ATOM      2  N   UNL     1      31.854 -23.226 -16.783  0.00  0.00    -0.271 N 
ATOM      3  N   UNL     1      35.843 -23.497 -15.714  0.00  0.00    -0.345 NA
ATOM      4  N   UNL     1      29.307 -22.939 -14.441  0.00  0.00    -0.239 N 
ATOM      5  N   UNL     1      30.624 -23.047 -14.682  0.00  0.00    -0.166 NA
ATOM      6  C   UNL     1      34.184 -22.808 -17.304  0.00  0.00    +0.072 C 
ATOM      7  C   UNL     1      34.820 -23.945 -14.958  0.00  0.00    +0.146 C 
ATOM      8  C   UNL     1      33.224 -23.311 -16.431  0.00  0.00    +0.199 C 
ATOM      9  C   UNL     1      35.521 -22.928 -16.889  0.00  0.00    +0.129 C 
ATOM     10  C   UNL     1      33.861 -22.212 -18.534  0.00  0.00    +0.006 C 
ATOM     11  C   UNL     1      36.512 -22.436 -17.736  0.00  0.00    +0.086 C 
ATOM     12  C   UNL     1      30.684 -23.109 -16.014  0.00  0.00    +0.152 C 
ATOM     13  C   UNL     1      34.869 -21.729 -19.362  0.00  0.00    -0.004 C 
ATOM     14  C   UNL     1      36.196 -21.841 -18.961  0.00  0.00    -0.019 C 
ATOM     15  C   UNL     1      29.415 -23.041 -16.620  0.00  0.00    +0.048 C 
ATOM     16  C   UNL     1      28.539 -22.931 -15.567  0.00  0.00    +0.046 C 
ATOM     17  C   UNL     1      27.072 -22.822 -15.517  0.00  0.00    +0.049 C 
ATOM     18  H   UNL     1      31.690 -23.256 -17.753  0.00  0.00    +0.156 HD
ATOM     19  H   UNL     1      28.930 -22.872 -13.533  0.00  0.00    +0.174 HD
ENDROOT
BRANCH   7  20
ATOM     20  C   UNL     1      35.186 -24.575 -13.656  0.00  0.00    +0.243 C 
BRANCH  20  22
ATOM     21  F   UNL     1      40.480 -26.550 -13.483  0.00  0.00    -0.204 F 
ATOM     22  C   UNL     1      36.613 -25.107 -13.610  0.00  0.00    +0.021 C 
ATOM     23  C   UNL     1      36.983 -26.183 -14.417  0.00  0.00    +0.001 C 
ATOM     24  C   UNL     1      37.549 -24.520 -12.759  0.00  0.00    +0.001 C 
ATOM     25  C   UNL     1      38.289 -26.670 -14.375  0.00  0.00    +0.029 C 
ATOM     26  C   UNL     1      38.856 -25.007 -12.716  0.00  0.00    +0.029 C 
ATOM     27  C   UNL     1      39.226 -26.083 -13.524  0.00  0.00    +0.140 C 
ENDBRANCH  20  22
BRANCH  20  28
ATOM     28  O   UNL     1      34.974 -23.688 -12.543  0.00  0.00    -0.366 OA
ATOM     29  H   UNL     1      35.208 -22.782 -12.801  0.00  0.00    +0.212 HD
ENDBRANCH  20  28
ENDBRANCH   7  20
TORSDOF 3
ENDMDL
MODEL 2
REMARK VINA RESULT:     -10.9      2.262      2.789
REMARK  Name = 46892373
REMARK  3 active torsions:
REMARK  status: ('A' for Active; 'I' for Inactive)
REMARK    1  A    between atoms: C_7  and  C_20
REMARK    2  A    between atoms: C_20  and  C_22
REMARK    3  A    between atoms: C_20  and  O_28
REMARK                            x       y       z     vdW  Elec       q    Type
REMARK                         _______ _______ _______ _____ _____    ______ ____
ROOT
ATOM      1  N   UNL     1      35.482 -23.492 -15.845  0.00  0.00    -0.326 NA
ATOM      2  N   UNL     1      33.267 -23.629 -16.627  0.00  0.00    -0.271 N 
ATOM      3  N   UNL     1      37.160 -22.307 -17.106  0.00  0.00    -0.345 NA
ATOM      4  N   UNL     1      31.825 -24.103 -13.505  0.00  0.00    -0.239 N 
ATOM      5  N   UNL     1      32.904 -23.736 -14.216  0.00  0.00    -0.166 NA
ATOM      6  C   UNL     1      34.914 -22.425 -17.938  0.00  0.00    +0.072 C 
ATOM      7  C   UNL     1      36.726 -23.034 -16.056  0.00  0.00    +0.146 C 
ATOM      8  C   UNL     1      34.596 -23.169 -16.806  0.00  0.00    +0.199 C 
ATOM      9  C   UNL     1      36.249 -22.004 -18.047  0.00  0.00    +0.129 C 
ATOM     10  C   UNL     1      33.971 -22.102 -18.928  0.00  0.00    +0.006 C 
ATOM     11  C   UNL     1      36.606 -21.256 -19.167  0.00  0.00    +0.086 C 
ATOM     12  C   UNL     1      32.500 -23.888 -15.480  0.00  0.00    +0.152 C 
ATOM     13  C   UNL     1      34.354 -21.354 -20.037  0.00  0.00    -0.004 C 
ATOM     14  C   UNL     1      35.673 -20.930 -20.156  0.00  0.00    -0.019 C 
ATOM     15  C   UNL     1      31.174 -24.349 -15.575  0.00  0.00    +0.048 C 
ATOM     16  C   UNL     1      30.762 -24.479 -14.271  0.00  0.00    +0.046 C 
ATOM     17  C   UNL     1      29.487 -24.918 -13.683  0.00  0.00    +0.049 C 
ATOM     18  H   UNL     1      32.790 -23.803 -17.471  0.00  0.00    +0.156 HD
ATOM     19  H   UNL     1      31.804 -24.102 -12.520  0.00  0.00    +0.174 HD
ENDROOT
BRANCH   7  20
ATOM     20  C   UNL     1      37.743 -23.367 -15.016  0.00  0.00    +0.243 C 
BRANCH  20  22
ATOM     21  F   UNL     1      35.563 -25.740 -10.371  0.00  0.00    -0.204 F 
ATOM     22  C   UNL     1      37.155 -24.007 -13.764  0.00  0.00    +0.021 C 
ATOM     23  C   UNL     1      36.614 -23.205 -12.759  0.00  0.00    +0.001 C 
ATOM     24  C   UNL     1      37.158 -25.395 -13.622  0.00  0.00    +0.001 C 
ATOM     25  C   UNL     1      36.076 -23.790 -11.613  0.00  0.00    +0.029 C 
ATOM     26  C   UNL     1      36.621 -25.981 -12.475  0.00  0.00    +0.029 C 
ATOM     27  C   UNL     1      36.079 -25.177 -11.471  0.00  0.00    +0.140 C 
ENDBRANCH  20  22
BRANCH  20  28
ATOM     28  O   UNL     1      38.793 -24.208 -15.530  0.00  0.00    -0.366 OA
ATOM     29  H   UNL     1      39.239 -23.757 -16.264  0.00  0.00    +0.212 HD
ENDBRANCH  20  28
ENDBRANCH   7  20
TORSDOF 3
ENDMDL
MODEL 3
REMARK VINA RESULT:     -10.9      3.267      7.286
REMARK  Name = 46892373
REMARK  3 active torsions:
REMARK  status: ('A' for Active; 'I' for Inactive)
REMARK    1  A    between atoms: C_7  and  C_20
REMARK    2  A    between atoms: C_20  and  C_22
REMARK    3  A    between atoms: C_20  and  O_28
REMARK                            x       y       z     vdW  Elec       q    Type
REMARK                         _______ _______ _______ _____ _____    ______ ____
ROOT
ATOM      1  N   UNL     1      34.559 -24.082 -15.034  0.00  0.00    -0.326 NA
ATOM      2  N   UNL     1      36.805 -23.779 -15.669  0.00  0.00    -0.271 N 
ATOM      3  N   UNL     1      32.767 -23.297 -16.441  0.00  0.00    -0.345 NA
ATOM      4  N   UNL     1      38.049 -26.444 -13.825  0.00  0.00    -0.239 N 
ATOM      5  N   UNL     1      36.978 -25.825 -14.348  0.00  0.00    -0.166 NA
ATOM      6  C   UNL     1      35.043 -22.968 -17.124  0.00  0.00    +0.072 C 
ATOM      7  C   UNL     1      33.266 -23.896 -15.341  0.00  0.00    +0.146 C 
ATOM      8  C   UNL     1      35.425 -23.606 -15.948  0.00  0.00    +0.199 C 
ATOM      9  C   UNL     1      33.661 -22.832 -17.333  0.00  0.00    +0.129 C 
ATOM     10  C   UNL     1      35.967 -22.479 -18.063  0.00  0.00    +0.006 C 
ATOM     11  C   UNL     1      33.238 -22.199 -18.500  0.00  0.00    +0.086 C 
ATOM     12  C   UNL     1      37.511 -24.762 -14.957  0.00  0.00    +0.152 C 
ATOM     13  C   UNL     1      35.518 -21.850 -19.220  0.00  0.00    -0.004 C 
ATOM     14  C   UNL     1      34.152 -21.711 -19.438  0.00  0.00    -0.019 C 
ATOM     15  C   UNL     1      38.911 -24.703 -14.823  0.00  0.00    +0.048 C 
ATOM     16  C   UNL     1      39.230 -25.814 -14.080  0.00  0.00    +0.046 C 
ATOM     17  C   UNL     1      40.518 -26.333 -13.592  0.00  0.00    +0.049 C 
ATOM     18  H   UNL     1      37.378 -23.074 -16.046  0.00  0.00    +0.156 HD
ATOM     19  H   UNL     1      37.986 -27.278 -13.304  0.00  0.00    +0.174 HD
ENDROOT
BRANCH   7  20
ATOM     20  C   UNL     1      32.268 -24.408 -14.356  0.00  0.00    +0.243 C 
BRANCH  20  22
ATOM     21  F   UNL     1      26.906 -23.290 -15.757  0.00  0.00    -0.204 F 
ATOM     22  C   UNL     1      30.822 -24.107 -14.734  0.00  0.00    +0.021 C 
ATOM     23  C   UNL     1      30.057 -25.071 -15.390  0.00  0.00    +0.001 C 
ATOM     24  C   UNL     1      30.264 -22.867 -14.424  0.00  0.00    +0.001 C 
ATOM     25  C   UNL     1      28.734 -24.796 -15.735  0.00  0.00    +0.029 C 
ATOM     26  C   UNL     1      28.941 -22.590 -14.770  0.00  0.00    +0.029 C 
ATOM     27  C   UNL     1      28.176 -23.556 -15.426  0.00  0.00    +0.140 C 
ENDBRANCH  20  22
BRANCH  20  28
ATOM     28  O   UNL     1      32.412 -25.820 -14.118  0.00  0.00    -0.366 OA
ATOM     29  H   UNL     1      33.346 -26.027 -13.954  0.00  0.00    +0.212 HD
ENDBRANCH  20  28
ENDBRANCH   7  20
TORSDOF 3
ENDMDL
MODEL 4
REMARK VINA RESULT:     -10.8      2.902      7.104
REMARK  Name = 46892373
REMARK  3 active torsions:
REMARK  status: ('A' for Active; 'I' for Inactive)
REMARK    1  A    between atoms: C_7  and  C_20
REMARK    2  A    between atoms: C_20  and  C_22
REMARK    3  A    between atoms: C_20  and  O_28
REMARK                            x       y       z     vdW  Elec       q    Type
REMARK                         _______ _______ _______ _____ _____    ______ ____
ROOT
ATOM      1  N   UNL     1      34.184 -24.016 -16.798  0.00  0.00    -0.326 NA
ATOM      2  N   UNL     1      34.763 -24.693 -14.620  0.00  0.00    -0.271 N 
ATOM      3  N   UNL     1      32.005 -23.096 -17.262  0.00  0.00    -0.345 NA
ATOM      4  N   UNL     1      38.188 -24.310 -15.037  0.00  0.00    -0.239 N 
ATOM      5  N   UNL     1      36.951 -24.055 -15.494  0.00  0.00    -0.166 NA
ATOM      6  C   UNL     1      32.556 -23.775 -15.028  0.00  0.00    +0.072 C 
ATOM      7  C   UNL     1      33.248 -23.492 -17.605  0.00  0.00    +0.146 C 
ATOM      8  C   UNL     1      33.807 -24.144 -15.512  0.00  0.00    +0.199 C 
ATOM      9  C   UNL     1      31.662 -23.239 -15.969  0.00  0.00    +0.129 C 
ATOM     10  C   UNL     1      32.186 -23.919 -13.680  0.00  0.00    +0.006 C 
ATOM     11  C   UNL     1      30.399 -22.857 -15.522  0.00  0.00    +0.086 C 
ATOM     12  C   UNL     1      36.167 -24.662 -14.600  0.00  0.00    +0.152 C 
ATOM     13  C   UNL     1      30.918 -23.529 -13.260  0.00  0.00    -0.004 C 
ATOM     14  C   UNL     1      30.024 -22.997 -14.183  0.00  0.00    -0.019 C 
ATOM     15  C   UNL     1      36.897 -25.300 -13.580  0.00  0.00    +0.048 C 
ATOM     16  C   UNL     1      38.212 -25.052 -13.894  0.00  0.00    +0.046 C 
ATOM     17  C   UNL     1      39.469 -25.439 -13.235  0.00  0.00    +0.049 C 
ATOM     18  H   UNL     1      34.366 -25.193 -13.871  0.00  0.00    +0.156 HD
ATOM     19  H   UNL     1      39.004 -23.990 -15.488  0.00  0.00    +0.174 HD
ENDROOT
BRANCH   7  20
ATOM     20  C   UNL     1      33.621 -23.331 -19.041  0.00  0.00    +0.243 C 
BRANCH  20  22
ATOM     21  F   UNL     1      37.550 -19.368 -19.944  0.00  0.00    -0.204 F 
ATOM     22  C   UNL     1      34.680 -22.262 -19.284  0.00  0.00    +0.021 C 
ATOM     23  C   UNL     1      34.441 -21.240 -20.203  0.00  0.00    +0.001 C 
ATOM     24  C   UNL     1      35.888 -22.307 -18.589  0.00  0.00    +0.001 C 
ATOM     25  C   UNL     1      35.410 -20.262 -20.425  0.00  0.00    +0.029 C 
ATOM     26  C   UNL     1      36.859 -21.329 -18.812  0.00  0.00    +0.029 C 
ATOM     27  C   UNL     1      36.619 -20.307 -19.731  0.00  0.00    +0.140 C 
ENDBRANCH  20  22
BRANCH  20  28
ATOM     28  O   UNL     1      34.051 -24.569 -19.634  0.00  0.00    -0.366 OA
ATOM     29  H   UNL     1      33.808 -25.308 -19.054  0.00  0.00    +0.212 HD
ENDBRANCH  20  28
ENDBRANCH   7  20
TORSDOF 3
ENDMDL
MODEL 5
REMARK VINA RESULT:     -10.7      3.119      5.587
REMARK  Name = 46892373
REMARK  3 active torsions:
REMARK  status: ('A' for Active; 'I' for Inactive)
REMARK    1  A    between atoms: C_7  and  C_20
REMARK    2  A    between atoms: C_20  and  C_22
REMARK    3  A    between atoms: C_20  and  O_28
REMARK                            x       y       z     vdW  Elec       q    Type
REMARK                         _______ _______ _______ _____ _____    ______ ____
ROOT
ATOM      1  N   UNL     1      32.241 -23.120 -17.085  0.00  0.00    -0.326 NA
ATOM      2  N   UNL     1      30.900 -22.915 -15.162  0.00  0.00    -0.271 N 
ATOM      3  N   UNL     1      34.486 -23.984 -16.932  0.00  0.00    -0.345 NA
ATOM      4  N   UNL     1      27.864 -23.092 -16.837  0.00  0.00    -0.239 N 
ATOM      5  N   UNL     1      29.194 -23.280 -16.870  0.00  0.00    -0.166 NA
ATOM      6  C   UNL     1      33.151 -23.790 -14.948  0.00  0.00    +0.072 C 
ATOM      7  C   UNL     1      33.426 -23.485 -17.599  0.00  0.00    +0.146 C 
ATOM      8  C   UNL     1      32.134 -23.286 -15.753  0.00  0.00    +0.199 C 
ATOM      9  C   UNL     1      34.345 -24.136 -15.603  0.00  0.00    +0.129 C 
ATOM     10  C   UNL     1      33.015 -23.953 -13.559  0.00  0.00    +0.006 C 
ATOM     11  C   UNL     1      35.386 -24.645 -14.830  0.00  0.00    +0.086 C 
ATOM     12  C   UNL     1      29.582 -22.906 -15.648  0.00  0.00    +0.152 C 
ATOM     13  C   UNL     1      34.071 -24.464 -12.811  0.00  0.00    -0.004 C 
ATOM     14  C   UNL     1      35.258 -24.810 -13.448  0.00  0.00    -0.019 C 
ATOM     15  C   UNL     1      28.509 -22.483 -14.842  0.00  0.00    +0.048 C 
ATOM     16  C   UNL     1      27.403 -22.616 -15.646  0.00  0.00    +0.046 C 
ATOM     17  C   UNL     1      25.977 -22.342 -15.409  0.00  0.00    +0.049 C 
ATOM     18  H   UNL     1      30.982 -22.602 -14.233  0.00  0.00    +0.156 HD
ATOM     19  H   UNL     1      27.276 -23.281 -17.605  0.00  0.00    +0.174 HD
ENDROOT
BRANCH   7  20
ATOM     20  C   UNL     1      33.591 -23.319 -19.073  0.00  0.00    +0.243 C 
BRANCH  20  22
ATOM     21  F   UNL     1      37.039 -19.078 -20.517  0.00  0.00    -0.204 F 
ATOM     22  C   UNL     1      34.521 -22.176 -19.463  0.00  0.00    +0.021 C 
ATOM     23  C   UNL     1      35.869 -22.223 -19.109  0.00  0.00    +0.001 C 
ATOM     24  C   UNL     1      34.024 -21.082 -20.172  0.00  0.00    +0.001 C 
ATOM     25  C   UNL     1      36.721 -21.177 -19.466  0.00  0.00    +0.029 C 
ATOM     26  C   UNL     1      34.874 -20.035 -20.528  0.00  0.00    +0.029 C 
ATOM     27  C   UNL     1      36.223 -20.083 -20.175  0.00  0.00    +0.140 C 
ENDBRANCH  20  22
BRANCH  20  28
ATOM     28  O   UNL     1      34.034 -24.530 -19.712  0.00  0.00    -0.366 OA
ATOM     29  H   UNL     1      33.274 -25.113 -19.865  0.00  0.00    +0.212 HD
ENDBRANCH  20  28
ENDBRANCH   7  20
TORSDOF 3
ENDMDL
MODEL 6
REMARK VINA RESULT:     -10.4      2.820      5.759
REMARK  Name = 46892373
REMARK  3 active torsions:
REMARK  status: ('A' for Active; 'I' for Inactive)
REMARK    1  A    between atoms: C_7  and  C_20
REMARK    2  A    between atoms: C_20  and  C_22
REMARK    3  A    between atoms: C_20  and  O_28
REMARK                            x       y       z     vdW  Elec       q    Type
REMARK                         _______ _______ _______ _____ _____    ______ ____
ROOT
ATOM      1  N   UNL     1      35.715 -22.970 -15.386  0.00  0.00    -0.326 NA
ATOM      2  N   UNL     1      34.076 -23.713 -13.869  0.00  0.00    -0.271 N 
ATOM      3  N   UNL     1      37.989 -23.748 -15.219  0.00  0.00    -0.345 NA
ATOM      4  N   UNL     1      31.376 -23.173 -15.983  0.00  0.00    -0.239 N 
ATOM      5  N   UNL     1      32.707 -23.290 -15.845  0.00  0.00    -0.166 NA
ATOM      6  C   UNL     1      36.349 -24.529 -13.652  0.00  0.00    +0.072 C 
ATOM      7  C   UNL     1      36.998 -23.024 -15.776  0.00  0.00    +0.146 C 
ATOM      8  C   UNL     1      35.421 -23.736 -14.319  0.00  0.00    +0.199 C 
ATOM      9  C   UNL     1      37.661 -24.502 -14.154  0.00  0.00    +0.129 C 
ATOM     10  C   UNL     1      36.018 -25.320 -12.539  0.00  0.00    +0.006 C 
ATOM     11  C   UNL     1      38.619 -25.284 -13.513  0.00  0.00    +0.086 C 
ATOM     12  C   UNL     1      32.857 -23.514 -14.537  0.00  0.00    +0.152 C 
ATOM     13  C   UNL     1      36.995 -26.091 -11.917  0.00  0.00    -0.004 C 
ATOM     14  C   UNL     1      38.296 -26.073 -12.405  0.00  0.00    -0.019 C 
ATOM     15  C   UNL     1      31.632 -23.540 -13.845  0.00  0.00    +0.048 C 
ATOM     16  C   UNL     1      30.686 -23.314 -14.815  0.00  0.00    +0.046 C 
ATOM     17  C   UNL     1      29.219 -23.218 -14.754  0.00  0.00    +0.049 C 
ATOM     18  H   UNL     1      33.979 -23.863 -12.901  0.00  0.00    +0.156 HD
ATOM     19  H   UNL     1      30.938 -23.001 -16.848  0.00  0.00    +0.174 HD
ENDROOT
BRANCH   7  20
ATOM     20  C   UNL     1      37.370 -22.191 -16.957  0.00  0.00    +0.243 C 
BRANCH  20  22
ATOM     21  F   UNL     1      33.131 -21.392 -20.610  0.00  0.00    -0.204 F 
ATOM     22  C   UNL     1      36.228 -21.976 -17.942  0.00  0.00    +0.021 C 
ATOM     23  C   UNL     1      36.423 -21.186 -19.075  0.00  0.00    +0.001 C 
ATOM     24  C   UNL     1      34.986 -22.567 -17.711  0.00  0.00    +0.001 C 
ATOM     25  C   UNL     1      35.377 -20.989 -19.977  0.00  0.00    +0.029 C 
ATOM     26  C   UNL     1      33.939 -22.370 -18.612  0.00  0.00    +0.029 C 
ATOM     27  C   UNL     1      34.135 -21.581 -19.745  0.00  0.00    +0.140 C 
ENDBRANCH  20  22
BRANCH  20  28
ATOM     28  O   UNL     1      37.913 -20.915 -16.573  0.00  0.00    -0.366 OA
ATOM     29  H   UNL     1      38.215 -20.955 -15.652  0.00  0.00    +0.212 HD
ENDBRANCH  20  28
ENDBRANCH   7  20
TORSDOF 3
ENDMDL
MODEL 7
REMARK VINA RESULT:     -10.4      2.982      6.093
REMARK  Name = 46892373
REMARK  3 active torsions:
REMARK  status: ('A' for Active; 'I' for Inactive)
REMARK    1  A    between atoms: C_7  and  C_20
REMARK    2  A    between atoms: C_20  and  C_22
REMARK    3  A    between atoms: C_20  and  O_28
REMARK                            x       y       z     vdW  Elec       q    Type
REMARK                         _______ _______ _______ _____ _____    ______ ____
ROOT
ATOM      1  N   UNL     1      33.501 -23.361 -16.417  0.00  0.00    -0.326 NA
ATOM      2  N   UNL     1      35.810 -23.395 -15.966  0.00  0.00    -0.271 N 
ATOM      3  N   UNL     1      32.652 -22.303 -18.409  0.00  0.00    -0.345 NA
ATOM      4  N   UNL     1      35.732 -26.233 -13.968  0.00  0.00    -0.239 N 
ATOM      5  N   UNL     1      35.102 -25.454 -14.863  0.00  0.00    -0.166 NA
ATOM      6  C   UNL     1      35.013 -22.315 -17.985  0.00  0.00    +0.072 C 
ATOM      7  C   UNL     1      32.520 -22.980 -17.251  0.00  0.00    +0.146 C 
ATOM      8  C   UNL     1      34.739 -23.014 -16.813  0.00  0.00    +0.199 C 
ATOM      9  C   UNL     1      33.903 -21.971 -18.775  0.00  0.00    +0.129 C 
ATOM     10  C   UNL     1      36.316 -21.962 -18.378  0.00  0.00    +0.006 C 
ATOM     11  C   UNL     1      34.137 -21.271 -19.957  0.00  0.00    +0.086 C 
ATOM     12  C   UNL     1      35.986 -24.479 -15.091  0.00  0.00    +0.152 C 
ATOM     13  C   UNL     1      36.521 -21.263 -19.562  0.00  0.00    -0.004 C 
ATOM     14  C   UNL     1      35.430 -20.918 -20.353  0.00  0.00    -0.019 C 
ATOM     15  C   UNL     1      37.170 -24.633 -14.346  0.00  0.00    +0.048 C 
ATOM     16  C   UNL     1      36.973 -25.785 -13.625  0.00  0.00    +0.046 C 
ATOM     17  C   UNL     1      37.824 -26.496 -12.657  0.00  0.00    +0.049 C 
ATOM     18  H   UNL     1      36.578 -22.780 -15.996  0.00  0.00    +0.156 HD
ATOM     19  H   UNL     1      35.333 -27.052 -13.593  0.00  0.00    +0.174 HD
ENDROOT
BRANCH   7  20
ATOM     20  C   UNL     1      31.129 -23.345 -16.852  0.00  0.00    +0.243 C 
BRANCH  20  22
ATOM     21  F   UNL     1      30.754 -25.596 -11.680  0.00  0.00    -0.204 F 
ATOM     22  C   UNL     1      31.028 -23.952 -15.458  0.00  0.00    +0.021 C 
ATOM     23  C   UNL     1      30.486 -25.226 -15.289  0.00  0.00    +0.001 C 
ATOM     24  C   UNL     1      31.477 -23.233 -14.350  0.00  0.00    +0.001 C 
ATOM     25  C   UNL     1      30.394 -25.782 -14.013  0.00  0.00    +0.029 C 
ATOM     26  C   UNL     1      31.384 -23.788 -13.073  0.00  0.00    +0.029 C 
ATOM     27  C   UNL     1      30.843 -25.063 -12.905  0.00  0.00    +0.140 C 
ENDBRANCH  20  22
BRANCH  20  28
ATOM     28  O   UNL     1      30.224 -22.230 -16.951  0.00  0.00    -0.366 OA
ATOM     29  H   UNL     1      30.726 -21.401 -16.904  0.00  0.00    +0.212 HD
ENDBRANCH  20  28
ENDBRANCH   7  20
TORSDOF 3
ENDMDL
MODEL 8
REMARK VINA RESULT:     -10.3      1.859      4.857
REMARK  Name = 46892373
REMARK  3 active torsions:
REMARK  status: ('A' for Active; 'I' for Inactive)
REMARK    1  A    between atoms: C_7  and  C_20
REMARK    2  A    between atoms: C_20  and  C_22
REMARK    3  A    between atoms: C_20  and  O_28
REMARK                            x       y       z     vdW  Elec       q    Type
REMARK                         _______ _______ _______ _____ _____    ______ ____
ROOT
ATOM      1  N   UNL     1      33.361 -23.856 -14.705  0.00  0.00    -0.326 NA
ATOM      2  N   UNL     1      32.414 -22.987 -16.676  0.00  0.00    -0.271 N 
ATOM      3  N   UNL     1      32.054 -25.223 -13.212  0.00  0.00    -0.345 NA
ATOM      4  N   UNL     1      35.415 -22.672 -18.393  0.00  0.00    -0.239 N 
ATOM      5  N   UNL     1      34.751 -23.194 -17.349  0.00  0.00    -0.166 NA
ATOM      6  C   UNL     1      31.051 -24.356 -15.211  0.00  0.00    +0.072 C 
ATOM      7  C   UNL     1      33.182 -24.594 -13.598  0.00  0.00    +0.146 C 
ATOM      8  C   UNL     1      32.275 -23.756 -15.493  0.00  0.00    +0.199 C 
ATOM      9  C   UNL     1      30.987 -25.102 -14.022  0.00  0.00    +0.129 C 
ATOM     10  C   UNL     1      29.930 -24.237 -16.050  0.00  0.00    +0.006 C 
ATOM     11  C   UNL     1      29.779 -25.719 -13.705  0.00  0.00    +0.086 C 
ATOM     12  C   UNL     1      33.511 -22.727 -17.513  0.00  0.00    +0.152 C 
ATOM     13  C   UNL     1      28.735 -24.862 -15.709  0.00  0.00    -0.004 C 
ATOM     14  C   UNL     1      28.660 -25.604 -14.536  0.00  0.00    -0.019 C 
ATOM     15  C   UNL     1      33.384 -21.911 -18.653  0.00  0.00    +0.048 C 
ATOM     16  C   UNL     1      34.642 -21.895 -19.204  0.00  0.00    +0.046 C 
ATOM     17  C   UNL     1      35.182 -21.230 -20.401  0.00  0.00    +0.049 C 
ATOM     18  H   UNL     1      31.581 -22.550 -16.966  0.00  0.00    +0.156 HD
ATOM     19  H   UNL     1      36.373 -22.834 -18.557  0.00  0.00    +0.174 HD
ENDROOT
BRANCH   7  20
ATOM     20  C   UNL     1      34.361 -24.732 -12.693  0.00  0.00    +0.243 C 
BRANCH  20  22
ATOM     21  F   UNL     1      39.334 -24.457 -15.366  0.00  0.00    -0.204 F 
ATOM     22  C   UNL     1      35.701 -24.658 -13.414  0.00  0.00    +0.021 C 
ATOM     23  C   UNL     1      36.253 -25.807 -13.982  0.00  0.00    +0.001 C 
ATOM     24  C   UNL     1      36.378 -23.442 -13.505  0.00  0.00    +0.001 C 
ATOM     25  C   UNL     1      37.480 -25.739 -14.642  0.00  0.00    +0.029 C 
ATOM     26  C   UNL     1      37.606 -23.373 -14.165  0.00  0.00    +0.029 C 
ATOM     27  C   UNL     1      38.156 -24.523 -14.733  0.00  0.00    +0.140 C 
ENDBRANCH  20  22
BRANCH  20  28
ATOM     28  O   UNL     1      34.343 -23.769 -11.624  0.00  0.00    -0.366 OA
ATOM     29  H   UNL     1      34.336 -22.873 -11.995  0.00  0.00    +0.212 HD
ENDBRANCH  20  28
ENDBRANCH   7  20
TORSDOF 3
ENDMDL
MODEL 9
REMARK VINA RESULT:     -10.0      3.497      6.983
REMARK  Name = 46892373
REMARK  3 active torsions:
REMARK  status: ('A' for Active; 'I' for Inactive)
REMARK    1  A    between atoms: C_7  and  C_20
REMARK    2  A    between atoms: C_20  and  C_22
REMARK    3  A    between atoms: C_20  and  O_28
REMARK                            x       y       z     vdW  Elec       q    Type
REMARK                         _______ _______ _______ _____ _____    ______ ____
ROOT
ATOM      1  N   UNL     1      32.548 -24.376 -15.059  0.00  0.00    -0.326 NA
ATOM      2  N   UNL     1      34.333 -23.548 -16.350  0.00  0.00    -0.271 N 
ATOM      3  N   UNL     1      32.888 -25.020 -12.762  0.00  0.00    -0.345 NA
ATOM      4  N   UNL     1      32.354 -21.750 -18.565  0.00  0.00    -0.239 N 
ATOM      5  N   UNL     1      32.448 -22.401 -17.394  0.00  0.00    -0.166 NA
ATOM      6  C   UNL     1      34.734 -24.181 -14.044  0.00  0.00    +0.072 C 
ATOM      7  C   UNL     1      32.140 -24.846 -13.870  0.00  0.00    +0.146 C 
ATOM      8  C   UNL     1      33.853 -24.051 -15.115  0.00  0.00    +0.199 C 
ATOM      9  C   UNL     1      34.188 -24.685 -12.852  0.00  0.00    +0.129 C 
ATOM     10  C   UNL     1      36.093 -23.836 -14.127  0.00  0.00    +0.006 C 
ATOM     11  C   UNL     1      35.037 -24.830 -11.758  0.00  0.00    +0.086 C 
ATOM     12  C   UNL     1      33.718 -22.813 -17.377  0.00  0.00    +0.152 C 
ATOM     13  C   UNL     1      36.920 -23.990 -13.019  0.00  0.00    -0.004 C 
ATOM     14  C   UNL     1      36.391 -24.488 -11.833  0.00  0.00    -0.019 C 
ATOM     15  C   UNL     1      34.430 -22.428 -18.528  0.00  0.00    +0.048 C 
ATOM     16  C   UNL     1      33.513 -21.738 -19.283  0.00  0.00    +0.046 C 
ATOM     17  C   UNL     1      33.617 -21.077 -20.594  0.00  0.00    +0.049 C 
ATOM     18  H   UNL     1      35.279 -23.756 -16.524  0.00  0.00    +0.156 HD
ATOM     19  H   UNL     1      31.524 -21.322 -18.877  0.00  0.00    +0.174 HD
ENDROOT
BRANCH   7  20
ATOM     20  C   UNL     1      30.699 -25.219 -13.761  0.00  0.00    +0.243 C 
BRANCH  20  22
ATOM     21  F   UNL     1      27.337 -22.400 -17.326  0.00  0.00    -0.204 F 
ATOM     22  C   UNL     1      29.793 -24.459 -14.723  0.00  0.00    +0.021 C 
ATOM     23  C   UNL     1      29.643 -23.078 -14.595  0.00  0.00    +0.001 C 
ATOM     24  C   UNL     1      29.112 -25.144 -15.729  0.00  0.00    +0.001 C 
ATOM     25  C   UNL     1      28.814 -22.382 -15.475  0.00  0.00    +0.029 C 
ATOM     26  C   UNL     1      28.282 -24.449 -16.609  0.00  0.00    +0.029 C 
ATOM     27  C   UNL     1      28.133 -23.067 -16.481  0.00  0.00    +0.140 C 
ENDBRANCH  20  22
BRANCH  20  28
ATOM     28  O   UNL     1      30.489 -26.633 -13.929  0.00  0.00    -0.366 OA
ATOM     29  H   UNL     1      30.177 -26.810 -14.830  0.00  0.00    +0.212 HD
ENDBRANCH  20  28
ENDBRANCH   7  20
TORSDOF 3
ENDMDL
