MODEL 1
REMARK VINA RESULT:     -11.6      0.000      0.000
REMARK  Name = 3478
REMARK  7 active torsions:
REMARK  status: ('A' for Active; 'I' for Inactive)
REMARK    1  A    between atoms: C_1  and  S_7
REMARK    2  A    between atoms: C_2  and  C_22
REMARK    3  A    between atoms: S_7  and  N_12
REMARK    4  A    between atoms: N_11  and  C_16
REMARK    5  A    between atoms: C_22  and  C_23
REMARK    6  A    between atoms: C_23  and  N_25
REMARK    7  A    between atoms: C_26  and  C_30
REMARK                            x       y       z     vdW  Elec       q    Type
REMARK                         _______ _______ _______ _____ _____    ______ ____
ROOT
ATOM      1  C   UNL     1      34.311 -22.230 -18.737  0.00  0.00    +0.125 C 
ATOM      2  C   UNL     1      35.576 -20.411 -20.430  0.00  0.00    -0.020 C 
ATOM      3  C   UNL     1      35.702 -22.142 -18.752  0.00  0.00    +0.020 C 
ATOM      4  C   UNL     1      33.551 -21.409 -19.569  0.00  0.00    +0.020 C 
ATOM      5  C   UNL     1      36.335 -21.233 -19.598  0.00  0.00    -0.003 C 
ATOM      6  C   UNL     1      34.184 -20.499 -20.417  0.00  0.00    -0.003 C 
ENDROOT
BRANCH   1   7
ATOM      7  S   UNL     1      33.509 -23.383 -17.663  0.00  0.00    +0.077 S 
ATOM      8  O   UNL     1      33.396 -24.648 -18.363  0.00  0.00    -0.150 OA
ATOM      9  O   UNL     1      32.327 -22.721 -17.144  0.00  0.00    -0.150 OA
BRANCH   7  12
ATOM     10  O   UNL     1      33.425 -24.802 -14.901  0.00  0.00    -0.251 OA
ATOM     11  N   UNL     1      35.583 -24.174 -14.361  0.00  0.00    -0.289 N 
ATOM     12  N   UNL     1      34.667 -23.528 -16.415  0.00  0.00    -0.169 N 
ATOM     13  C   UNL     1      34.472 -24.225 -15.180  0.00  0.00    +0.319 C 
ATOM     14  H   UNL     1      36.378 -23.684 -14.676  0.00  0.00    +0.151 HD
ATOM     15  H   UNL     1      35.540 -23.096 -16.556  0.00  0.00    +0.178 HD
BRANCH  11  16
ATOM     16  C   UNL     1      35.633 -24.808 -13.063  0.00  0.00    +0.073 C 
ATOM     17  C   UNL     1      35.847 -23.774 -11.952  0.00  0.00    +0.020 C 
ATOM     18  C   UNL     1      36.711 -25.897 -13.022  0.00  0.00    +0.020 C 
ATOM     19  C   UNL     1      37.264 -23.200 -11.953  0.00  0.00    +0.002 C 
ATOM     20  C   UNL     1      38.126 -25.320 -13.022  0.00  0.00    +0.002 C 
ATOM     21  C   UNL     1      38.318 -24.302 -11.901  0.00  0.00    +0.000 C 
ENDBRANCH  11  16
ENDBRANCH   7  12
ENDBRANCH   1   7
BRANCH   2  22
ATOM     22  C   UNL     1      36.252 -19.438 -21.337  0.00  0.00    +0.048 C 
BRANCH  22  23
ATOM     23  C   UNL     1      35.462 -19.144 -22.618  0.00  0.00    +0.094 C 
BRANCH  23  25
ATOM     24  O   UNL     1      34.467 -17.827 -24.968  0.00  0.00    -0.269 OA
ATOM     25  N   UNL     1      35.122 -17.752 -22.743  0.00  0.00    -0.300 N 
ATOM     26  C   UNL     1      34.646 -17.200 -23.927  0.00  0.00    +0.261 C 
ATOM     27  H   UNL     1      35.232 -17.167 -21.959  0.00  0.00    +0.150 HD
BRANCH  26  30
ATOM     28  N   UNL     1      34.774 -15.068 -22.807  0.00  0.00    -0.262 NA
ATOM     29  N   UNL     1      33.463 -13.792 -24.934  0.00  0.00    -0.270 NA
ATOM     30  C   UNL     1      34.366 -15.741 -23.900  0.00  0.00    +0.132 C 
ATOM     31  C   UNL     1      33.722 -15.115 -24.946  0.00  0.00    +0.174 C 
ATOM     32  C   UNL     1      33.870 -13.118 -23.840  0.00  0.00    +0.057 C 
ATOM     33  C   UNL     1      34.515 -13.745 -22.795  0.00  0.00    +0.166 C 
ATOM     34  C   UNL     1      33.601 -11.655 -23.793  0.00  0.00    +0.049 C 
ENDBRANCH  26  30
ENDBRANCH  23  25
ENDBRANCH  22  23
ENDBRANCH   2  22
TORSDOF 7
ENDMDL
MODEL 2
REMARK VINA RESULT:     -11.3      1.822      2.418
REMARK  Name = 3478
REMARK  7 active torsions:
REMARK  status: ('A' for Active; 'I' for Inactive)
REMARK    1  A    between atoms: C_1  and  S_7
REMARK    2  A    between atoms: C_2  and  C_22
REMARK    3  A    between atoms: S_7  and  N_12
REMARK    4  A    between atoms: N_11  and  C_16
REMARK    5  A    between atoms: C_22  and  C_23
REMARK    6  A    between atoms: C_23  and  N_25
REMARK    7  A    between atoms: C_26  and  C_30
REMARK                            x       y       z     vdW  Elec       q    Type
REMARK                         _______ _______ _______ _____ _____    ______ ____
ROOT
ATOM      1  C   UNL     1      34.005 -22.063 -19.075  0.00  0.00    +0.125 C 
ATOM      2  C   UNL     1      34.757 -20.110 -20.918  0.00  0.00    -0.020 C 
ATOM      3  C   UNL     1      33.033 -21.278 -19.696  0.00  0.00    +0.020 C 
ATOM      4  C   UNL     1      35.353 -21.872 -19.375  0.00  0.00    +0.020 C 
ATOM      5  C   UNL     1      33.409 -20.301 -20.616  0.00  0.00    -0.003 C 
ATOM      6  C   UNL     1      35.729 -20.894 -20.297  0.00  0.00    -0.003 C 
ENDROOT
BRANCH   1   7
ATOM      7  S   UNL     1      33.527 -23.302 -17.907  0.00  0.00    +0.077 S 
ATOM      8  O   UNL     1      33.445 -24.571 -18.605  0.00  0.00    -0.150 OA
ATOM      9  O   UNL     1      32.380 -22.781 -17.189  0.00  0.00    -0.150 OA
BRANCH   7  12
ATOM     10  O   UNL     1      34.010 -24.600 -15.127  0.00  0.00    -0.251 OA
ATOM     11  N   UNL     1      36.176 -23.805 -14.980  0.00  0.00    -0.289 N 
ATOM     12  N   UNL     1      34.885 -23.313 -16.870  0.00  0.00    -0.169 N 
ATOM     13  C   UNL     1      34.951 -23.967 -15.598  0.00  0.00    +0.319 C 
ATOM     14  H   UNL     1      36.868 -23.277 -15.442  0.00  0.00    +0.151 HD
ATOM     15  H   UNL     1      35.688 -22.830 -17.171  0.00  0.00    +0.178 HD
BRANCH  11  16
ATOM     16  C   UNL     1      36.488 -24.376 -13.690  0.00  0.00    +0.073 C 
ATOM     17  C   UNL     1      37.969 -24.185 -13.345  0.00  0.00    +0.020 C 
ATOM     18  C   UNL     1      36.090 -25.855 -13.631  0.00  0.00    +0.020 C 
ATOM     19  C   UNL     1      38.884 -25.074 -14.187  0.00  0.00    +0.002 C 
ATOM     20  C   UNL     1      37.008 -26.741 -14.472  0.00  0.00    +0.002 C 
ATOM     21  C   UNL     1      38.475 -26.542 -14.103  0.00  0.00    +0.000 C 
ENDBRANCH  11  16
ENDBRANCH   7  12
ENDBRANCH   1   7
BRANCH   2  22
ATOM     22  C   UNL     1      35.161 -19.065 -21.903  0.00  0.00    +0.048 C 
BRANCH  22  23
ATOM     23  C   UNL     1      35.801 -17.829 -21.257  0.00  0.00    +0.094 C 
BRANCH  23  25
ATOM     24  O   UNL     1      35.243 -15.649 -23.041  0.00  0.00    -0.269 OA
ATOM     25  N   UNL     1      34.852 -16.769 -21.047  0.00  0.00    -0.300 N 
ATOM     26  C   UNL     1      34.648 -15.750 -21.971  0.00  0.00    +0.261 C 
ATOM     27  H   UNL     1      34.325 -16.764 -20.215  0.00  0.00    +0.150 HD
BRANCH  26  30
ATOM     28  N   UNL     1      33.488 -13.692 -22.455  0.00  0.00    -0.262 NA
ATOM     29  N   UNL     1      32.027 -13.873 -20.067  0.00  0.00    -0.270 NA
ATOM     30  C   UNL     1      33.652 -14.715 -21.593  0.00  0.00    +0.132 C 
ATOM     31  C   UNL     1      32.934 -14.805 -20.420  0.00  0.00    +0.174 C 
ATOM     32  C   UNL     1      31.863 -12.849 -20.928  0.00  0.00    +0.057 C 
ATOM     33  C   UNL     1      32.581 -12.760 -22.101  0.00  0.00    +0.166 C 
ATOM     34  C   UNL     1      30.868 -11.801 -20.570  0.00  0.00    +0.049 C 
ENDBRANCH  26  30
ENDBRANCH  23  25
ENDBRANCH  22  23
ENDBRANCH   2  22
TORSDOF 7
ENDMDL
MODEL 3
REMARK VINA RESULT:     -11.3      5.188     13.206
REMARK  Name = 3478
REMARK  7 active torsions:
REMARK  status: ('A' for Active; 'I' for Inactive)
REMARK    1  A    between atoms: C_1  and  S_7
REMARK    2  A    between atoms: C_2  and  C_22
REMARK    3  A    between atoms: S_7  and  N_12
REMARK    4  A    between atoms: N_11  and  C_16
REMARK    5  A    between atoms: C_22  and  C_23
REMARK    6  A    between atoms: C_23  and  N_25
REMARK    7  A    between atoms: C_26  and  C_30
REMARK                            x       y       z     vdW  Elec       q    Type
REMARK                         _______ _______ _______ _____ _____    ______ ____
ROOT
ATOM      1  C   UNL     1      32.133 -12.879 -20.850  0.00  0.00    +0.125 C 
ATOM      2  C   UNL     1      33.513 -15.031 -21.964  0.00  0.00    -0.020 C 
ATOM      3  C   UNL     1      32.359 -14.029 -20.095  0.00  0.00    +0.020 C 
ATOM      4  C   UNL     1      32.597 -12.804 -22.162  0.00  0.00    +0.020 C 
ATOM      5  C   UNL     1      33.048 -15.106 -20.652  0.00  0.00    -0.003 C 
ATOM      6  C   UNL     1      33.287 -13.881 -22.720  0.00  0.00    -0.003 C 
ENDROOT
BRANCH   1   7
ATOM      7  S   UNL     1      31.258 -11.514 -20.143  0.00  0.00    +0.077 S 
ATOM      8  O   UNL     1      31.846 -11.223 -18.850  0.00  0.00    -0.150 OA
ATOM      9  O   UNL     1      29.845 -11.818 -20.258  0.00  0.00    -0.150 OA
BRANCH   7  12
ATOM     10  O   UNL     1      32.696  -8.788 -19.760  0.00  0.00    -0.251 OA
ATOM     11  N   UNL     1      32.519  -8.226 -21.995  0.00  0.00    -0.289 N 
ATOM     12  N   UNL     1      31.658 -10.266 -21.240  0.00  0.00    -0.169 N 
ATOM     13  C   UNL     1      32.331  -9.049 -20.903  0.00  0.00    +0.319 C 
ATOM     14  H   UNL     1      32.188  -8.527 -22.873  0.00  0.00    +0.151 HD
ATOM     15  H   UNL     1      31.403 -10.395 -22.183  0.00  0.00    +0.178 HD
BRANCH  11  16
ATOM     16  C   UNL     1      33.179  -6.943 -21.909  0.00  0.00    +0.073 C 
ATOM     17  C   UNL     1      32.211  -5.854 -21.435  0.00  0.00    +0.020 C 
ATOM     18  C   UNL     1      33.827  -6.566 -23.246  0.00  0.00    +0.020 C 
ATOM     19  C   UNL     1      31.182  -5.482 -22.503  0.00  0.00    +0.002 C 
ATOM     20  C   UNL     1      32.797  -6.193 -24.311  0.00  0.00    +0.002 C 
ATOM     21  C   UNL     1      31.851  -5.100 -23.820  0.00  0.00    +0.000 C 
ENDBRANCH  11  16
ENDBRANCH   7  12
ENDBRANCH   1   7
BRANCH   2  22
ATOM     22  C   UNL     1      34.251 -16.182 -22.561  0.00  0.00    +0.048 C 
BRANCH  22  23
ATOM     23  C   UNL     1      35.414 -16.680 -21.694  0.00  0.00    +0.094 C 
BRANCH  23  25
ATOM     24  O   UNL     1      35.312 -19.392 -22.629  0.00  0.00    -0.269 OA
ATOM     25  N   UNL     1      35.062 -17.841 -20.923  0.00  0.00    -0.300 N 
ATOM     26  C   UNL     1      35.039 -19.122 -21.462  0.00  0.00    +0.261 C 
ATOM     27  H   UNL     1      34.827 -17.724 -19.973  0.00  0.00    +0.150 HD
BRANCH  26  30
ATOM     28  N   UNL     1      35.619 -20.886 -19.924  0.00  0.00    -0.262 NA
ATOM     29  N   UNL     1      32.915 -21.498 -19.497  0.00  0.00    -0.270 NA
ATOM     30  C   UNL     1      34.629 -20.212 -20.541  0.00  0.00    +0.132 C 
ATOM     31  C   UNL     1      33.301 -20.512 -20.331  0.00  0.00    +0.174 C 
ATOM     32  C   UNL     1      33.906 -22.174 -18.880  0.00  0.00    +0.057 C 
ATOM     33  C   UNL     1      35.234 -21.873 -19.090  0.00  0.00    +0.166 C 
ATOM     34  C   UNL     1      33.517 -23.270 -17.951  0.00  0.00    +0.049 C 
ENDBRANCH  26  30
ENDBRANCH  23  25
ENDBRANCH  22  23
ENDBRANCH   2  22
TORSDOF 7
ENDMDL
MODEL 4
REMARK VINA RESULT:     -11.1      2.501     11.512
REMARK  Name = 3478
REMARK  7 active torsions:
REMARK  status: ('A' for Active; 'I' for Inactive)
REMARK    1  A    between atoms: C_1  and  S_7
REMARK    2  A    between atoms: C_2  and  C_22
REMARK    3  A    between atoms: S_7  and  N_12
REMARK    4  A    between atoms: N_11  and  C_16
REMARK    5  A    between atoms: C_22  and  C_23
REMARK    6  A    between atoms: C_23  and  N_25
REMARK    7  A    between atoms: C_26  and  C_30
REMARK                            x       y       z     vdW  Elec       q    Type
REMARK                         _______ _______ _______ _____ _____    ______ ____
ROOT
ATOM      1  C   UNL     1      34.773 -20.599 -20.521  0.00  0.00    +0.125 C 
ATOM      2  C   UNL     1      33.902 -22.516 -18.691  0.00  0.00    -0.020 C 
ATOM      3  C   UNL     1      35.695 -21.439 -19.897  0.00  0.00    +0.020 C 
ATOM      4  C   UNL     1      33.414 -20.717 -20.230  0.00  0.00    +0.020 C 
ATOM      5  C   UNL     1      35.260 -22.397 -18.982  0.00  0.00    -0.003 C 
ATOM      6  C   UNL     1      32.978 -21.676 -19.314  0.00  0.00    -0.003 C 
ENDROOT
BRANCH   1   7
ATOM      7  S   UNL     1      35.325 -19.385 -21.681  0.00  0.00    +0.077 S 
ATOM      8  O   UNL     1      34.666 -19.639 -22.948  0.00  0.00    -0.150 OA
ATOM      9  O   UNL     1      36.772 -19.353 -21.598  0.00  0.00    -0.150 OA
BRANCH   7  12
ATOM     10  O   UNL     1      35.733 -16.382 -22.360  0.00  0.00    -0.251 OA
ATOM     11  N   UNL     1      34.322 -15.668 -20.674  0.00  0.00    -0.289 N 
ATOM     12  N   UNL     1      34.689 -17.958 -20.989  0.00  0.00    -0.169 N 
ATOM     13  C   UNL     1      34.980 -16.625 -21.421  0.00  0.00    +0.319 C 
ATOM     14  H   UNL     1      33.738 -15.967 -19.938  0.00  0.00    +0.151 HD
ATOM     15  H   UNL     1      34.071 -18.061 -20.229  0.00  0.00    +0.178 HD
BRANCH  11  16
ATOM     16  C   UNL     1      34.452 -14.250 -20.921  0.00  0.00    +0.073 C 
ATOM     17  C   UNL     1      33.397 -13.456 -20.143  0.00  0.00    +0.020 C 
ATOM     18  C   UNL     1      34.382 -13.944 -22.421  0.00  0.00    +0.020 C 
ATOM     19  C   UNL     1      31.991 -13.634 -20.715  0.00  0.00    +0.002 C 
ATOM     20  C   UNL     1      32.974 -14.122 -22.990  0.00  0.00    +0.002 C 
ATOM     21  C   UNL     1      31.945 -13.314 -22.207  0.00  0.00    +0.000 C 
ENDBRANCH  11  16
ENDBRANCH   7  12
ENDBRANCH   1   7
BRANCH   2  22
ATOM     22  C   UNL     1      33.435 -23.540 -17.713  0.00  0.00    +0.048 C 
BRANCH  22  23
ATOM     23  C   UNL     1      33.836 -23.231 -16.265  0.00  0.00    +0.094 C 
BRANCH  23  25
ATOM     24  O   UNL     1      34.395 -25.079 -14.140  0.00  0.00    -0.269 OA
ATOM     25  N   UNL     1      35.119 -23.785 -15.923  0.00  0.00    -0.300 N 
ATOM     26  C   UNL     1      35.295 -24.677 -14.872  0.00  0.00    +0.261 C 
ATOM     27  H   UNL     1      35.904 -23.520 -16.456  0.00  0.00    +0.150 HD
BRANCH  26  30
ATOM     28  N   UNL     1      36.861 -26.458 -14.433  0.00  0.00    -0.262 NA
ATOM     29  N   UNL     1      39.010 -24.655 -14.400  0.00  0.00    -0.270 NA
ATOM     30  C   UNL     1      36.688 -25.136 -14.632  0.00  0.00    +0.132 C 
ATOM     31  C   UNL     1      37.743 -24.250 -14.617  0.00  0.00    +0.174 C 
ATOM     32  C   UNL     1      39.185 -25.976 -14.200  0.00  0.00    +0.057 C 
ATOM     33  C   UNL     1      38.129 -26.862 -14.217  0.00  0.00    +0.166 C 
ATOM     34  C   UNL     1      40.572 -26.459 -13.959  0.00  0.00    +0.049 C 
ENDBRANCH  26  30
ENDBRANCH  23  25
ENDBRANCH  22  23
ENDBRANCH   2  22
TORSDOF 7
ENDMDL
MODEL 5
REMARK VINA RESULT:     -10.7      3.117      5.177
REMARK  Name = 3478
REMARK  7 active torsions:
REMARK  status: ('A' for Active; 'I' for Inactive)
REMARK    1  A    between atoms: C_1  and  S_7
REMARK    2  A    between atoms: C_2  and  C_22
REMARK    3  A    between atoms: S_7  and  N_12
REMARK    4  A    between atoms: N_11  and  C_16
REMARK    5  A    between atoms: C_22  and  C_23
REMARK    6  A    between atoms: C_23  and  N_25
REMARK    7  A    between atoms: C_26  and  C_30
REMARK                            x       y       z     vdW  Elec       q    Type
REMARK                         _______ _______ _______ _____ _____    ______ ____
ROOT
ATOM      1  C   UNL     1      36.409 -24.094 -14.817  0.00  0.00    +0.125 C 
ATOM      2  C   UNL     1      36.901 -22.292 -16.889  0.00  0.00    -0.020 C 
ATOM      3  C   UNL     1      37.704 -23.628 -15.044  0.00  0.00    +0.020 C 
ATOM      4  C   UNL     1      35.360 -23.659 -15.625  0.00  0.00    +0.020 C 
ATOM      5  C   UNL     1      37.950 -22.728 -16.080  0.00  0.00    -0.003 C 
ATOM      6  C   UNL     1      35.606 -22.758 -16.663  0.00  0.00    -0.003 C 
ENDROOT
BRANCH   1   7
ATOM      7  S   UNL     1      36.097 -25.235 -13.503  0.00  0.00    +0.077 S 
ATOM      8  O   UNL     1      36.186 -24.514 -12.249  0.00  0.00    -0.150 OA
ATOM      9  O   UNL     1      36.935 -26.393 -13.747  0.00  0.00    -0.150 OA
BRANCH   7  12
ATOM     10  O   UNL     1      33.424 -24.039 -12.470  0.00  0.00    -0.251 OA
ATOM     11  N   UNL     1      32.133 -25.537 -13.668  0.00  0.00    -0.289 N 
ATOM     12  N   UNL     1      34.467 -25.645 -13.807  0.00  0.00    -0.169 N 
ATOM     13  C   UNL     1      33.327 -24.988 -13.243  0.00  0.00    +0.319 C 
ATOM     14  H   UNL     1      32.162 -26.299 -14.291  0.00  0.00    +0.151 HD
ATOM     15  H   UNL     1      34.296 -26.397 -14.420  0.00  0.00    +0.178 HD
BRANCH  11  16
ATOM     16  C   UNL     1      30.844 -25.042 -13.241  0.00  0.00    +0.073 C 
ATOM     17  C   UNL     1      29.706 -25.777 -13.956  0.00  0.00    +0.020 C 
ATOM     18  C   UNL     1      30.740 -23.527 -13.444  0.00  0.00    +0.020 C 
ATOM     19  C   UNL     1      29.595 -25.388 -15.430  0.00  0.00    +0.002 C 
ATOM     20  C   UNL     1      30.627 -23.141 -14.919  0.00  0.00    +0.002 C 
ATOM     21  C   UNL     1      29.481 -23.877 -15.607  0.00  0.00    +0.000 C 
ENDBRANCH  11  16
ENDBRANCH   7  12
ENDBRANCH   1   7
BRANCH   2  22
ATOM     22  C   UNL     1      37.163 -21.329 -17.997  0.00  0.00    +0.048 C 
BRANCH  22  23
ATOM     23  C   UNL     1      36.386 -21.647 -19.281  0.00  0.00    +0.094 C 
BRANCH  23  25
ATOM     24  O   UNL     1      33.909 -20.697 -20.380  0.00  0.00    -0.269 OA
ATOM     25  N   UNL     1      36.204 -20.486 -20.111  0.00  0.00    -0.300 N 
ATOM     26  C   UNL     1      34.961 -20.101 -20.599  0.00  0.00    +0.261 C 
ATOM     27  H   UNL     1      36.992 -19.943 -20.343  0.00  0.00    +0.150 HD
BRANCH  26  30
ATOM     28  N   UNL     1      34.895 -17.702 -20.837  0.00  0.00    -0.262 NA
ATOM     29  N   UNL     1      34.965 -17.906 -23.633  0.00  0.00    -0.270 NA
ATOM     30  C   UNL     1      34.944 -18.893 -21.464  0.00  0.00    +0.132 C 
ATOM     31  C   UNL     1      34.979 -18.994 -22.838  0.00  0.00    +0.174 C 
ATOM     32  C   UNL     1      34.915 -16.714 -23.006  0.00  0.00    +0.057 C 
ATOM     33  C   UNL     1      34.881 -16.614 -21.632  0.00  0.00    +0.166 C 
ATOM     34  C   UNL     1      34.900 -15.490 -23.854  0.00  0.00    +0.049 C 
ENDBRANCH  26  30
ENDBRANCH  23  25
ENDBRANCH  22  23
ENDBRANCH   2  22
TORSDOF 7
ENDMDL
MODEL 6
REMARK VINA RESULT:     -10.5      6.393     10.179
REMARK  Name = 3478
REMARK  7 active torsions:
REMARK  status: ('A' for Active; 'I' for Inactive)
REMARK    1  A    between atoms: C_1  and  S_7
REMARK    2  A    between atoms: C_2  and  C_22
REMARK    3  A    between atoms: S_7  and  N_12
REMARK    4  A    between atoms: N_11  and  C_16
REMARK    5  A    between atoms: C_22  and  C_23
REMARK    6  A    between atoms: C_23  and  N_25
REMARK    7  A    between atoms: C_26  and  C_30
REMARK                            x       y       z     vdW  Elec       q    Type
REMARK                         _______ _______ _______ _____ _____    ______ ____
ROOT
ATOM      1  C   UNL     1      32.836 -13.115 -22.316  0.00  0.00    +0.125 C 
ATOM      2  C   UNL     1      31.640 -11.712 -20.223  0.00  0.00    -0.020 C 
ATOM      3  C   UNL     1      32.681 -13.720 -21.069  0.00  0.00    +0.020 C 
ATOM      4  C   UNL     1      32.393 -11.808 -22.518  0.00  0.00    +0.020 C 
ATOM      5  C   UNL     1      32.084 -13.019 -20.023  0.00  0.00    -0.003 C 
ATOM      6  C   UNL     1      31.795 -11.106 -21.470  0.00  0.00    -0.003 C 
ENDROOT
BRANCH   1   7
ATOM      7  S   UNL     1      33.594 -14.004 -23.643  0.00  0.00    +0.077 S 
ATOM      8  O   UNL     1      34.621 -13.161 -24.223  0.00  0.00    -0.150 OA
ATOM      9  O   UNL     1      32.519 -14.526 -24.466  0.00  0.00    -0.150 OA
BRANCH   7  12
ATOM     10  O   UNL     1      34.744 -16.730 -24.589  0.00  0.00    -0.251 OA
ATOM     11  N   UNL     1      35.361 -17.365 -22.453  0.00  0.00    -0.289 N 
ATOM     12  N   UNL     1      34.331 -15.292 -22.795  0.00  0.00    -0.169 N 
ATOM     13  C   UNL     1      34.814 -16.503 -23.384  0.00  0.00    +0.319 C 
ATOM     14  H   UNL     1      35.370 -17.090 -21.507  0.00  0.00    +0.151 HD
ATOM     15  H   UNL     1      34.430 -15.192 -21.820  0.00  0.00    +0.178 HD
BRANCH  11  16
ATOM     16  C   UNL     1      35.921 -18.650 -22.804  0.00  0.00    +0.073 C 
ATOM     17  C   UNL     1      34.883 -19.766 -22.647  0.00  0.00    +0.020 C 
ATOM     18  C   UNL     1      37.181 -18.945 -21.984  0.00  0.00    +0.020 C 
ATOM     19  C   UNL     1      34.572 -20.073 -21.182  0.00  0.00    +0.002 C 
ATOM     20  C   UNL     1      36.868 -19.253 -20.520  0.00  0.00    +0.002 C 
ATOM     21  C   UNL     1      35.841 -20.374 -20.389  0.00  0.00    +0.000 C 
ENDBRANCH  11  16
ENDBRANCH   7  12
ENDBRANCH   1   7
BRANCH   2  22
ATOM     22  C   UNL     1      31.001 -10.961 -19.105  0.00  0.00    +0.048 C 
BRANCH  22  23
ATOM     23  C   UNL     1      31.638  -9.590 -18.844  0.00  0.00    +0.094 C 
BRANCH  23  25
ATOM     24  O   UNL     1      33.141  -7.160 -19.128  0.00  0.00    -0.269 OA
ATOM     25  N   UNL     1      31.846  -8.845 -20.057  0.00  0.00    -0.300 N 
ATOM     26  C   UNL     1      32.592  -7.673 -20.099  0.00  0.00    +0.261 C 
ATOM     27  H   UNL     1      31.443  -9.179 -20.892  0.00  0.00    +0.150 HD
BRANCH  26  30
ATOM     28  N   UNL     1      31.933  -5.909 -21.606  0.00  0.00    -0.262 NA
ATOM     29  N   UNL     1      33.617  -6.903 -23.618  0.00  0.00    -0.270 NA
ATOM     30  C   UNL     1      32.691  -7.009 -21.424  0.00  0.00    +0.132 C 
ATOM     31  C   UNL     1      33.518  -7.497 -22.412  0.00  0.00    +0.174 C 
ATOM     32  C   UNL     1      32.859  -5.803 -23.800  0.00  0.00    +0.057 C 
ATOM     33  C   UNL     1      32.032  -5.315 -22.812  0.00  0.00    +0.166 C 
ATOM     34  C   UNL     1      32.943  -5.120 -25.121  0.00  0.00    +0.049 C 
ENDBRANCH  26  30
ENDBRANCH  23  25
ENDBRANCH  22  23
ENDBRANCH   2  22
TORSDOF 7
ENDMDL
MODEL 7
REMARK VINA RESULT:     -10.4      3.510      4.407
REMARK  Name = 3478
REMARK  7 active torsions:
REMARK  status: ('A' for Active; 'I' for Inactive)
REMARK    1  A    between atoms: C_1  and  S_7
REMARK    2  A    between atoms: C_2  and  C_22
REMARK    3  A    between atoms: S_7  and  N_12
REMARK    4  A    between atoms: N_11  and  C_16
REMARK    5  A    between atoms: C_22  and  C_23
REMARK    6  A    between atoms: C_23  and  N_25
REMARK    7  A    between atoms: C_26  and  C_30
REMARK                            x       y       z     vdW  Elec       q    Type
REMARK                         _______ _______ _______ _____ _____    ______ ____
ROOT
ATOM      1  C   UNL     1      34.284 -21.950 -19.258  0.00  0.00    +0.125 C 
ATOM      2  C   UNL     1      34.731 -19.864 -21.055  0.00  0.00    -0.020 C 
ATOM      3  C   UNL     1      35.586 -21.610 -19.622  0.00  0.00    +0.020 C 
ATOM      4  C   UNL     1      33.204 -21.248 -19.792  0.00  0.00    +0.020 C 
ATOM      5  C   UNL     1      35.810 -20.568 -20.521  0.00  0.00    -0.003 C 
ATOM      6  C   UNL     1      33.428 -20.204 -20.692  0.00  0.00    -0.003 C 
ENDROOT
BRANCH   1   7
ATOM      7  S   UNL     1      34.000 -23.272 -18.119  0.00  0.00    +0.077 S 
ATOM      8  O   UNL     1      34.871 -23.077 -16.976  0.00  0.00    -0.150 OA
ATOM      9  O   UNL     1      34.053 -24.503 -18.884  0.00  0.00    -0.150 OA
BRANCH   7  12
ATOM     10  O   UNL     1      32.555 -23.425 -15.374  0.00  0.00    -0.251 OA
ATOM     11  N   UNL     1      30.520 -22.772 -16.255  0.00  0.00    -0.289 N 
ATOM     12  N   UNL     1      32.383 -22.964 -17.657  0.00  0.00    -0.169 N 
ATOM     13  C   UNL     1      31.863 -23.084 -16.329  0.00  0.00    +0.319 C 
ATOM     14  H   UNL     1      30.052 -22.509 -17.081  0.00  0.00    +0.151 HD
ATOM     15  H   UNL     1      31.758 -22.682 -18.363  0.00  0.00    +0.178 HD
BRANCH  11  16
ATOM     16  C   UNL     1      29.770 -22.813 -15.020  0.00  0.00    +0.073 C 
ATOM     17  C   UNL     1      30.474 -23.685 -13.975  0.00  0.00    +0.020 C 
ATOM     18  C   UNL     1      28.334 -23.290 -15.264  0.00  0.00    +0.020 C 
ATOM     19  C   UNL     1      30.398 -25.175 -14.309  0.00  0.00    +0.002 C 
ATOM     20  C   UNL     1      28.260 -24.780 -15.596  0.00  0.00    +0.002 C 
ATOM     21  C   UNL     1      28.958 -25.628 -14.537  0.00  0.00    +0.000 C 
ENDBRANCH  11  16
ENDBRANCH   7  12
ENDBRANCH   1   7
BRANCH   2  22
ATOM     22  C   UNL     1      34.970 -18.749 -22.016  0.00  0.00    +0.048 C 
BRANCH  22  23
ATOM     23  C   UNL     1      35.626 -17.519 -21.376  0.00  0.00    +0.094 C 
BRANCH  23  25
ATOM     24  O   UNL     1      35.084 -15.270 -23.077  0.00  0.00    -0.269 OA
ATOM     25  N   UNL     1      34.682 -16.463 -21.129  0.00  0.00    -0.300 N 
ATOM     26  C   UNL     1      34.486 -15.408 -22.013  0.00  0.00    +0.261 C 
ATOM     27  H   UNL     1      34.153 -16.487 -20.298  0.00  0.00    +0.150 HD
BRANCH  26  30
ATOM     28  N   UNL     1      32.908 -14.561 -20.398  0.00  0.00    -0.262 NA
ATOM     29  N   UNL     1      32.294 -12.373 -22.042  0.00  0.00    -0.270 NA
ATOM     30  C   UNL     1      33.493 -14.384 -21.599  0.00  0.00    +0.132 C 
ATOM     31  C   UNL     1      33.192 -13.309 -22.407  0.00  0.00    +0.174 C 
ATOM     32  C   UNL     1      31.708 -12.549 -20.841  0.00  0.00    +0.057 C 
ATOM     33  C   UNL     1      32.010 -13.625 -20.033  0.00  0.00    +0.166 C 
ATOM     34  C   UNL     1      30.711 -11.533 -20.405  0.00  0.00    +0.049 C 
ENDBRANCH  26  30
ENDBRANCH  23  25
ENDBRANCH  22  23
ENDBRANCH   2  22
TORSDOF 7
ENDMDL
MODEL 8
REMARK VINA RESULT:     -10.2      2.930      4.556
REMARK  Name = 3478
REMARK  7 active torsions:
REMARK  status: ('A' for Active; 'I' for Inactive)
REMARK    1  A    between atoms: C_1  and  S_7
REMARK    2  A    between atoms: C_2  and  C_22
REMARK    3  A    between atoms: S_7  and  N_12
REMARK    4  A    between atoms: N_11  and  C_16
REMARK    5  A    between atoms: C_22  and  C_23
REMARK    6  A    between atoms: C_23  and  N_25
REMARK    7  A    between atoms: C_26  and  C_30
REMARK                            x       y       z     vdW  Elec       q    Type
REMARK                         _______ _______ _______ _____ _____    ______ ____
ROOT
ATOM      1  C   UNL     1      35.532 -23.278 -16.352  0.00  0.00    +0.125 C 
ATOM      2  C   UNL     1      35.447 -21.912 -18.783  0.00  0.00    -0.020 C 
ATOM      3  C   UNL     1      36.645 -22.560 -16.789  0.00  0.00    +0.020 C 
ATOM      4  C   UNL     1      34.376 -23.313 -17.131  0.00  0.00    +0.020 C 
ATOM      5  C   UNL     1      36.603 -21.877 -18.004  0.00  0.00    -0.003 C 
ATOM      6  C   UNL     1      34.334 -22.630 -18.347  0.00  0.00    -0.003 C 
ENDROOT
BRANCH   1   7
ATOM      7  S   UNL     1      35.586 -24.144 -14.812  0.00  0.00    +0.077 S 
ATOM      8  O   UNL     1      35.769 -23.169 -13.753  0.00  0.00    -0.150 OA
ATOM      9  O   UNL     1      36.525 -25.236 -14.977  0.00  0.00    -0.150 OA
BRANCH   7  12
ATOM     10  O   UNL     1      32.902 -22.906 -13.858  0.00  0.00    -0.251 OA
ATOM     11  N   UNL     1      31.698 -24.826 -14.313  0.00  0.00    -0.289 N 
ATOM     12  N   UNL     1      33.999 -24.772 -14.734  0.00  0.00    -0.169 N 
ATOM     13  C   UNL     1      32.849 -24.065 -14.260  0.00  0.00    +0.319 C 
ATOM     14  H   UNL     1      31.760 -25.749 -14.652  0.00  0.00    +0.151 HD
ATOM     15  H   UNL     1      33.864 -25.698 -15.041  0.00  0.00    +0.178 HD
BRANCH  11  16
ATOM     16  C   UNL     1      30.407 -24.330 -13.893  0.00  0.00    +0.073 C 
ATOM     17  C   UNL     1      29.303 -25.356 -14.174  0.00  0.00    +0.020 C 
ATOM     18  C   UNL     1      30.093 -22.983 -14.552  0.00  0.00    +0.020 C 
ATOM     19  C   UNL     1      28.995 -25.489 -15.665  0.00  0.00    +0.002 C 
ATOM     20  C   UNL     1      29.783 -23.119 -16.043  0.00  0.00    +0.002 C 
ATOM     21  C   UNL     1      28.675 -24.136 -16.297  0.00  0.00    +0.000 C 
ENDBRANCH  11  16
ENDBRANCH   7  12
ENDBRANCH   1   7
BRANCH   2  22
ATOM     22  C   UNL     1      35.401 -21.182 -20.083  0.00  0.00    +0.048 C 
BRANCH  22  23
ATOM     23  C   UNL     1      36.504 -20.126 -20.232  0.00  0.00    +0.094 C 
BRANCH  23  25
ATOM     24  O   UNL     1      35.761 -19.315 -22.884  0.00  0.00    -0.269 OA
ATOM     25  N   UNL     1      35.983 -18.844 -20.623  0.00  0.00    -0.300 N 
ATOM     26  C   UNL     1      35.650 -18.539 -21.938  0.00  0.00    +0.261 C 
ATOM     27  H   UNL     1      35.859 -18.154 -19.932  0.00  0.00    +0.150 HD
BRANCH  26  30
ATOM     28  N   UNL     1      35.106 -16.755 -23.466  0.00  0.00    -0.262 NA
ATOM     29  N   UNL     1      34.297 -15.097 -21.353  0.00  0.00    -0.270 NA
ATOM     30  C   UNL     1      35.150 -17.162 -22.183  0.00  0.00    +0.132 C 
ATOM     31  C   UNL     1      34.752 -16.348 -21.144  0.00  0.00    +0.174 C 
ATOM     32  C   UNL     1      34.253 -14.689 -22.637  0.00  0.00    +0.057 C 
ATOM     33  C   UNL     1      34.651 -15.503 -23.675  0.00  0.00    +0.166 C 
ATOM     34  C   UNL     1      33.754 -13.312 -22.906  0.00  0.00    +0.049 C 
ENDBRANCH  26  30
ENDBRANCH  23  25
ENDBRANCH  22  23
ENDBRANCH   2  22
TORSDOF 7
ENDMDL
MODEL 9
REMARK VINA RESULT:     -10.1      2.342     11.525
REMARK  Name = 3478
REMARK  7 active torsions:
REMARK  status: ('A' for Active; 'I' for Inactive)
REMARK    1  A    between atoms: C_1  and  S_7
REMARK    2  A    between atoms: C_2  and  C_22
REMARK    3  A    between atoms: S_7  and  N_12
REMARK    4  A    between atoms: N_11  and  C_16
REMARK    5  A    between atoms: C_22  and  C_23
REMARK    6  A    between atoms: C_23  and  N_25
REMARK    7  A    between atoms: C_26  and  C_30
REMARK                            x       y       z     vdW  Elec       q    Type
REMARK                         _______ _______ _______ _____ _____    ______ ____
ROOT
ATOM      1  C   UNL     1      34.668 -20.394 -20.683  0.00  0.00    +0.125 C 
ATOM      2  C   UNL     1      33.649 -22.124 -18.747  0.00  0.00    -0.020 C 
ATOM      3  C   UNL     1      35.532 -21.202 -19.945  0.00  0.00    +0.020 C 
ATOM      4  C   UNL     1      33.294 -20.450 -20.453  0.00  0.00    +0.020 C 
ATOM      5  C   UNL     1      35.024 -22.067 -18.977  0.00  0.00    -0.003 C 
ATOM      6  C   UNL     1      32.784 -21.315 -19.484  0.00  0.00    -0.003 C 
ENDROOT
BRANCH   1   7
ATOM      7  S   UNL     1      35.314 -19.298 -21.911  0.00  0.00    +0.077 S 
ATOM      8  O   UNL     1      34.704 -19.635 -23.182  0.00  0.00    -0.150 OA
ATOM      9  O   UNL     1      36.756 -19.305 -21.762  0.00  0.00    -0.150 OA
BRANCH   7  12
ATOM     10  O   UNL     1      35.771 -16.385 -22.885  0.00  0.00    -0.251 OA
ATOM     11  N   UNL     1      34.367 -15.484 -21.284  0.00  0.00    -0.289 N 
ATOM     12  N   UNL     1      34.698 -17.799 -21.367  0.00  0.00    -0.169 N 
ATOM     13  C   UNL     1      35.012 -16.521 -21.930  0.00  0.00    +0.319 C 
ATOM     14  H   UNL     1      33.777 -15.698 -20.525  0.00  0.00    +0.151 HD
ATOM     15  H   UNL     1      34.077 -17.816 -20.603  0.00  0.00    +0.178 HD
BRANCH  11  16
ATOM     16  C   UNL     1      34.520 -14.100 -21.672  0.00  0.00    +0.073 C 
ATOM     17  C   UNL     1      33.957 -13.161 -20.599  0.00  0.00    +0.020 C 
ATOM     18  C   UNL     1      33.872 -13.836 -23.036  0.00  0.00    +0.020 C 
ATOM     19  C   UNL     1      32.430 -13.189 -20.540  0.00  0.00    +0.002 C 
ATOM     20  C   UNL     1      32.345 -13.862 -22.973  0.00  0.00    +0.002 C 
ATOM     21  C   UNL     1      31.809 -12.912 -21.907  0.00  0.00    +0.000 C 
ENDBRANCH  11  16
ENDBRANCH   7  12
ENDBRANCH   1   7
BRANCH   2  22
ATOM     22  C   UNL     1      33.104 -23.048 -17.711  0.00  0.00    +0.048 C 
BRANCH  22  23
ATOM     23  C   UNL     1      34.057 -24.195 -17.350  0.00  0.00    +0.094 C 
BRANCH  23  25
ATOM     24  O   UNL     1      36.334 -23.203 -15.909  0.00  0.00    -0.269 OA
ATOM     25  N   UNL     1      34.285 -24.290 -15.933  0.00  0.00    -0.300 N 
ATOM     26  C   UNL     1      35.423 -23.778 -15.320  0.00  0.00    +0.261 C 
ATOM     27  H   UNL     1      33.607 -24.736 -15.374  0.00  0.00    +0.150 HD
BRANCH  26  30
ATOM     28  N   UNL     1      36.606 -23.463 -13.242  0.00  0.00    -0.262 NA
ATOM     29  N   UNL     1      34.625 -24.854 -11.823  0.00  0.00    -0.270 NA
ATOM     30  C   UNL     1      35.521 -23.981 -13.851  0.00  0.00    +0.132 C 
ATOM     31  C   UNL     1      34.548 -24.664 -13.155  0.00  0.00    +0.174 C 
ATOM     32  C   UNL     1      35.710 -24.337 -11.212  0.00  0.00    +0.057 C 
ATOM     33  C   UNL     1      36.683 -23.653 -11.910  0.00  0.00    +0.166 C 
ATOM     34  C   UNL     1      35.828 -24.527  -9.740  0.00  0.00    +0.049 C 
ENDBRANCH  26  30
ENDBRANCH  23  25
ENDBRANCH  22  23
ENDBRANCH   2  22
TORSDOF 7
ENDMDL
