MODEL 1
REMARK VINA RESULT:     -11.6      0.000      0.000
REMARK  Name = 6914657
REMARK  8 active torsions:
REMARK  status: ('A' for Active; 'I' for Inactive)
REMARK    1  A    between atoms: C_1  and  C_4
REMARK    2  A    between atoms: C_1  and  C_16
REMARK    3  A    between atoms: C_9  and  C_10
REMARK    4  A    between atoms: C_16  and  C_17
REMARK    5  A    between atoms: C_17  and  C_18
REMARK    6  A    between atoms: C_18  and  N_20
REMARK    7  A    between atoms: C_21  and  C_23
REMARK    8  A    between atoms: C_24  and  C_26
REMARK                            x       y       z     vdW  Elec       q    Type
REMARK                         _______ _______ _______ _____ _____    ______ ____
ROOT
ATOM      1  C   UNL     1      32.401 -14.097 -20.683  0.00  0.00    +0.000 C 
ENDROOT
BRANCH   1   4
ATOM      2  O   UNL     1      32.273  -8.089 -19.054  0.00  0.00    -0.270 OA
ATOM      3  N   UNL     1      31.515  -9.911 -20.309  0.00  0.00    -0.276 N 
ATOM      4  C   UNL     1      31.614 -12.795 -20.560  0.00  0.00    +0.003 C 
ATOM      5  C   UNL     1      31.903 -11.867 -21.751  0.00  0.00    +0.022 C 
ATOM      6  C   UNL     1      31.938 -12.083 -19.236  0.00  0.00    +0.022 C 
ATOM      7  C   UNL     1      31.179 -10.531 -21.596  0.00  0.00    +0.094 C 
ATOM      8  C   UNL     1      31.221 -10.738 -19.139  0.00  0.00    +0.094 C 
ATOM      9  C   UNL     1      32.031  -8.625 -20.134  0.00  0.00    +0.249 C 
BRANCH   9  10
ATOM     10  C   UNL     1      32.326  -7.829 -21.331  0.00  0.00    +0.054 C 
ATOM     11  C   UNL     1      31.298  -7.159 -21.996  0.00  0.00    +0.005 C 
ATOM     12  C   UNL     1      33.635  -7.740 -21.805  0.00  0.00    +0.005 C 
ATOM     13  C   UNL     1      31.579  -6.403 -23.133  0.00  0.00    +0.000 C 
ATOM     14  C   UNL     1      33.916  -6.983 -22.943  0.00  0.00    +0.000 C 
ATOM     15  C   UNL     1      32.887  -6.315 -23.607  0.00  0.00    +0.000 C 
ENDBRANCH   9  10
ENDBRANCH   1   4
BRANCH   1  16
ATOM     16  C   UNL     1      33.071 -14.212 -22.049  0.00  0.00    +0.002 C 
BRANCH  16  17
ATOM     17  C   UNL     1      34.531 -14.642 -21.913  0.00  0.00    +0.021 C 
BRANCH  17  18
ATOM     18  C   UNL     1      34.912 -15.660 -22.981  0.00  0.00    +0.090 C 
BRANCH  18  20
ATOM     19  O   UNL     1      34.814 -18.136 -24.484  0.00  0.00    -0.270 OA
ATOM     20  N   UNL     1      34.919 -16.999 -22.457  0.00  0.00    -0.301 N 
ATOM     21  C   UNL     1      34.870 -18.133 -23.258  0.00  0.00    +0.246 C 
ATOM     22  H   UNL     1      34.963 -17.117 -21.481  0.00  0.00    +0.150 HD
BRANCH  21  23
ATOM     23  C   UNL     1      34.892 -19.388 -22.454  0.00  0.00    +0.058 C 
ATOM     24  C   UNL     1      34.458 -19.379 -21.186  0.00  0.00    +0.006 C 
BRANCH  24  26
ATOM     25  N   UNL     1      33.123 -22.190 -19.085  0.00  0.00    -0.242 NA
ATOM     26  C   UNL     1      34.426 -20.559 -20.304  0.00  0.00    +0.019 C 
ATOM     27  C   UNL     1      35.601 -21.155 -19.859  0.00  0.00    +0.003 C 
ATOM     28  C   UNL     1      33.223 -21.110 -19.892  0.00  0.00    +0.099 C 
ATOM     29  C   UNL     1      35.539 -22.266 -19.027  0.00  0.00    +0.021 C 
ATOM     30  C   UNL     1      34.287 -22.741 -18.672  0.00  0.00    +0.099 C 
ENDBRANCH  24  26
ENDBRANCH  21  23
ENDBRANCH  18  20
ENDBRANCH  17  18
ENDBRANCH  16  17
ENDBRANCH   1  16
TORSDOF 8
ENDMDL
MODEL 2
REMARK VINA RESULT:     -10.9      3.418      6.948
REMARK  Name = 6914657
REMARK  8 active torsions:
REMARK  status: ('A' for Active; 'I' for Inactive)
REMARK    1  A    between atoms: C_1  and  C_4
REMARK    2  A    between atoms: C_1  and  C_16
REMARK    3  A    between atoms: C_9  and  C_10
REMARK    4  A    between atoms: C_16  and  C_17
REMARK    5  A    between atoms: C_17  and  C_18
REMARK    6  A    between atoms: C_18  and  N_20
REMARK    7  A    between atoms: C_21  and  C_23
REMARK    8  A    between atoms: C_24  and  C_26
REMARK                            x       y       z     vdW  Elec       q    Type
REMARK                         _______ _______ _______ _____ _____    ______ ____
ROOT
ATOM      1  C   UNL     1      35.197 -19.833 -22.155  0.00  0.00    +0.000 C 
ENDROOT
BRANCH   1   4
ATOM      2  O   UNL     1      32.976 -14.456 -24.373  0.00  0.00    -0.270 OA
ATOM      3  N   UNL     1      34.389 -15.696 -22.983  0.00  0.00    -0.276 N 
ATOM      4  C   UNL     1      35.418 -18.350 -22.444  0.00  0.00    +0.003 C 
ATOM      5  C   UNL     1      34.800 -17.479 -21.338  0.00  0.00    +0.022 C 
ATOM      6  C   UNL     1      34.833 -17.967 -23.814  0.00  0.00    +0.022 C 
ATOM      7  C   UNL     1      34.948 -15.994 -21.659  0.00  0.00    +0.094 C 
ATOM      8  C   UNL     1      34.973 -16.470 -24.079  0.00  0.00    +0.094 C 
ATOM      9  C   UNL     1      33.414 -14.734 -23.258  0.00  0.00    +0.249 C 
BRANCH   9  10
ATOM     10  C   UNL     1      32.842 -13.987 -22.133  0.00  0.00    +0.054 C 
ATOM     11  C   UNL     1      32.555 -12.628 -22.271  0.00  0.00    +0.005 C 
ATOM     12  C   UNL     1      32.584 -14.633 -20.924  0.00  0.00    +0.005 C 
ATOM     13  C   UNL     1      32.011 -11.918 -21.202  0.00  0.00    +0.000 C 
ATOM     14  C   UNL     1      32.040 -13.923 -19.854  0.00  0.00    +0.000 C 
ATOM     15  C   UNL     1      31.754 -12.564 -19.993  0.00  0.00    +0.000 C 
ENDBRANCH   9  10
ENDBRANCH   1   4
BRANCH   1  16
ATOM     16  C   UNL     1      34.757 -20.055 -20.711  0.00  0.00    +0.002 C 
BRANCH  16  17
ATOM     17  C   UNL     1      35.881 -20.677 -19.882  0.00  0.00    +0.021 C 
BRANCH  17  18
ATOM     18  C   UNL     1      35.765 -22.196 -19.842  0.00  0.00    +0.090 C 
BRANCH  18  20
ATOM     19  O   UNL     1      32.948 -22.702 -19.392  0.00  0.00    -0.270 OA
ATOM     20  N   UNL     1      35.143 -22.647 -18.627  0.00  0.00    -0.301 N 
ATOM     21  C   UNL     1      33.777 -22.864 -18.503  0.00  0.00    +0.246 C 
ATOM     22  H   UNL     1      35.716 -22.811 -17.843  0.00  0.00    +0.150 HD
BRANCH  21  23
ATOM     23  C   UNL     1      33.405 -23.330 -17.136  0.00  0.00    +0.058 C 
ATOM     24  C   UNL     1      32.123 -23.306 -16.746  0.00  0.00    +0.006 C 
BRANCH  24  26
ATOM     25  N   UNL     1      31.978 -23.854 -13.034  0.00  0.00    -0.242 NA
ATOM     26  C   UNL     1      31.641 -23.749 -15.427  0.00  0.00    +0.019 C 
ATOM     27  C   UNL     1      30.449 -24.453 -15.297  0.00  0.00    +0.003 C 
ATOM     28  C   UNL     1      32.362 -23.477 -14.275  0.00  0.00    +0.099 C 
ATOM     29  C   UNL     1      30.021 -24.858 -14.038  0.00  0.00    +0.021 C 
ATOM     30  C   UNL     1      30.814 -24.537 -12.949  0.00  0.00    +0.099 C 
ENDBRANCH  24  26
ENDBRANCH  21  23
ENDBRANCH  18  20
ENDBRANCH  17  18
ENDBRANCH  16  17
ENDBRANCH   1  16
TORSDOF 8
ENDMDL
MODEL 3
REMARK VINA RESULT:     -10.8      7.229     11.094
REMARK  Name = 6914657
REMARK  8 active torsions:
REMARK  status: ('A' for Active; 'I' for Inactive)
REMARK    1  A    between atoms: C_1  and  C_4
REMARK    2  A    between atoms: C_1  and  C_16
REMARK    3  A    between atoms: C_9  and  C_10
REMARK    4  A    between atoms: C_16  and  C_17
REMARK    5  A    between atoms: C_17  and  C_18
REMARK    6  A    between atoms: C_18  and  N_20
REMARK    7  A    between atoms: C_21  and  C_23
REMARK    8  A    between atoms: C_24  and  C_26
REMARK                            x       y       z     vdW  Elec       q    Type
REMARK                         _______ _______ _______ _____ _____    ______ ____
ROOT
ATOM      1  C   UNL     1      36.820 -22.340 -15.855  0.00  0.00    +0.000 C 
ENDROOT
BRANCH   1   4
ATOM      2  O   UNL     1      32.612 -20.958 -20.232  0.00  0.00    -0.270 OA
ATOM      3  N   UNL     1      34.716 -21.716 -19.548  0.00  0.00    -0.276 N 
ATOM      4  C   UNL     1      36.276 -22.573 -17.263  0.00  0.00    +0.003 C 
ATOM      5  C   UNL     1      36.782 -21.492 -18.231  0.00  0.00    +0.022 C 
ATOM      6  C   UNL     1      34.739 -22.607 -17.256  0.00  0.00    +0.022 C 
ATOM      7  C   UNL     1      36.182 -21.674 -19.623  0.00  0.00    +0.094 C 
ATOM      8  C   UNL     1      34.180 -22.756 -18.670  0.00  0.00    +0.094 C 
ATOM      9  C   UNL     1      33.840 -20.896 -20.263  0.00  0.00    +0.249 C 
BRANCH   9  10
ATOM     10  C   UNL     1      34.413 -19.854 -21.124  0.00  0.00    +0.054 C 
ATOM     11  C   UNL     1      34.696 -20.132 -22.461  0.00  0.00    +0.005 C 
ATOM     12  C   UNL     1      34.676 -18.587 -20.605  0.00  0.00    +0.005 C 
ATOM     13  C   UNL     1      35.240 -19.143 -23.280  0.00  0.00    +0.000 C 
ATOM     14  C   UNL     1      35.220 -17.597 -21.424  0.00  0.00    +0.000 C 
ATOM     15  C   UNL     1      35.503 -17.876 -22.761  0.00  0.00    +0.000 C 
ENDBRANCH   9  10
ENDBRANCH   1   4
BRANCH   1  16
ATOM     16  C   UNL     1      37.564 -23.569 -15.340  0.00  0.00    +0.002 C 
BRANCH  16  17
ATOM     17  C   UNL     1      37.137 -23.912 -13.913  0.00  0.00    +0.021 C 
BRANCH  17  18
ATOM     18  C   UNL     1      36.453 -25.273 -13.850  0.00  0.00    +0.090 C 
BRANCH  18  20
ATOM     19  O   UNL     1      34.470 -24.441 -11.908  0.00  0.00    -0.270 OA
ATOM     20  N   UNL     1      35.034 -25.161 -14.047  0.00  0.00    -0.301 N 
ATOM     21  C   UNL     1      34.155 -24.752 -13.053  0.00  0.00    +0.246 C 
ATOM     22  H   UNL     1      34.667 -25.386 -14.932  0.00  0.00    +0.150 HD
BRANCH  21  23
ATOM     23  C   UNL     1      32.742 -24.725 -13.529  0.00  0.00    +0.058 C 
ATOM     24  C   UNL     1      32.427 -24.065 -14.652  0.00  0.00    +0.006 C 
BRANCH  24  26
ATOM     25  N   UNL     1      29.520 -22.869 -16.706  0.00  0.00    -0.242 NA
ATOM     26  C   UNL     1      31.070 -23.980 -15.219  0.00  0.00    +0.019 C 
ATOM     27  C   UNL     1      30.076 -24.876 -14.841  0.00  0.00    +0.003 C 
ATOM     28  C   UNL     1      30.744 -23.004 -16.148  0.00  0.00    +0.099 C 
ATOM     29  C   UNL     1      28.805 -24.769 -15.394  0.00  0.00    +0.021 C 
ATOM     30  C   UNL     1      28.580 -23.758 -16.313  0.00  0.00    +0.099 C 
ENDBRANCH  24  26
ENDBRANCH  21  23
ENDBRANCH  18  20
ENDBRANCH  17  18
ENDBRANCH  16  17
ENDBRANCH   1  16
TORSDOF 8
ENDMDL
MODEL 4
REMARK VINA RESULT:     -10.7      3.998      7.372
REMARK  Name = 6914657
REMARK  8 active torsions:
REMARK  status: ('A' for Active; 'I' for Inactive)
REMARK    1  A    between atoms: C_1  and  C_4
REMARK    2  A    between atoms: C_1  and  C_16
REMARK    3  A    between atoms: C_9  and  C_10
REMARK    4  A    between atoms: C_16  and  C_17
REMARK    5  A    between atoms: C_17  and  C_18
REMARK    6  A    between atoms: C_18  and  N_20
REMARK    7  A    between atoms: C_21  and  C_23
REMARK    8  A    between atoms: C_24  and  C_26
REMARK                            x       y       z     vdW  Elec       q    Type
REMARK                         _______ _______ _______ _____ _____    ______ ____
ROOT
ATOM      1  C   UNL     1      35.245 -19.855 -21.750  0.00  0.00    +0.000 C 
ENDROOT
BRANCH   1   4
ATOM      2  O   UNL     1      33.053 -14.639 -24.348  0.00  0.00    -0.270 OA
ATOM      3  N   UNL     1      34.442 -15.783 -22.855  0.00  0.00    -0.276 N 
ATOM      4  C   UNL     1      35.467 -18.393 -22.128  0.00  0.00    +0.003 C 
ATOM      5  C   UNL     1      34.825 -17.456 -21.092  0.00  0.00    +0.022 C 
ATOM      6  C   UNL     1      34.908 -18.101 -23.531  0.00  0.00    +0.022 C 
ATOM      7  C   UNL     1      34.977 -15.994 -21.504  0.00  0.00    +0.094 C 
ATOM      8  C   UNL     1      35.049 -16.622 -23.888  0.00  0.00    +0.094 C 
ATOM      9  C   UNL     1      33.471 -14.844 -23.210  0.00  0.00    +0.249 C 
BRANCH   9  10
ATOM     10  C   UNL     1      32.875 -14.028 -22.145  0.00  0.00    +0.054 C 
ATOM     11  C   UNL     1      32.580 -14.603 -20.908  0.00  0.00    +0.005 C 
ATOM     12  C   UNL     1      32.603 -12.679 -22.368  0.00  0.00    +0.005 C 
ATOM     13  C   UNL     1      32.014 -13.828 -19.896  0.00  0.00    +0.000 C 
ATOM     14  C   UNL     1      32.037 -11.904 -21.356  0.00  0.00    +0.000 C 
ATOM     15  C   UNL     1      31.742 -12.479 -20.120  0.00  0.00    +0.000 C 
ENDBRANCH   9  10
ENDBRANCH   1   4
BRANCH   1  16
ATOM     16  C   UNL     1      34.236 -19.984 -20.611  0.00  0.00    +0.002 C 
BRANCH  16  17
ATOM     17  C   UNL     1      34.416 -21.305 -19.863  0.00  0.00    +0.021 C 
BRANCH  17  18
ATOM     18  C   UNL     1      35.862 -21.501 -19.425  0.00  0.00    +0.090 C 
BRANCH  18  20
ATOM     19  O   UNL     1      37.436 -21.024 -17.039  0.00  0.00    -0.270 OA
ATOM     20  N   UNL     1      35.952 -22.337 -18.258  0.00  0.00    -0.301 N 
ATOM     21  C   UNL     1      36.737 -22.026 -17.155  0.00  0.00    +0.246 C 
ATOM     22  H   UNL     1      35.431 -23.171 -18.241  0.00  0.00    +0.150 HD
BRANCH  21  23
ATOM     23  C   UNL     1      36.643 -23.064 -16.089  0.00  0.00    +0.058 C 
ATOM     24  C   UNL     1      37.718 -23.360 -15.346  0.00  0.00    +0.006 C 
BRANCH  24  26
ATOM     25  N   UNL     1      38.416 -26.545 -13.483  0.00  0.00    -0.242 NA
ATOM     26  C   UNL     1      37.737 -24.359 -14.263  0.00  0.00    +0.019 C 
ATOM     27  C   UNL     1      37.131 -24.102 -13.038  0.00  0.00    +0.003 C 
ATOM     28  C   UNL     1      38.361 -25.585 -14.433  0.00  0.00    +0.099 C 
ATOM     29  C   UNL     1      37.166 -25.065 -12.036  0.00  0.00    +0.021 C 
ATOM     30  C   UNL     1      37.814 -26.259 -12.306  0.00  0.00    +0.099 C 
ENDBRANCH  24  26
ENDBRANCH  21  23
ENDBRANCH  18  20
ENDBRANCH  17  18
ENDBRANCH  16  17
ENDBRANCH   1  16
TORSDOF 8
ENDMDL
MODEL 5
REMARK VINA RESULT:     -10.4      3.599      7.172
REMARK  Name = 6914657
REMARK  8 active torsions:
REMARK  status: ('A' for Active; 'I' for Inactive)
REMARK    1  A    between atoms: C_1  and  C_4
REMARK    2  A    between atoms: C_1  and  C_16
REMARK    3  A    between atoms: C_9  and  C_10
REMARK    4  A    between atoms: C_16  and  C_17
REMARK    5  A    between atoms: C_17  and  C_18
REMARK    6  A    between atoms: C_18  and  N_20
REMARK    7  A    between atoms: C_21  and  C_23
REMARK    8  A    between atoms: C_24  and  C_26
REMARK                            x       y       z     vdW  Elec       q    Type
REMARK                         _______ _______ _______ _____ _____    ______ ____
ROOT
ATOM      1  C   UNL     1      35.224 -19.786 -21.921  0.00  0.00    +0.000 C 
ENDROOT
BRANCH   1   4
ATOM      2  O   UNL     1      33.003 -14.527 -24.405  0.00  0.00    -0.270 OA
ATOM      3  N   UNL     1      34.406 -15.695 -22.946  0.00  0.00    -0.276 N 
ATOM      4  C   UNL     1      35.441 -18.316 -22.275  0.00  0.00    +0.003 C 
ATOM      5  C   UNL     1      34.807 -17.399 -21.216  0.00  0.00    +0.022 C 
ATOM      6  C   UNL     1      34.870 -18.000 -23.667  0.00  0.00    +0.022 C 
ATOM      7  C   UNL     1      34.952 -15.930 -21.603  0.00  0.00    +0.094 C 
ATOM      8  C   UNL     1      35.005 -16.515 -23.999  0.00  0.00    +0.094 C 
ATOM      9  C   UNL     1      33.430 -14.752 -23.275  0.00  0.00    +0.249 C 
BRANCH   9  10
ATOM     10  C   UNL     1      32.842 -13.957 -22.190  0.00  0.00    +0.054 C 
ATOM     11  C   UNL     1      32.552 -14.556 -20.964  0.00  0.00    +0.005 C 
ATOM     12  C   UNL     1      32.573 -12.602 -22.385  0.00  0.00    +0.005 C 
ATOM     13  C   UNL     1      31.993 -13.801 -19.934  0.00  0.00    +0.000 C 
ATOM     14  C   UNL     1      32.014 -11.846 -21.354  0.00  0.00    +0.000 C 
ATOM     15  C   UNL     1      31.724 -12.446 -20.128  0.00  0.00    +0.000 C 
ENDBRANCH   9  10
ENDBRANCH   1   4
BRANCH   1  16
ATOM     16  C   UNL     1      34.346 -19.932 -20.682  0.00  0.00    +0.002 C 
BRANCH  16  17
ATOM     17  C   UNL     1      34.701 -21.197 -19.902  0.00  0.00    +0.021 C 
BRANCH  17  18
ATOM     18  C   UNL     1      33.459 -21.851 -19.309  0.00  0.00    +0.090 C 
BRANCH  18  20
ATOM     19  O   UNL     1      31.658 -22.721 -17.212  0.00  0.00    -0.270 OA
ATOM     20  N   UNL     1      33.780 -22.656 -18.162  0.00  0.00    -0.301 N 
ATOM     21  C   UNL     1      32.846 -23.027 -17.203  0.00  0.00    +0.246 C 
ATOM     22  H   UNL     1      34.710 -22.961 -18.052  0.00  0.00    +0.150 HD
BRANCH  21  23
ATOM     23  C   UNL     1      33.451 -23.861 -16.125  0.00  0.00    +0.058 C 
ATOM     24  C   UNL     1      34.600 -23.481 -15.550  0.00  0.00    +0.006 C 
BRANCH  24  26
ATOM     25  N   UNL     1      35.287 -24.988 -12.179  0.00  0.00    -0.242 NA
ATOM     26  C   UNL     1      35.281 -24.220 -14.472  0.00  0.00    +0.019 C 
ATOM     27  C   UNL     1      36.509 -24.834 -14.688  0.00  0.00    +0.003 C 
ATOM     28  C   UNL     1      34.716 -24.326 -13.211  0.00  0.00    +0.099 C 
ATOM     29  C   UNL     1      37.128 -25.524 -13.652  0.00  0.00    +0.021 C 
ATOM     30  C   UNL     1      36.481 -25.571 -12.428  0.00  0.00    +0.099 C 
ENDBRANCH  24  26
ENDBRANCH  21  23
ENDBRANCH  18  20
ENDBRANCH  17  18
ENDBRANCH  16  17
ENDBRANCH   1  16
TORSDOF 8
ENDMDL
MODEL 6
REMARK VINA RESULT:     -10.3      4.458     12.665
REMARK  Name = 6914657
REMARK  8 active torsions:
REMARK  status: ('A' for Active; 'I' for Inactive)
REMARK    1  A    between atoms: C_1  and  C_4
REMARK    2  A    between atoms: C_1  and  C_16
REMARK    3  A    between atoms: C_9  and  C_10
REMARK    4  A    between atoms: C_16  and  C_17
REMARK    5  A    between atoms: C_17  and  C_18
REMARK    6  A    between atoms: C_18  and  N_20
REMARK    7  A    between atoms: C_21  and  C_23
REMARK    8  A    between atoms: C_24  and  C_26
REMARK                            x       y       z     vdW  Elec       q    Type
REMARK                         _______ _______ _______ _____ _____    ______ ____
ROOT
ATOM      1  C   UNL     1      36.385 -22.015 -17.261  0.00  0.00    +0.000 C 
ENDROOT
BRANCH   1   4
ATOM      2  O   UNL     1      32.832 -23.888 -12.503  0.00  0.00    -0.270 OA
ATOM      3  N   UNL     1      33.711 -24.139 -14.656  0.00  0.00    -0.276 N 
ATOM      4  C   UNL     1      35.713 -23.159 -16.506  0.00  0.00    +0.003 C 
ATOM      5  C   UNL     1      34.232 -23.282 -16.902  0.00  0.00    +0.022 C 
ATOM      6  C   UNL     1      35.844 -22.962 -14.986  0.00  0.00    +0.022 C 
ATOM      7  C   UNL     1      33.535 -24.373 -16.094  0.00  0.00    +0.094 C 
ATOM      8  C   UNL     1      35.104 -24.055 -14.218  0.00  0.00    +0.094 C 
ATOM      9  C   UNL     1      32.684 -24.043 -13.714  0.00  0.00    +0.249 C 
BRANCH   9  10
ATOM     10  C   UNL     1      31.298 -24.118 -14.191  0.00  0.00    +0.054 C 
ATOM     11  C   UNL     1      30.667 -22.976 -14.686  0.00  0.00    +0.005 C 
ATOM     12  C   UNL     1      30.610 -25.331 -14.151  0.00  0.00    +0.005 C 
ATOM     13  C   UNL     1      29.350 -23.047 -15.139  0.00  0.00    +0.000 C 
ATOM     14  C   UNL     1      29.293 -25.403 -14.604  0.00  0.00    +0.000 C 
ATOM     15  C   UNL     1      28.663 -24.260 -15.098  0.00  0.00    +0.000 C 
ENDBRANCH   9  10
ENDBRANCH   1   4
BRANCH   1  16
ATOM     16  C   UNL     1      36.148 -22.131 -18.765  0.00  0.00    +0.002 C 
BRANCH  16  17
ATOM     17  C   UNL     1      36.543 -20.843 -19.485  0.00  0.00    +0.021 C 
BRANCH  17  18
ATOM     18  C   UNL     1      35.644 -20.581 -20.688  0.00  0.00    +0.090 C 
BRANCH  18  20
ATOM     19  O   UNL     1      36.430 -18.189 -22.122  0.00  0.00    -0.270 OA
ATOM     20  N   UNL     1      35.032 -19.282 -20.618  0.00  0.00    -0.301 N 
ATOM     21  C   UNL     1      35.480 -18.187 -21.347  0.00  0.00    +0.246 C 
ATOM     22  H   UNL     1      34.256 -19.163 -20.024  0.00  0.00    +0.150 HD
BRANCH  21  23
ATOM     23  C   UNL     1      34.663 -16.968 -21.085  0.00  0.00    +0.058 C 
ATOM     24  C   UNL     1      34.535 -16.031 -22.034  0.00  0.00    +0.006 C 
BRANCH  24  26
ATOM     25  N   UNL     1      33.147 -12.616 -22.751  0.00  0.00    -0.242 NA
ATOM     26  C   UNL     1      33.748 -14.794 -21.889  0.00  0.00    +0.019 C 
ATOM     27  C   UNL     1      32.889 -14.612 -20.811  0.00  0.00    +0.003 C 
ATOM     28  C   UNL     1      33.839 -13.775 -22.824  0.00  0.00    +0.099 C 
ATOM     29  C   UNL     1      32.160 -13.434 -20.701  0.00  0.00    +0.021 C 
ATOM     30  C   UNL     1      32.323 -12.476 -21.688  0.00  0.00    +0.099 C 
ENDBRANCH  24  26
ENDBRANCH  21  23
ENDBRANCH  18  20
ENDBRANCH  17  18
ENDBRANCH  16  17
ENDBRANCH   1  16
TORSDOF 8
ENDMDL
MODEL 7
REMARK VINA RESULT:     -10.3      1.143      1.631
REMARK  Name = 6914657
REMARK  8 active torsions:
REMARK  status: ('A' for Active; 'I' for Inactive)
REMARK    1  A    between atoms: C_1  and  C_4
REMARK    2  A    between atoms: C_1  and  C_16
REMARK    3  A    between atoms: C_9  and  C_10
REMARK    4  A    between atoms: C_16  and  C_17
REMARK    5  A    between atoms: C_17  and  C_18
REMARK    6  A    between atoms: C_18  and  N_20
REMARK    7  A    between atoms: C_21  and  C_23
REMARK    8  A    between atoms: C_24  and  C_26
REMARK                            x       y       z     vdW  Elec       q    Type
REMARK                         _______ _______ _______ _____ _____    ______ ____
ROOT
ATOM      1  C   UNL     1      32.580 -12.798 -21.406  0.00  0.00    +0.000 C 
ENDROOT
BRANCH   1   4
ATOM      2  O   UNL     1      32.799  -6.769 -19.867  0.00  0.00    -0.270 OA
ATOM      3  N   UNL     1      31.850  -8.585 -20.993  0.00  0.00    -0.276 N 
ATOM      4  C   UNL     1      31.846 -11.474 -21.209  0.00  0.00    +0.003 C 
ATOM      5  C   UNL     1      32.012 -10.568 -22.441  0.00  0.00    +0.022 C 
ATOM      6  C   UNL     1      32.346 -10.754 -19.946  0.00  0.00    +0.022 C 
ATOM      7  C   UNL     1      31.345  -9.212 -22.220  0.00  0.00    +0.094 C 
ATOM      8  C   UNL     1      31.680  -9.389 -19.783  0.00  0.00    +0.094 C 
ATOM      9  C   UNL     1      32.415  -7.311 -20.902  0.00  0.00    +0.249 C 
BRANCH   9  10
ATOM     10  C   UNL     1      32.582  -6.538 -22.138  0.00  0.00    +0.054 C 
ATOM     11  C   UNL     1      33.620  -6.847 -23.019  0.00  0.00    +0.005 C 
ATOM     12  C   UNL     1      31.706  -5.494 -22.434  0.00  0.00    +0.005 C 
ATOM     13  C   UNL     1      33.779  -6.113 -24.194  0.00  0.00    +0.000 C 
ATOM     14  C   UNL     1      31.865  -4.760 -23.609  0.00  0.00    +0.000 C 
ATOM     15  C   UNL     1      32.903  -5.069 -24.489  0.00  0.00    +0.000 C 
ENDBRANCH   9  10
ENDBRANCH   1   4
BRANCH   1  16
ATOM     16  C   UNL     1      32.540 -13.241 -22.866  0.00  0.00    +0.002 C 
BRANCH  16  17
ATOM     17  C   UNL     1      33.292 -14.557 -23.063  0.00  0.00    +0.021 C 
BRANCH  17  18
ATOM     18  C   UNL     1      34.518 -14.636 -22.160  0.00  0.00    +0.090 C 
BRANCH  18  20
ATOM     19  O   UNL     1      35.516 -17.221 -23.005  0.00  0.00    -0.270 OA
ATOM     20  N   UNL     1      34.536 -15.855 -21.399  0.00  0.00    -0.301 N 
ATOM     21  C   UNL     1      35.038 -17.054 -21.888  0.00  0.00    +0.246 C 
ATOM     22  H   UNL     1      34.175 -15.838 -20.483  0.00  0.00    +0.150 HD
BRANCH  21  23
ATOM     23  C   UNL     1      34.934 -18.155 -20.888  0.00  0.00    +0.058 C 
ATOM     24  C   UNL     1      34.600 -19.391 -21.286  0.00  0.00    +0.006 C 
BRANCH  24  26
ATOM     25  N   UNL     1      33.051 -22.125 -19.231  0.00  0.00    -0.242 NA
ATOM     26  C   UNL     1      34.477 -20.553 -20.389  0.00  0.00    +0.019 C 
ATOM     27  C   UNL     1      35.603 -21.174 -19.860  0.00  0.00    +0.003 C 
ATOM     28  C   UNL     1      33.235 -21.063 -20.047  0.00  0.00    +0.099 C 
ATOM     29  C   UNL     1      35.455 -22.269 -19.016  0.00  0.00    +0.021 C 
ATOM     30  C   UNL     1      34.170 -22.702 -18.735  0.00  0.00    +0.099 C 
ENDBRANCH  24  26
ENDBRANCH  21  23
ENDBRANCH  18  20
ENDBRANCH  17  18
ENDBRANCH  16  17
ENDBRANCH   1  16
TORSDOF 8
ENDMDL
MODEL 8
REMARK VINA RESULT:     -10.2      4.579      8.093
REMARK  Name = 6914657
REMARK  8 active torsions:
REMARK  status: ('A' for Active; 'I' for Inactive)
REMARK    1  A    between atoms: C_1  and  C_4
REMARK    2  A    between atoms: C_1  and  C_16
REMARK    3  A    between atoms: C_9  and  C_10
REMARK    4  A    between atoms: C_16  and  C_17
REMARK    5  A    between atoms: C_17  and  C_18
REMARK    6  A    between atoms: C_18  and  N_20
REMARK    7  A    between atoms: C_21  and  C_23
REMARK    8  A    between atoms: C_24  and  C_26
REMARK                            x       y       z     vdW  Elec       q    Type
REMARK                         _______ _______ _______ _____ _____    ______ ____
ROOT
ATOM      1  C   UNL     1      33.823 -20.615 -20.083  0.00  0.00    +0.000 C 
ENDROOT
BRANCH   1   4
ATOM      2  O   UNL     1      34.583 -17.480 -25.409  0.00  0.00    -0.270 OA
ATOM      3  N   UNL     1      35.075 -17.893 -23.160  0.00  0.00    -0.276 N 
ATOM      4  C   UNL     1      34.721 -19.770 -20.983  0.00  0.00    +0.003 C 
ATOM      5  C   UNL     1      34.403 -18.274 -20.824  0.00  0.00    +0.022 C 
ATOM      6  C   UNL     1      34.574 -20.194 -22.454  0.00  0.00    +0.022 C 
ATOM      7  C   UNL     1      35.244 -17.429 -21.778  0.00  0.00    +0.094 C 
ATOM      8  C   UNL     1      35.404 -19.302 -23.375  0.00  0.00    +0.094 C 
ATOM      9  C   UNL     1      34.684 -17.102 -24.243  0.00  0.00    +0.249 C 
BRANCH   9  10
ATOM     10  C   UNL     1      34.349 -15.696 -23.988  0.00  0.00    +0.054 C 
ATOM     11  C   UNL     1      33.706 -14.942 -24.971  0.00  0.00    +0.005 C 
ATOM     12  C   UNL     1      34.673 -15.112 -22.764  0.00  0.00    +0.005 C 
ATOM     13  C   UNL     1      33.388 -13.607 -24.729  0.00  0.00    +0.000 C 
ATOM     14  C   UNL     1      34.354 -13.776 -22.521  0.00  0.00    +0.000 C 
ATOM     15  C   UNL     1      33.711 -13.023 -23.505  0.00  0.00    +0.000 C 
ENDBRANCH   9  10
ENDBRANCH   1   4
BRANCH   1  16
ATOM     16  C   UNL     1      34.612 -21.734 -19.408  0.00  0.00    +0.002 C 
BRANCH  16  17
ATOM     17  C   UNL     1      36.117 -21.495 -19.528  0.00  0.00    +0.021 C 
BRANCH  17  18
ATOM     18  C   UNL     1      36.827 -21.758 -18.206  0.00  0.00    +0.090 C 
BRANCH  18  20
ATOM     19  O   UNL     1      37.583 -22.900 -15.653  0.00  0.00    -0.270 OA
ATOM     20  N   UNL     1      35.982 -22.465 -17.283  0.00  0.00    -0.301 N 
ATOM     21  C   UNL     1      36.434 -22.980 -16.075  0.00  0.00    +0.246 C 
ATOM     22  H   UNL     1      35.035 -22.589 -17.519  0.00  0.00    +0.150 HD
BRANCH  21  23
ATOM     23  C   UNL     1      35.348 -23.663 -15.315  0.00  0.00    +0.058 C 
ATOM     24  C   UNL     1      34.067 -23.339 -15.540  0.00  0.00    +0.006 C 
BRANCH  24  26
ATOM     25  N   UNL     1      32.082 -25.365 -13.080  0.00  0.00    -0.242 NA
ATOM     26  C   UNL     1      32.916 -23.953 -14.857  0.00  0.00    +0.019 C 
ATOM     27  C   UNL     1      31.616 -23.731 -15.299  0.00  0.00    +0.003 C 
ATOM     28  C   UNL     1      33.094 -24.771 -13.752  0.00  0.00    +0.099 C 
ATOM     29  C   UNL     1      30.550 -24.325 -14.634  0.00  0.00    +0.021 C 
ATOM     30  C   UNL     1      30.833 -25.126 -13.540  0.00  0.00    +0.099 C 
ENDBRANCH  24  26
ENDBRANCH  21  23
ENDBRANCH  18  20
ENDBRANCH  17  18
ENDBRANCH  16  17
ENDBRANCH   1  16
TORSDOF 8
ENDMDL
MODEL 9
REMARK VINA RESULT:     -10.0      1.358      2.287
REMARK  Name = 6914657
REMARK  8 active torsions:
REMARK  status: ('A' for Active; 'I' for Inactive)
REMARK    1  A    between atoms: C_1  and  C_4
REMARK    2  A    between atoms: C_1  and  C_16
REMARK    3  A    between atoms: C_9  and  C_10
REMARK    4  A    between atoms: C_16  and  C_17
REMARK    5  A    between atoms: C_17  and  C_18
REMARK    6  A    between atoms: C_18  and  N_20
REMARK    7  A    between atoms: C_21  and  C_23
REMARK    8  A    between atoms: C_24  and  C_26
REMARK                            x       y       z     vdW  Elec       q    Type
REMARK                         _______ _______ _______ _____ _____    ______ ____
ROOT
ATOM      1  C   UNL     1      34.385 -14.770 -22.265  0.00  0.00    +0.000 C 
ENDROOT
BRANCH   1   4
ATOM      2  O   UNL     1      31.537  -9.811 -19.802  0.00  0.00    -0.270 OA
ATOM      3  N   UNL     1      31.924 -11.324 -21.542  0.00  0.00    -0.276 N 
ATOM      4  C   UNL     1      33.168 -13.849 -22.228  0.00  0.00    +0.003 C 
ATOM      5  C   UNL     1      33.424 -12.571 -23.043  0.00  0.00    +0.022 C 
ATOM      6  C   UNL     1      32.796 -13.493 -20.779  0.00  0.00    +0.022 C 
ATOM      7  C   UNL     1      32.241 -11.610 -22.947  0.00  0.00    +0.094 C 
ATOM      8  C   UNL     1      31.632 -12.505 -20.731  0.00  0.00    +0.094 C 
ATOM      9  C   UNL     1      31.843 -10.054 -20.969  0.00  0.00    +0.249 C 
BRANCH   9  10
ATOM     10  C   UNL     1      32.156  -8.892 -21.810  0.00  0.00    +0.054 C 
ATOM     11  C   UNL     1      33.392  -8.256 -21.688  0.00  0.00    +0.005 C 
ATOM     12  C   UNL     1      31.219  -8.424 -22.731  0.00  0.00    +0.005 C 
ATOM     13  C   UNL     1      33.689  -7.152 -22.487  0.00  0.00    +0.000 C 
ATOM     14  C   UNL     1      31.517  -7.321 -23.530  0.00  0.00    +0.000 C 
ATOM     15  C   UNL     1      32.752  -6.684 -23.408  0.00  0.00    +0.000 C 
ENDBRANCH   9  10
ENDBRANCH   1   4
BRANCH   1  16
ATOM     16  C   UNL     1      34.579 -15.374 -23.654  0.00  0.00    +0.002 C 
BRANCH  16  17
ATOM     17  C   UNL     1      34.725 -16.893 -23.578  0.00  0.00    +0.021 C 
BRANCH  17  18
ATOM     18  C   UNL     1      35.763 -17.300 -22.539  0.00  0.00    +0.090 C 
BRANCH  18  20
ATOM     19  O   UNL     1      34.982 -20.017 -23.173  0.00  0.00    -0.270 OA
ATOM     20  N   UNL     1      35.248 -18.292 -21.636  0.00  0.00    -0.301 N 
ATOM     21  C   UNL     1      34.898 -19.576 -22.031  0.00  0.00    +0.246 C 
ATOM     22  H   UNL     1      35.138 -18.047 -20.688  0.00  0.00    +0.150 HD
BRANCH  21  23
ATOM     23  C   UNL     1      34.394 -20.395 -20.891  0.00  0.00    +0.058 C 
ATOM     24  C   UNL     1      35.259 -21.027 -20.086  0.00  0.00    +0.006 C 
BRANCH  24  26
ATOM     25  N   UNL     1      35.519 -22.961 -16.878  0.00  0.00    -0.242 NA
ATOM     26  C   UNL     1      34.875 -21.854 -18.929  0.00  0.00    +0.019 C 
ATOM     27  C   UNL     1      33.569 -22.305 -18.771  0.00  0.00    +0.003 C 
ATOM     28  C   UNL     1      35.804 -22.206 -17.963  0.00  0.00    +0.099 C 
ATOM     29  C   UNL     1      33.237 -23.084 -17.668  0.00  0.00    +0.021 C 
ATOM     30  C   UNL     1      34.239 -23.382 -16.759  0.00  0.00    +0.099 C 
ENDBRANCH  24  26
ENDBRANCH  21  23
ENDBRANCH  18  20
ENDBRANCH  17  18
ENDBRANCH  16  17
ENDBRANCH   1  16
TORSDOF 8
ENDMDL
