MODEL 1
REMARK VINA RESULT:     -11.2      0.000      0.000
REMARK  Name = 448942
REMARK  8 active torsions:
REMARK  status: ('A' for Active; 'I' for Inactive)
REMARK    1  A    between atoms: C_2  and  C_20
REMARK    2  A    between atoms: C_3  and  C_6
REMARK    3  A    between atoms: C_7  and  C_13
REMARK    4  A    between atoms: N_19  and  C_22
REMARK    5  A    between atoms: C_22  and  C_23
REMARK    6  A    between atoms: C_22  and  C_29
REMARK    7  A    between atoms: C_29  and  C_31
REMARK    8  A    between atoms: C_31  and  O_32
REMARK                            x       y       z     vdW  Elec       q    Type
REMARK                         _______ _______ _______ _____ _____    ______ ____
ROOT
ATOM      1  S   UNL     1      32.774 -24.139 -15.974  0.00  0.00    -0.082 S 
ATOM      2  C   UNL     1      34.467 -24.120 -16.011  0.00  0.00    +0.083 C 
ATOM      3  C   UNL     1      33.977 -22.708 -17.737  0.00  0.00    +0.007 C 
ATOM      4  C   UNL     1      35.002 -23.338 -16.973  0.00  0.00    +0.012 C 
ATOM      5  C   UNL     1      32.719 -23.058 -17.301  0.00  0.00    +0.036 C 
ENDROOT
BRANCH   3   6
ATOM      6  C   UNL     1      34.150 -21.807 -18.845  0.00  0.00    +0.001 C 
ATOM      7  C   UNL     1      34.488 -20.060 -20.991  0.00  0.00    +0.000 C 
ATOM      8  C   UNL     1      33.040 -21.197 -19.425  0.00  0.00    +0.000 C 
ATOM      9  C   UNL     1      35.429 -21.546 -19.335  0.00  0.00    +0.000 C 
ATOM     10  C   UNL     1      33.208 -20.323 -20.500  0.00  0.00    +0.000 C 
ATOM     11  C   UNL     1      35.597 -20.672 -20.409  0.00  0.00    +0.000 C 
BRANCH   7  13
ATOM     12  N   UNL     1      34.996 -17.406 -24.260  0.00  0.00    -0.242 NA
ATOM     13  C   UNL     1      34.662 -19.156 -22.106  0.00  0.00    +0.003 C 
ATOM     14  C   UNL     1      35.072 -17.846 -21.884  0.00  0.00    +0.021 C 
ATOM     15  C   UNL     1      34.418 -19.591 -23.404  0.00  0.00    +0.021 C 
ATOM     16  C   UNL     1      35.223 -17.018 -22.985  0.00  0.00    +0.099 C 
ATOM     17  C   UNL     1      34.598 -18.686 -24.437  0.00  0.00    +0.099 C 
ENDBRANCH   7  13
ENDBRANCH   3   6
BRANCH   2  20
ATOM     18  O   UNL     1      35.085 -26.160 -14.977  0.00  0.00    -0.270 OA
ATOM     19  N   UNL     1      35.960 -24.223 -14.107  0.00  0.00    -0.298 N 
ATOM     20  C   UNL     1      35.184 -24.932 -15.019  0.00  0.00    +0.252 C 
ATOM     21  H   UNL     1      36.007 -23.243 -14.181  0.00  0.00    +0.150 HD
BRANCH  19  22
ATOM     22  C   UNL     1      36.700 -24.882 -13.052  0.00  0.00    +0.105 C 
BRANCH  22  23
ATOM     23  C   UNL     1      38.087 -25.251 -13.540  0.00  0.00    -0.004 C 
ATOM     24  C   UNL     1      38.580 -24.649 -14.683  0.00  0.00    -0.003 C 
ATOM     25  C   UNL     1      38.825 -26.180 -12.830  0.00  0.00    -0.003 C 
ATOM     26  C   UNL     1      39.856 -24.989 -15.132  0.00  0.00    -0.000 C 
ATOM     27  C   UNL     1      40.100 -26.521 -13.280  0.00  0.00    -0.000 C 
ATOM     28  C   UNL     1      40.616 -25.925 -14.432  0.00  0.00    -0.000 C 
ENDBRANCH  22  23
BRANCH  22  29
ATOM     29  C   UNL     1      36.705 -24.011 -11.783  0.00  0.00    +0.133 C 
BRANCH  29  31
ATOM     30  O   UNL     1      36.097 -24.410  -9.455  0.00  0.00    -0.250 OA
ATOM     31  C   UNL     1      35.898 -24.603 -10.646  0.00  0.00    +0.316 C 
BRANCH  31  32
ATOM     32  O   UNL     1      34.912 -25.418 -11.108  0.00  0.00    -0.480 OA
ATOM     33  H   UNL     1      34.726 -26.223 -10.668  0.00  0.00    +0.295 HD
ENDBRANCH  31  32
ENDBRANCH  29  31
ENDBRANCH  22  29
ENDBRANCH  19  22
ENDBRANCH   2  20
TORSDOF 8
ENDMDL
MODEL 2
REMARK VINA RESULT:     -11.1      2.877      4.745
REMARK  Name = 448942
REMARK  8 active torsions:
REMARK  status: ('A' for Active; 'I' for Inactive)
REMARK    1  A    between atoms: C_2  and  C_20
REMARK    2  A    between atoms: C_3  and  C_6
REMARK    3  A    between atoms: C_7  and  C_13
REMARK    4  A    between atoms: N_19  and  C_22
REMARK    5  A    between atoms: C_22  and  C_23
REMARK    6  A    between atoms: C_22  and  C_29
REMARK    7  A    between atoms: C_29  and  C_31
REMARK    8  A    between atoms: C_31  and  O_32
REMARK                            x       y       z     vdW  Elec       q    Type
REMARK                         _______ _______ _______ _____ _____    ______ ____
ROOT
ATOM      1  S   UNL     1      36.848 -21.525 -19.398  0.00  0.00    -0.082 S 
ATOM      2  C   UNL     1      35.161 -21.660 -19.365  0.00  0.00    +0.083 C 
ATOM      3  C   UNL     1      35.427 -19.839 -20.717  0.00  0.00    +0.007 C 
ATOM      4  C   UNL     1      34.505 -20.727 -20.089  0.00  0.00    +0.012 C 
ATOM      5  C   UNL     1      36.734 -20.159 -20.424  0.00  0.00    +0.036 C 
ENDROOT
BRANCH   3   6
ATOM      6  C   UNL     1      35.114 -18.721 -21.566  0.00  0.00    +0.001 C 
ATOM      7  C   UNL     1      34.505 -16.555 -23.212  0.00  0.00    +0.000 C 
ATOM      8  C   UNL     1      34.927 -17.457 -21.011  0.00  0.00    +0.000 C 
ATOM      9  C   UNL     1      34.996 -18.906 -22.943  0.00  0.00    +0.000 C 
ATOM     10  C   UNL     1      34.622 -16.373 -21.834  0.00  0.00    +0.000 C 
ATOM     11  C   UNL     1      34.691 -17.822 -23.766  0.00  0.00    +0.000 C 
BRANCH   7  13
ATOM     12  N   UNL     1      33.571 -13.260 -25.714  0.00  0.00    -0.242 NA
ATOM     13  C   UNL     1      34.187 -15.432 -24.066  0.00  0.00    +0.003 C 
ATOM     14  C   UNL     1      34.224 -14.138 -23.558  0.00  0.00    +0.021 C 
ATOM     15  C   UNL     1      33.842 -15.641 -25.397  0.00  0.00    +0.021 C 
ATOM     16  C   UNL     1      33.910 -13.096 -24.415  0.00  0.00    +0.099 C 
ATOM     17  C   UNL     1      33.546 -14.532 -26.172  0.00  0.00    +0.099 C 
ENDBRANCH   7  13
ENDBRANCH   3   6
BRANCH   2  20
ATOM     18  O   UNL     1      33.796 -23.572 -19.060  0.00  0.00    -0.270 OA
ATOM     19  N   UNL     1      34.931 -22.778 -17.228  0.00  0.00    -0.298 N 
ATOM     20  C   UNL     1      34.575 -22.750 -18.574  0.00  0.00    +0.252 C 
ATOM     21  H   UNL     1      35.557 -22.099 -16.887  0.00  0.00    +0.150 HD
BRANCH  19  22
ATOM     22  C   UNL     1      34.411 -23.773 -16.316  0.00  0.00    +0.105 C 
BRANCH  22  23
ATOM     23  C   UNL     1      35.530 -24.327 -15.455  0.00  0.00    -0.004 C 
ATOM     24  C   UNL     1      35.297 -25.462 -14.700  0.00  0.00    -0.003 C 
ATOM     25  C   UNL     1      36.753 -23.684 -15.445  0.00  0.00    -0.003 C 
ATOM     26  C   UNL     1      36.326 -25.972 -13.908  0.00  0.00    -0.000 C 
ATOM     27  C   UNL     1      37.781 -24.193 -14.653  0.00  0.00    -0.000 C 
ATOM     28  C   UNL     1      37.567 -25.337 -13.883  0.00  0.00    -0.000 C 
ENDBRANCH  22  23
BRANCH  22  29
ATOM     29  C   UNL     1      33.241 -23.190 -15.505  0.00  0.00    +0.133 C 
BRANCH  29  31
ATOM     30  O   UNL     1      31.094 -24.331 -15.696  0.00  0.00    -0.250 OA
ATOM     31  C   UNL     1      31.884 -23.492 -16.107  0.00  0.00    +0.316 C 
BRANCH  31  32
ATOM     32  O   UNL     1      31.644 -22.724 -17.202  0.00  0.00    -0.480 OA
ATOM     33  H   UNL     1      32.258 -22.712 -17.909  0.00  0.00    +0.295 HD
ENDBRANCH  31  32
ENDBRANCH  29  31
ENDBRANCH  22  29
ENDBRANCH  19  22
ENDBRANCH   2  20
TORSDOF 8
ENDMDL
MODEL 3
REMARK VINA RESULT:     -10.5      1.650      3.300
REMARK  Name = 448942
REMARK  8 active torsions:
REMARK  status: ('A' for Active; 'I' for Inactive)
REMARK    1  A    between atoms: C_2  and  C_20
REMARK    2  A    between atoms: C_3  and  C_6
REMARK    3  A    between atoms: C_7  and  C_13
REMARK    4  A    between atoms: N_19  and  C_22
REMARK    5  A    between atoms: C_22  and  C_23
REMARK    6  A    between atoms: C_22  and  C_29
REMARK    7  A    between atoms: C_29  and  C_31
REMARK    8  A    between atoms: C_31  and  O_32
REMARK                            x       y       z     vdW  Elec       q    Type
REMARK                         _______ _______ _______ _____ _____    ______ ____
ROOT
ATOM      1  S   UNL     1      33.503 -24.228 -16.316  0.00  0.00    -0.082 S 
ATOM      2  C   UNL     1      35.147 -23.840 -16.206  0.00  0.00    +0.083 C 
ATOM      3  C   UNL     1      34.514 -22.557 -17.986  0.00  0.00    +0.007 C 
ATOM      4  C   UNL     1      35.581 -22.953 -17.129  0.00  0.00    +0.012 C 
ATOM      5  C   UNL     1      33.329 -23.175 -17.656  0.00  0.00    +0.036 C 
ENDROOT
BRANCH   3   6
ATOM      6  C   UNL     1      34.582 -21.632 -19.085  0.00  0.00    +0.001 C 
ATOM      7  C   UNL     1      34.713 -19.837 -21.215  0.00  0.00    +0.000 C 
ATOM      8  C   UNL     1      35.820 -21.244 -19.593  0.00  0.00    +0.000 C 
ATOM      9  C   UNL     1      33.408 -21.124 -19.640  0.00  0.00    +0.000 C 
ATOM     10  C   UNL     1      35.887 -20.346 -20.658  0.00  0.00    +0.000 C 
ATOM     11  C   UNL     1      33.474 -20.225 -20.705  0.00  0.00    +0.000 C 
BRANCH   7  13
ATOM     12  N   UNL     1      34.916 -17.105 -24.452  0.00  0.00    -0.242 NA
ATOM     13  C   UNL     1      34.781 -18.905 -22.318  0.00  0.00    +0.003 C 
ATOM     14  C   UNL     1      34.468 -19.325 -23.606  0.00  0.00    +0.021 C 
ATOM     15  C   UNL     1      35.162 -17.586 -22.096  0.00  0.00    +0.021 C 
ATOM     16  C   UNL     1      34.550 -18.395 -24.630  0.00  0.00    +0.099 C 
ATOM     17  C   UNL     1      35.213 -16.734 -23.187  0.00  0.00    +0.099 C 
ENDBRANCH   7  13
ENDBRANCH   3   6
BRANCH   2  20
ATOM     18  O   UNL     1      35.487 -25.405 -14.461  0.00  0.00    -0.270 OA
ATOM     19  N   UNL     1      37.210 -23.964 -14.944  0.00  0.00    -0.298 N 
ATOM     20  C   UNL     1      35.934 -24.483 -15.146  0.00  0.00    +0.252 C 
ATOM     21  H   UNL     1      37.522 -23.228 -15.517  0.00  0.00    +0.150 HD
BRANCH  19  22
ATOM     22  C   UNL     1      38.092 -24.473 -13.916  0.00  0.00    +0.105 C 
BRANCH  22  23
ATOM     23  C   UNL     1      37.391 -24.458 -12.571  0.00  0.00    -0.004 C 
ATOM     24  C   UNL     1      36.888 -25.641 -12.063  0.00  0.00    -0.003 C 
ATOM     25  C   UNL     1      37.271 -23.262 -11.889  0.00  0.00    -0.003 C 
ATOM     26  C   UNL     1      36.243 -25.628 -10.826  0.00  0.00    -0.000 C 
ATOM     27  C   UNL     1      36.625 -23.248 -10.653  0.00  0.00    -0.000 C 
ATOM     28  C   UNL     1      36.110 -24.431 -10.122  0.00  0.00    -0.000 C 
ENDBRANCH  22  23
BRANCH  22  29
ATOM     29  C   UNL     1      38.630 -25.859 -14.314  0.00  0.00    +0.133 C 
BRANCH  29  31
ATOM     30  O   UNL     1      40.619 -26.439 -15.600  0.00  0.00    -0.250 OA
ATOM     31  C   UNL     1      40.105 -25.855 -14.657  0.00  0.00    +0.316 C 
BRANCH  31  32
ATOM     32  O   UNL     1      40.822 -25.129 -13.758  0.00  0.00    -0.480 OA
ATOM     33  H   UNL     1      40.439 -24.892 -12.937  0.00  0.00    +0.295 HD
ENDBRANCH  31  32
ENDBRANCH  29  31
ENDBRANCH  22  29
ENDBRANCH  19  22
ENDBRANCH   2  20
TORSDOF 8
ENDMDL
MODEL 4
REMARK VINA RESULT:     -10.4      2.503      4.546
REMARK  Name = 448942
REMARK  8 active torsions:
REMARK  status: ('A' for Active; 'I' for Inactive)
REMARK    1  A    between atoms: C_2  and  C_20
REMARK    2  A    between atoms: C_3  and  C_6
REMARK    3  A    between atoms: C_7  and  C_13
REMARK    4  A    between atoms: N_19  and  C_22
REMARK    5  A    between atoms: C_22  and  C_23
REMARK    6  A    between atoms: C_22  and  C_29
REMARK    7  A    between atoms: C_29  and  C_31
REMARK    8  A    between atoms: C_31  and  O_32
REMARK                            x       y       z     vdW  Elec       q    Type
REMARK                         _______ _______ _______ _____ _____    ______ ____
ROOT
ATOM      1  S   UNL     1      37.225 -22.935 -16.202  0.00  0.00    -0.082 S 
ATOM      2  C   UNL     1      35.546 -23.133 -16.286  0.00  0.00    +0.083 C 
ATOM      3  C   UNL     1      35.923 -21.828 -18.121  0.00  0.00    +0.007 C 
ATOM      4  C   UNL     1      34.955 -22.513 -17.330  0.00  0.00    +0.012 C 
ATOM      5  C   UNL     1      37.197 -21.975 -17.619  0.00  0.00    +0.036 C 
ENDROOT
BRANCH   3   6
ATOM      6  C   UNL     1      35.682 -21.056 -19.310  0.00  0.00    +0.001 C 
ATOM      7  C   UNL     1      35.213 -19.558 -21.614  0.00  0.00    +0.000 C 
ATOM      8  C   UNL     1      36.730 -20.365 -19.915  0.00  0.00    +0.000 C 
ATOM      9  C   UNL     1      34.399 -21.000 -19.854  0.00  0.00    +0.000 C 
ATOM     10  C   UNL     1      36.496 -19.615 -21.068  0.00  0.00    +0.000 C 
ATOM     11  C   UNL     1      34.165 -20.250 -21.007  0.00  0.00    +0.000 C 
BRANCH   7  13
ATOM     12  N   UNL     1      34.503 -17.276 -25.118  0.00  0.00    -0.242 NA
ATOM     13  C   UNL     1      34.970 -18.780 -22.808  0.00  0.00    +0.003 C 
ATOM     14  C   UNL     1      34.377 -19.371 -23.918  0.00  0.00    +0.021 C 
ATOM     15  C   UNL     1      35.329 -17.437 -22.852  0.00  0.00    +0.021 C 
ATOM     16  C   UNL     1      34.167 -18.584 -25.038  0.00  0.00    +0.099 C 
ATOM     17  C   UNL     1      35.077 -16.736 -24.020  0.00  0.00    +0.099 C 
ENDBRANCH   7  13
ENDBRANCH   3   6
BRANCH   2  20
ATOM     18  O   UNL     1      35.009 -25.168 -15.197  0.00  0.00    -0.270 OA
ATOM     19  N   UNL     1      34.123 -23.235 -14.328  0.00  0.00    -0.298 N 
ATOM     20  C   UNL     1      34.897 -23.941 -15.244  0.00  0.00    +0.252 C 
ATOM     21  H   UNL     1      34.065 -22.256 -14.407  0.00  0.00    +0.150 HD
BRANCH  19  22
ATOM     22  C   UNL     1      33.398 -23.896 -13.264  0.00  0.00    +0.105 C 
BRANCH  22  23
ATOM     23  C   UNL     1      31.997 -24.248 -13.726  0.00  0.00    -0.004 C 
ATOM     24  C   UNL     1      31.503 -25.513 -13.468  0.00  0.00    -0.003 C 
ATOM     25  C   UNL     1      31.250 -23.296 -14.394  0.00  0.00    -0.003 C 
ATOM     26  C   UNL     1      30.215 -25.838 -13.894  0.00  0.00    -0.000 C 
ATOM     27  C   UNL     1      29.963 -23.620 -14.820  0.00  0.00    -0.000 C 
ATOM     28  C   UNL     1      29.445 -24.892 -14.570  0.00  0.00    -0.000 C 
ENDBRANCH  22  23
BRANCH  22  29
ATOM     29  C   UNL     1      34.198 -25.104 -12.746  0.00  0.00    +0.133 C 
BRANCH  29  31
ATOM     30  O   UNL     1      35.232 -25.438 -10.563  0.00  0.00    -0.250 OA
ATOM     31  C   UNL     1      35.103 -24.769 -11.579  0.00  0.00    +0.316 C 
BRANCH  31  32
ATOM     32  O   UNL     1      35.757 -23.594 -11.779  0.00  0.00    -0.480 OA
ATOM     33  H   UNL     1      35.733 -22.928 -11.121  0.00  0.00    +0.295 HD
ENDBRANCH  31  32
ENDBRANCH  29  31
ENDBRANCH  22  29
ENDBRANCH  19  22
ENDBRANCH   2  20
TORSDOF 8
ENDMDL
MODEL 5
REMARK VINA RESULT:      -9.9      9.412     15.417
REMARK  Name = 448942
REMARK  8 active torsions:
REMARK  status: ('A' for Active; 'I' for Inactive)
REMARK    1  A    between atoms: C_2  and  C_20
REMARK    2  A    between atoms: C_3  and  C_6
REMARK    3  A    between atoms: C_7  and  C_13
REMARK    4  A    between atoms: N_19  and  C_22
REMARK    5  A    between atoms: C_22  and  C_23
REMARK    6  A    between atoms: C_22  and  C_29
REMARK    7  A    between atoms: C_29  and  C_31
REMARK    8  A    between atoms: C_31  and  O_32
REMARK                            x       y       z     vdW  Elec       q    Type
REMARK                         _______ _______ _______ _____ _____    ______ ____
ROOT
ATOM      1  S   UNL     1      33.764 -11.221 -24.818  0.00  0.00    -0.082 S 
ATOM      2  C   UNL     1      33.320 -10.978 -23.202  0.00  0.00    +0.083 C 
ATOM      3  C   UNL     1      34.012 -13.154 -23.142  0.00  0.00    +0.007 C 
ATOM      4  C   UNL     1      33.487 -12.054 -22.402  0.00  0.00    +0.012 C 
ATOM      5  C   UNL     1      34.208 -12.838 -24.468  0.00  0.00    +0.036 C 
ENDROOT
BRANCH   3   6
ATOM      6  C   UNL     1      34.323 -14.466 -22.642  0.00  0.00    +0.001 C 
ATOM      7  C   UNL     1      34.929 -17.009 -21.675  0.00  0.00    +0.000 C 
ATOM      8  C   UNL     1      34.265 -14.721 -21.274  0.00  0.00    +0.000 C 
ATOM      9  C   UNL     1      34.683 -15.480 -23.529  0.00  0.00    +0.000 C 
ATOM     10  C   UNL     1      34.569 -15.993 -20.789  0.00  0.00    +0.000 C 
ATOM     11  C   UNL     1      34.987 -16.752 -23.044  0.00  0.00    +0.000 C 
BRANCH   7  13
ATOM     12  N   UNL     1      35.856 -20.877 -20.203  0.00  0.00    -0.242 NA
ATOM     13  C   UNL     1      35.244 -18.328 -21.172  0.00  0.00    +0.003 C 
ATOM     14  C   UNL     1      36.566 -18.682 -20.925  0.00  0.00    +0.021 C 
ATOM     15  C   UNL     1      34.228 -19.247 -20.935  0.00  0.00    +0.021 C 
ATOM     16  C   UNL     1      36.817 -19.957 -20.445  0.00  0.00    +0.099 C 
ATOM     17  C   UNL     1      34.583 -20.497 -20.455  0.00  0.00    +0.099 C 
ENDBRANCH   7  13
ENDBRANCH   3   6
BRANCH   2  20
ATOM     18  O   UNL     1      31.610  -9.367 -22.897  0.00  0.00    -0.270 OA
ATOM     19  N   UNL     1      33.762  -8.735 -22.403  0.00  0.00    -0.298 N 
ATOM     20  C   UNL     1      32.806  -9.655 -22.823  0.00  0.00    +0.252 C 
ATOM     21  H   UNL     1      34.706  -9.013 -22.361  0.00  0.00    +0.150 HD
BRANCH  19  22
ATOM     22  C   UNL     1      33.414  -7.382 -22.027  0.00  0.00    +0.105 C 
BRANCH  22  23
ATOM     23  C   UNL     1      33.305  -6.509 -23.262  0.00  0.00    -0.004 C 
ATOM     24  C   UNL     1      34.246  -6.646 -24.266  0.00  0.00    -0.003 C 
ATOM     25  C   UNL     1      32.270  -5.598 -23.353  0.00  0.00    -0.003 C 
ATOM     26  C   UNL     1      34.146  -5.842 -25.403  0.00  0.00    -0.000 C 
ATOM     27  C   UNL     1      32.171  -4.794 -24.488  0.00  0.00    -0.000 C 
ATOM     28  C   UNL     1      33.110  -4.916 -25.513  0.00  0.00    -0.000 C 
ENDBRANCH  22  23
BRANCH  22  29
ATOM     29  C   UNL     1      32.144  -7.382 -21.159  0.00  0.00    +0.133 C 
BRANCH  29  31
ATOM     30  O   UNL     1      31.819  -8.762 -19.175  0.00  0.00    -0.250 OA
ATOM     31  C   UNL     1      32.390  -7.837 -19.736  0.00  0.00    +0.316 C 
BRANCH  31  32
ATOM     32  O   UNL     1      33.326  -7.065 -19.122  0.00  0.00    -0.480 OA
ATOM     33  H   UNL     1      34.216  -7.352 -19.084  0.00  0.00    +0.295 HD
ENDBRANCH  31  32
ENDBRANCH  29  31
ENDBRANCH  22  29
ENDBRANCH  19  22
ENDBRANCH   2  20
TORSDOF 8
ENDMDL
MODEL 6
REMARK VINA RESULT:      -9.8      5.253     11.827
REMARK  Name = 448942
REMARK  8 active torsions:
REMARK  status: ('A' for Active; 'I' for Inactive)
REMARK    1  A    between atoms: C_2  and  C_20
REMARK    2  A    between atoms: C_3  and  C_6
REMARK    3  A    between atoms: C_7  and  C_13
REMARK    4  A    between atoms: N_19  and  C_22
REMARK    5  A    between atoms: C_22  and  C_23
REMARK    6  A    between atoms: C_22  and  C_29
REMARK    7  A    between atoms: C_29  and  C_31
REMARK    8  A    between atoms: C_31  and  O_32
REMARK                            x       y       z     vdW  Elec       q    Type
REMARK                         _______ _______ _______ _____ _____    ______ ____
ROOT
ATOM      1  S   UNL     1      34.934 -18.796 -23.672  0.00  0.00    -0.082 S 
ATOM      2  C   UNL     1      34.912 -17.660 -22.417  0.00  0.00    +0.083 C 
ATOM      3  C   UNL     1      35.006 -19.612 -21.236  0.00  0.00    +0.007 C 
ATOM      4  C   UNL     1      34.953 -18.189 -21.175  0.00  0.00    +0.012 C 
ATOM      5  C   UNL     1      35.001 -20.074 -22.533  0.00  0.00    +0.036 C 
ENDROOT
BRANCH   3   6
ATOM      6  C   UNL     1      35.059 -20.527 -20.128  0.00  0.00    +0.001 C 
ATOM      7  C   UNL     1      35.164 -22.298 -17.978  0.00  0.00    +0.000 C 
ATOM      8  C   UNL     1      33.888 -21.114 -19.653  0.00  0.00    +0.000 C 
ATOM      9  C   UNL     1      36.284 -20.823 -19.529  0.00  0.00    +0.000 C 
ATOM     10  C   UNL     1      33.939 -22.000 -18.577  0.00  0.00    +0.000 C 
ATOM     11  C   UNL     1      36.335 -21.710 -18.453  0.00  0.00    +0.000 C 
BRANCH   7  13
ATOM     12  N   UNL     1      35.318 -24.988 -14.702  0.00  0.00    -0.242 NA
ATOM     13  C   UNL     1      35.217 -23.216 -16.862  0.00  0.00    +0.003 C 
ATOM     14  C   UNL     1      34.088 -23.943 -16.502  0.00  0.00    +0.021 C 
ATOM     15  C   UNL     1      36.397 -23.374 -16.142  0.00  0.00    +0.021 C 
ATOM     16  C   UNL     1      34.189 -24.809 -15.425  0.00  0.00    +0.099 C 
ATOM     17  C   UNL     1      36.395 -24.264 -15.081  0.00  0.00    +0.099 C 
ENDBRANCH   7  13
ENDBRANCH   3   6
BRANCH   2  20
ATOM     18  O   UNL     1      35.753 -15.681 -23.411  0.00  0.00    -0.270 OA
ATOM     19  N   UNL     1      33.726 -15.549 -22.339  0.00  0.00    -0.298 N 
ATOM     20  C   UNL     1      34.853 -16.238 -22.780  0.00  0.00    +0.252 C 
ATOM     21  H   UNL     1      33.034 -16.039 -21.839  0.00  0.00    +0.150 HD
BRANCH  19  22
ATOM     22  C   UNL     1      33.540 -14.137 -22.593  0.00  0.00    +0.105 C 
BRANCH  22  23
ATOM     23  C   UNL     1      33.512 -13.874 -24.086  0.00  0.00    -0.004 C 
ATOM     24  C   UNL     1      33.943 -12.649 -24.560  0.00  0.00    -0.003 C 
ATOM     25  C   UNL     1      33.056 -14.864 -24.935  0.00  0.00    -0.003 C 
ATOM     26  C   UNL     1      33.916 -12.406 -25.934  0.00  0.00    -0.000 C 
ATOM     27  C   UNL     1      33.029 -14.622 -26.308  0.00  0.00    -0.000 C 
ATOM     28  C   UNL     1      33.459 -13.392 -26.808  0.00  0.00    -0.000 C 
ENDBRANCH  22  23
BRANCH  22  29
ATOM     29  C   UNL     1      32.293 -13.623 -21.853  0.00  0.00    +0.133 C 
BRANCH  29  31
ATOM     30  O   UNL     1      32.589 -14.996 -19.859  0.00  0.00    -0.250 OA
ATOM     31  C   UNL     1      32.312 -13.919 -20.368  0.00  0.00    +0.316 C 
BRANCH  31  32
ATOM     32  O   UNL     1      31.951 -12.829 -19.640  0.00  0.00    -0.480 OA
ATOM     33  H   UNL     1      32.533 -12.098 -19.572  0.00  0.00    +0.295 HD
ENDBRANCH  31  32
ENDBRANCH  29  31
ENDBRANCH  22  29
ENDBRANCH  19  22
ENDBRANCH   2  20
TORSDOF 8
ENDMDL
MODEL 7
REMARK VINA RESULT:      -9.6      6.361     12.286
REMARK  Name = 448942
REMARK  8 active torsions:
REMARK  status: ('A' for Active; 'I' for Inactive)
REMARK    1  A    between atoms: C_2  and  C_20
REMARK    2  A    between atoms: C_3  and  C_6
REMARK    3  A    between atoms: C_7  and  C_13
REMARK    4  A    between atoms: N_19  and  C_22
REMARK    5  A    between atoms: C_22  and  C_23
REMARK    6  A    between atoms: C_22  and  C_29
REMARK    7  A    between atoms: C_29  and  C_31
REMARK    8  A    between atoms: C_31  and  O_32
REMARK                            x       y       z     vdW  Elec       q    Type
REMARK                         _______ _______ _______ _____ _____    ______ ____
ROOT
ATOM      1  S   UNL     1      34.666 -18.602 -24.459  0.00  0.00    -0.082 S 
ATOM      2  C   UNL     1      34.547 -17.393 -23.280  0.00  0.00    +0.083 C 
ATOM      3  C   UNL     1      35.036 -19.212 -21.990  0.00  0.00    +0.007 C 
ATOM      4  C   UNL     1      34.758 -17.815 -22.014  0.00  0.00    +0.012 C 
ATOM      5  C   UNL     1      35.016 -19.765 -23.251  0.00  0.00    +0.036 C 
ENDROOT
BRANCH   3   6
ATOM      6  C   UNL     1      35.312 -20.022 -20.834  0.00  0.00    +0.001 C 
ATOM      7  C   UNL     1      35.849 -21.589 -18.592  0.00  0.00    +0.000 C 
ATOM      8  C   UNL     1      34.285 -20.740 -20.226  0.00  0.00    +0.000 C 
ATOM      9  C   UNL     1      36.608 -20.085 -20.323  0.00  0.00    +0.000 C 
ATOM     10  C   UNL     1      34.552 -21.524 -19.104  0.00  0.00    +0.000 C 
ATOM     11  C   UNL     1      36.876 -20.869 -19.201  0.00  0.00    +0.000 C 
BRANCH   7  13
ATOM     12  N   UNL     1      36.664 -23.972 -15.179  0.00  0.00    -0.242 NA
ATOM     13  C   UNL     1      36.126 -22.401 -17.428  0.00  0.00    +0.003 C 
ATOM     14  C   UNL     1      37.405 -22.426 -16.884  0.00  0.00    +0.021 C 
ATOM     15  C   UNL     1      35.116 -23.161 -16.849  0.00  0.00    +0.021 C 
ATOM     16  C   UNL     1      37.621 -23.221 -15.769  0.00  0.00    +0.099 C 
ATOM     17  C   UNL     1      35.433 -23.923 -15.737  0.00  0.00    +0.099 C 
ENDBRANCH   7  13
ENDBRANCH   3   6
BRANCH   2  20
ATOM     18  O   UNL     1      34.512 -15.626 -24.858  0.00  0.00    -0.270 OA
ATOM     19  N   UNL     1      33.630 -15.208 -22.778  0.00  0.00    -0.298 N 
ATOM     20  C   UNL     1      34.234 -16.029 -23.726  0.00  0.00    +0.252 C 
ATOM     21  H   UNL     1      33.428 -15.576 -21.888  0.00  0.00    +0.150 HD
BRANCH  19  22
ATOM     22  C   UNL     1      33.290 -13.830 -23.059  0.00  0.00    +0.105 C 
BRANCH  22  23
ATOM     23  C   UNL     1      32.610 -13.204 -21.857  0.00  0.00    -0.004 C 
ATOM     24  C   UNL     1      32.588 -13.898 -20.662  0.00  0.00    -0.003 C 
ATOM     25  C   UNL     1      32.028 -11.957 -21.986  0.00  0.00    -0.003 C 
ATOM     26  C   UNL     1      31.961 -13.324 -19.555  0.00  0.00    -0.000 C 
ATOM     27  C   UNL     1      31.402 -11.382 -20.881  0.00  0.00    -0.000 C 
ATOM     28  C   UNL     1      31.368 -12.067 -19.665  0.00  0.00    -0.000 C 
ENDBRANCH  22  23
BRANCH  22  29
ATOM     29  C   UNL     1      34.536 -13.060 -23.531  0.00  0.00    +0.133 C 
BRANCH  29  31
ATOM     30  O   UNL     1      33.535 -12.445 -25.668  0.00  0.00    -0.250 OA
ATOM     31  C   UNL     1      34.277 -12.176 -24.733  0.00  0.00    +0.316 C 
BRANCH  31  32
ATOM     32  O   UNL     1      34.999 -11.026 -24.669  0.00  0.00    -0.480 OA
ATOM     33  H   UNL     1      35.662 -10.854 -25.308  0.00  0.00    +0.295 HD
ENDBRANCH  31  32
ENDBRANCH  29  31
ENDBRANCH  22  29
ENDBRANCH  19  22
ENDBRANCH   2  20
TORSDOF 8
ENDMDL
MODEL 8
REMARK VINA RESULT:      -9.5      7.405     11.461
REMARK  Name = 448942
REMARK  8 active torsions:
REMARK  status: ('A' for Active; 'I' for Inactive)
REMARK    1  A    between atoms: C_2  and  C_20
REMARK    2  A    between atoms: C_3  and  C_6
REMARK    3  A    between atoms: C_7  and  C_13
REMARK    4  A    between atoms: N_19  and  C_22
REMARK    5  A    between atoms: C_22  and  C_23
REMARK    6  A    between atoms: C_22  and  C_29
REMARK    7  A    between atoms: C_29  and  C_31
REMARK    8  A    between atoms: C_31  and  O_32
REMARK                            x       y       z     vdW  Elec       q    Type
REMARK                         _______ _______ _______ _____ _____    ______ ____
ROOT
ATOM      1  S   UNL     1      32.281 -15.446 -19.784  0.00  0.00    -0.082 S 
ATOM      2  C   UNL     1      33.668 -15.337 -20.749  0.00  0.00    +0.083 C 
ATOM      3  C   UNL     1      32.782 -13.250 -21.022  0.00  0.00    +0.007 C 
ATOM      4  C   UNL     1      33.841 -14.143 -21.357  0.00  0.00    +0.012 C 
ATOM      5  C   UNL     1      31.865 -13.831 -20.175  0.00  0.00    +0.036 C 
ENDROOT
BRANCH   3   6
ATOM      6  C   UNL     1      32.616 -11.894 -21.471  0.00  0.00    +0.001 C 
ATOM      7  C   UNL     1      32.293  -9.265 -22.340  0.00  0.00    +0.000 C 
ATOM      8  C   UNL     1      33.147 -11.497 -22.696  0.00  0.00    +0.000 C 
ATOM      9  C   UNL     1      31.923 -10.979 -20.679  0.00  0.00    +0.000 C 
ATOM     10  C   UNL     1      32.987 -10.181 -23.132  0.00  0.00    +0.000 C 
ATOM     11  C   UNL     1      31.762  -9.664 -21.114  0.00  0.00    +0.000 C 
BRANCH   7  13
ATOM     12  N   UNL     1      31.806  -5.265 -23.664  0.00  0.00    -0.242 NA
ATOM     13  C   UNL     1      32.128  -7.901 -22.791  0.00  0.00    +0.003 C 
ATOM     14  C   UNL     1      30.935  -7.227 -22.553  0.00  0.00    +0.021 C 
ATOM     15  C   UNL     1      33.160  -7.257 -23.465  0.00  0.00    +0.021 C 
ATOM     16  C   UNL     1      30.825  -5.922 -23.005  0.00  0.00    +0.099 C 
ATOM     17  C   UNL     1      32.951  -5.952 -23.877  0.00  0.00    +0.099 C 
ENDBRANCH   7  13
ENDBRANCH   3   6
BRANCH   2  20
ATOM     18  O   UNL     1      35.411 -16.756 -20.002  0.00  0.00    -0.270 OA
ATOM     19  N   UNL     1      34.331 -17.337 -21.943  0.00  0.00    -0.298 N 
ATOM     20  C   UNL     1      34.537 -16.518 -20.837  0.00  0.00    +0.252 C 
ATOM     21  H   UNL     1      33.620 -17.104 -22.583  0.00  0.00    +0.150 HD
BRANCH  19  22
ATOM     22  C   UNL     1      35.129 -18.520 -22.184  0.00  0.00    +0.105 C 
BRANCH  22  23
ATOM     23  C   UNL     1      34.748 -19.614 -21.205  0.00  0.00    -0.004 C 
ATOM     24  C   UNL     1      35.749 -20.349 -20.597  0.00  0.00    -0.003 C 
ATOM     25  C   UNL     1      33.411 -19.849 -20.946  0.00  0.00    -0.003 C 
ATOM     26  C   UNL     1      35.399 -21.356 -19.697  0.00  0.00    -0.000 C 
ATOM     27  C   UNL     1      33.061 -20.856 -20.047  0.00  0.00    -0.000 C 
ATOM     28  C   UNL     1      34.056 -21.610 -19.423  0.00  0.00    -0.000 C 
ENDBRANCH  22  23
BRANCH  22  29
ATOM     29  C   UNL     1      35.018 -18.946 -23.658  0.00  0.00    +0.133 C 
BRANCH  29  31
ATOM     30  O   UNL     1      33.683 -17.841 -25.374  0.00  0.00    -0.250 OA
ATOM     31  C   UNL     1      34.614 -17.815 -24.580  0.00  0.00    +0.316 C 
BRANCH  31  32
ATOM     32  O   UNL     1      35.440 -16.744 -24.445  0.00  0.00    -0.480 OA
ATOM     33  H   UNL     1      35.971 -16.657 -23.679  0.00  0.00    +0.295 HD
ENDBRANCH  31  32
ENDBRANCH  29  31
ENDBRANCH  22  29
ENDBRANCH  19  22
ENDBRANCH   2  20
TORSDOF 8
ENDMDL
MODEL 9
REMARK VINA RESULT:      -9.2      5.437     11.781
REMARK  Name = 448942
REMARK  8 active torsions:
REMARK  status: ('A' for Active; 'I' for Inactive)
REMARK    1  A    between atoms: C_2  and  C_20
REMARK    2  A    between atoms: C_3  and  C_6
REMARK    3  A    between atoms: C_7  and  C_13
REMARK    4  A    between atoms: N_19  and  C_22
REMARK    5  A    between atoms: C_22  and  C_23
REMARK    6  A    between atoms: C_22  and  C_29
REMARK    7  A    between atoms: C_29  and  C_31
REMARK    8  A    between atoms: C_31  and  O_32
REMARK                            x       y       z     vdW  Elec       q    Type
REMARK                         _______ _______ _______ _____ _____    ______ ____
ROOT
ATOM      1  S   UNL     1      37.230 -18.834 -22.126  0.00  0.00    -0.082 S 
ATOM      2  C   UNL     1      35.560 -18.726 -21.872  0.00  0.00    +0.083 C 
ATOM      3  C   UNL     1      36.159 -20.186 -20.222  0.00  0.00    +0.007 C 
ATOM      4  C   UNL     1      35.095 -19.474 -20.848  0.00  0.00    +0.012 C 
ATOM      5  C   UNL     1      37.373 -19.929 -20.817  0.00  0.00    +0.036 C 
ENDROOT
BRANCH   3   6
ATOM      6  C   UNL     1      36.061 -21.082 -19.101  0.00  0.00    +0.001 C 
ATOM      7  C   UNL     1      35.874 -22.818 -16.928  0.00  0.00    +0.000 C 
ATOM      8  C   UNL     1      34.923 -21.868 -18.935  0.00  0.00    +0.000 C 
ATOM      9  C   UNL     1      37.107 -21.162 -18.182  0.00  0.00    +0.000 C 
ATOM     10  C   UNL     1      34.828 -22.736 -17.848  0.00  0.00    +0.000 C 
ATOM     11  C   UNL     1      37.012 -22.031 -17.095  0.00  0.00    +0.000 C 
BRANCH   7  13
ATOM     12  N   UNL     1      35.585 -25.458 -13.621  0.00  0.00    -0.242 NA
ATOM     13  C   UNL     1      35.775 -23.717 -15.800  0.00  0.00    +0.003 C 
ATOM     14  C   UNL     1      36.926 -24.165 -15.161  0.00  0.00    +0.021 C 
ATOM     15  C   UNL     1      34.528 -24.140 -15.350  0.00  0.00    +0.021 C 
ATOM     16  C   UNL     1      36.779 -25.026 -14.086  0.00  0.00    +0.099 C 
ATOM     17  C   UNL     1      34.488 -25.002 -14.267  0.00  0.00    +0.099 C 
ENDBRANCH   7  13
ENDBRANCH   3   6
BRANCH   2  20
ATOM     18  O   UNL     1      34.482 -18.184 -23.911  0.00  0.00    -0.270 OA
ATOM     19  N   UNL     1      34.442 -16.609 -22.239  0.00  0.00    -0.298 N 
ATOM     20  C   UNL     1      34.786 -17.852 -22.764  0.00  0.00    +0.252 C 
ATOM     21  H   UNL     1      34.708 -16.391 -21.317  0.00  0.00    +0.150 HD
BRANCH  19  22
ATOM     22  C   UNL     1      33.706 -15.628 -23.008  0.00  0.00    +0.105 C 
BRANCH  22  23
ATOM     23  C   UNL     1      33.087 -14.598 -22.082  0.00  0.00    -0.004 C 
ATOM     24  C   UNL     1      32.756 -13.355 -22.588  0.00  0.00    -0.003 C 
ATOM     25  C   UNL     1      32.870 -14.928 -20.758  0.00  0.00    -0.003 C 
ATOM     26  C   UNL     1      32.186 -12.407 -21.737  0.00  0.00    -0.000 C 
ATOM     27  C   UNL     1      32.302 -13.981 -19.907  0.00  0.00    -0.000 C 
ATOM     28  C   UNL     1      31.960 -12.720 -20.397  0.00  0.00    -0.000 C 
ENDBRANCH  22  23
BRANCH  22  29
ATOM     29  C   UNL     1      34.610 -15.017 -24.093  0.00  0.00    +0.133 C 
BRANCH  29  31
ATOM     30  O   UNL     1      33.564 -14.078 -26.086  0.00  0.00    -0.250 OA
ATOM     31  C   UNL     1      33.992 -15.048 -25.475  0.00  0.00    +0.316 C 
BRANCH  31  32
ATOM     32  O   UNL     1      33.940 -16.314 -25.968  0.00  0.00    -0.480 OA
ATOM     33  H   UNL     1      34.191 -17.036 -25.428  0.00  0.00    +0.295 HD
ENDBRANCH  31  32
ENDBRANCH  29  31
ENDBRANCH  22  29
ENDBRANCH  19  22
ENDBRANCH   2  20
TORSDOF 8
ENDMDL
