MODEL 1
REMARK VINA RESULT:     -11.1      0.000      0.000
REMARK  Name = 6918248
REMARK  5 active torsions:
REMARK  status: ('A' for Active; 'I' for Inactive)
REMARK    1  A    between atoms: N_1  and  C_18
REMARK    2  A    between atoms: N_2  and  C_8
REMARK    3  A    between atoms: C_11  and  C_17
REMARK    4  A    between atoms: C_18  and  C_19
REMARK    5  A    between atoms: C_19  and  N_21
REMARK                            x       y       z     vdW  Elec       q    Type
REMARK                         _______ _______ _______ _____ _____    ______ ____
ROOT
ATOM      1  N   UNL     1      32.670 -12.994 -22.695  0.00  0.00    +0.391 N 
ATOM      2  N   UNL     1      32.679 -10.166 -22.284  0.00  0.00    -0.312 N 
ATOM      3  C   UNL     1      32.125 -12.422 -21.458  0.00  0.00    -0.055 C 
ATOM      4  C   UNL     1      33.794 -12.177 -23.170  0.00  0.00    -0.055 C 
ATOM      5  C   UNL     1      31.623 -10.994 -21.687  0.00  0.00    +0.068 C 
ATOM      6  C   UNL     1      33.348 -10.741 -23.456  0.00  0.00    +0.068 C 
ATOM      7  H   UNL     1      31.940 -12.994 -23.408  0.00  0.00    -0.079 HD
ENDROOT
BRANCH   2   8
ATOM      8  C   UNL     1      32.578  -8.777 -22.154  0.00  0.00    +0.048 C 
ATOM      9  C   UNL     1      32.887  -7.922 -23.230  0.00  0.00    +0.018 C 
ATOM     10  C   UNL     1      32.162  -8.191 -20.942  0.00  0.00    +0.015 C 
ATOM     11  C   UNL     1      32.785  -6.537 -23.100  0.00  0.00    +0.073 C 
ATOM     12  C   UNL     1      32.058  -6.806 -20.811  0.00  0.00    +0.001 C 
ATOM     13  C   UNL     1      32.371  -5.979 -21.890  0.00  0.00    +0.004 C 
BRANCH  11  17
ATOM     14  F   UNL     1      34.461  -5.543 -24.487  0.00  0.00    -0.166 F 
ATOM     15  F   UNL     1      32.584  -6.072 -25.437  0.00  0.00    -0.166 F 
ATOM     16  F   UNL     1      32.672  -4.375 -24.081  0.00  0.00    -0.166 F 
ATOM     17  C   UNL     1      33.120  -5.653 -24.252  0.00  0.00    +0.419 C 
ENDBRANCH  11  17
ENDBRANCH   2   8
BRANCH   1  18
ATOM     18  C   UNL     1      33.096 -14.376 -22.477  0.00  0.00    -0.052 C 
BRANCH  18  19
ATOM     19  C   UNL     1      34.424 -14.636 -23.171  0.00  0.00    +0.088 C 
BRANCH  19  21
ATOM     20  O   UNL     1      34.028 -15.754 -25.947  0.00  0.00    -0.247 OA
ATOM     21  N   UNL     1      34.515 -15.995 -23.631  0.00  0.00    -0.282 N 
ATOM     22  N   UNL     1      34.501 -17.845 -24.950  0.00  0.00    -0.305 N 
ATOM     23  C   UNL     1      34.820 -17.109 -22.832  0.00  0.00    +0.079 A 
ATOM     24  C   UNL     1      34.310 -16.434 -24.971  0.00  0.00    +0.328 A 
ATOM     25  C   UNL     1      34.809 -18.239 -23.647  0.00  0.00    +0.076 A 
ATOM     26  C   UNL     1      35.096 -17.196 -21.483  0.00  0.00    +0.019 C 
ATOM     27  C   UNL     1      35.072 -19.502 -23.164  0.00  0.00    +0.019 C 
ATOM     28  C   UNL     1      35.367 -18.469 -20.969  0.00  0.00    +0.002 C 
ATOM     29  C   UNL     1      35.354 -19.609 -21.800  0.00  0.00    +0.002 C 
ATOM     30  H   UNL     1      34.428 -18.444 -25.728  0.00  0.00    +0.170 HD
ENDBRANCH  19  21
ENDBRANCH  18  19
ENDBRANCH   1  18
TORSDOF 5
ENDMDL
MODEL 2
REMARK VINA RESULT:     -10.9      3.925      5.834
REMARK  Name = 6918248
REMARK  5 active torsions:
REMARK  status: ('A' for Active; 'I' for Inactive)
REMARK    1  A    between atoms: N_1  and  C_18
REMARK    2  A    between atoms: N_2  and  C_8
REMARK    3  A    between atoms: C_11  and  C_17
REMARK    4  A    between atoms: C_18  and  C_19
REMARK    5  A    between atoms: C_19  and  N_21
REMARK                            x       y       z     vdW  Elec       q    Type
REMARK                         _______ _______ _______ _____ _____    ______ ____
ROOT
ATOM      1  N   UNL     1      35.463 -17.129 -22.708  0.00  0.00    +0.391 N 
ATOM      2  N   UNL     1      34.022 -14.673 -22.469  0.00  0.00    -0.312 N 
ATOM      3  C   UNL     1      34.747 -16.573 -23.862  0.00  0.00    -0.055 C 
ATOM      4  C   UNL     1      34.740 -16.808 -21.471  0.00  0.00    -0.055 C 
ATOM      5  C   UNL     1      34.626 -15.051 -23.753  0.00  0.00    +0.068 C 
ATOM      6  C   UNL     1      34.618 -15.294 -21.282  0.00  0.00    +0.068 C 
ATOM      7  H   UNL     1      36.392 -16.711 -22.663  0.00  0.00    -0.079 HD
ENDROOT
BRANCH   2   8
ATOM      8  C   UNL     1      33.428 -13.411 -22.368  0.00  0.00    +0.048 C 
ATOM      9  C   UNL     1      32.556 -13.101 -21.306  0.00  0.00    +0.018 C 
ATOM     10  C   UNL     1      33.686 -12.410 -23.327  0.00  0.00    +0.015 C 
ATOM     11  C   UNL     1      31.964 -11.842 -21.207  0.00  0.00    +0.073 C 
ATOM     12  C   UNL     1      33.095 -11.150 -23.226  0.00  0.00    +0.001 C 
ATOM     13  C   UNL     1      32.234 -10.866 -22.167  0.00  0.00    +0.004 C 
BRANCH  11  17
ATOM     14  F   UNL     1      29.733 -11.815 -20.345  0.00  0.00    -0.166 F 
ATOM     15  F   UNL     1      31.327 -12.236 -18.936  0.00  0.00    -0.166 F 
ATOM     16  F   UNL     1      31.071 -10.222 -19.713  0.00  0.00    -0.166 F 
ATOM     17  C   UNL     1      31.043 -11.538 -20.074  0.00  0.00    +0.419 C 
ENDBRANCH  11  17
ENDBRANCH   2   8
BRANCH   1  18
ATOM     18  C   UNL     1      35.620 -18.576 -22.850  0.00  0.00    -0.052 C 
BRANCH  18  19
ATOM     19  C   UNL     1      34.700 -19.306 -21.883  0.00  0.00    +0.088 C 
BRANCH  19  21
ATOM     20  O   UNL     1      37.625 -19.074 -21.174  0.00  0.00    -0.247 OA
ATOM     21  N   UNL     1      35.450 -19.988 -20.864  0.00  0.00    -0.282 N 
ATOM     22  N   UNL     1      37.141 -20.688 -19.516  0.00  0.00    -0.305 N 
ATOM     23  C   UNL     1      34.934 -20.936 -19.965  0.00  0.00    +0.079 A 
ATOM     24  C   UNL     1      36.840 -19.814 -20.600  0.00  0.00    +0.328 A 
ATOM     25  C   UNL     1      35.976 -21.361 -19.143  0.00  0.00    +0.076 A 
ATOM     26  C   UNL     1      33.656 -21.436 -19.826  0.00  0.00    +0.019 C 
ATOM     27  C   UNL     1      35.798 -22.296 -18.147  0.00  0.00    +0.019 C 
ATOM     28  C   UNL     1      33.450 -22.387 -18.821  0.00  0.00    +0.002 C 
ATOM     29  C   UNL     1      34.509 -22.812 -17.991  0.00  0.00    +0.002 C 
ATOM     30  H   UNL     1      38.025 -20.798 -19.098  0.00  0.00    +0.170 HD
ENDBRANCH  19  21
ENDBRANCH  18  19
ENDBRANCH   1  18
TORSDOF 5
ENDMDL
MODEL 3
REMARK VINA RESULT:     -10.7      2.929      4.512
REMARK  Name = 6918248
REMARK  5 active torsions:
REMARK  status: ('A' for Active; 'I' for Inactive)
REMARK    1  A    between atoms: N_1  and  C_18
REMARK    2  A    between atoms: N_2  and  C_8
REMARK    3  A    between atoms: C_11  and  C_17
REMARK    4  A    between atoms: C_18  and  C_19
REMARK    5  A    between atoms: C_19  and  N_21
REMARK                            x       y       z     vdW  Elec       q    Type
REMARK                         _______ _______ _______ _____ _____    ______ ____
ROOT
ATOM      1  N   UNL     1      34.440 -16.336 -22.247  0.00  0.00    +0.391 N 
ATOM      2  N   UNL     1      33.211 -13.893 -21.418  0.00  0.00    -0.312 N 
ATOM      3  C   UNL     1      34.387 -15.977 -20.825  0.00  0.00    -0.055 C 
ATOM      4  C   UNL     1      34.571 -15.122 -23.064  0.00  0.00    -0.055 C 
ATOM      5  C   UNL     1      33.194 -15.064 -20.532  0.00  0.00    +0.068 C 
ATOM      6  C   UNL     1      33.384 -14.181 -22.845  0.00  0.00    +0.068 C 
ATOM      7  H   UNL     1      33.571 -16.809 -22.500  0.00  0.00    -0.079 HD
ENDROOT
BRANCH   2   8
ATOM      8  C   UNL     1      32.498 -12.757 -21.020  0.00  0.00    +0.048 C 
ATOM      9  C   UNL     1      32.485 -11.593 -21.813  0.00  0.00    +0.018 C 
ATOM     10  C   UNL     1      31.769 -12.744 -19.814  0.00  0.00    +0.015 C 
ATOM     11  C   UNL     1      31.773 -10.461 -21.416  0.00  0.00    +0.073 C 
ATOM     12  C   UNL     1      31.056 -11.613 -19.417  0.00  0.00    +0.001 C 
ATOM     13  C   UNL     1      31.059 -10.471 -20.217  0.00  0.00    +0.004 C 
BRANCH  11  17
ATOM     14  F   UNL     1      32.031  -8.089 -21.581  0.00  0.00    -0.166 F 
ATOM     15  F   UNL     1      32.709  -9.272 -23.268  0.00  0.00    -0.166 F 
ATOM     16  F   UNL     1      30.580  -9.034 -22.896  0.00  0.00    -0.166 F 
ATOM     17  C   UNL     1      31.776  -9.240 -22.271  0.00  0.00    +0.419 C 
ENDBRANCH  11  17
ENDBRANCH   2   8
BRANCH   1  18
ATOM     18  C   UNL     1      35.551 -17.251 -22.505  0.00  0.00    -0.052 C 
BRANCH  18  19
ATOM     19  C   UNL     1      35.050 -18.686 -22.567  0.00  0.00    +0.088 C 
BRANCH  19  21
ATOM     20  O   UNL     1      37.898 -18.898 -21.589  0.00  0.00    -0.247 OA
ATOM     21  N   UNL     1      35.591 -19.473 -21.493  0.00  0.00    -0.282 N 
ATOM     22  N   UNL     1      37.024 -20.419 -20.003  0.00  0.00    -0.305 N 
ATOM     23  C   UNL     1      34.857 -20.332 -20.658  0.00  0.00    +0.079 A 
ATOM     24  C   UNL     1      36.960 -19.511 -21.099  0.00  0.00    +0.328 A 
ATOM     25  C   UNL     1      35.742 -20.908 -19.749  0.00  0.00    +0.076 A 
ATOM     26  C   UNL     1      33.511 -20.633 -20.644  0.00  0.00    +0.019 C 
ATOM     27  C   UNL     1      35.333 -21.804 -18.786  0.00  0.00    +0.019 C 
ATOM     28  C   UNL     1      33.072 -21.541 -19.675  0.00  0.00    +0.002 C 
ATOM     29  C   UNL     1      33.972 -22.121 -18.756  0.00  0.00    +0.002 C 
ATOM     30  H   UNL     1      37.839 -20.661 -19.507  0.00  0.00    +0.170 HD
ENDBRANCH  19  21
ENDBRANCH  18  19
ENDBRANCH   1  18
TORSDOF 5
ENDMDL
MODEL 4
REMARK VINA RESULT:     -10.5      9.508     12.856
REMARK  Name = 6918248
REMARK  5 active torsions:
REMARK  status: ('A' for Active; 'I' for Inactive)
REMARK    1  A    between atoms: N_1  and  C_18
REMARK    2  A    between atoms: N_2  and  C_8
REMARK    3  A    between atoms: C_11  and  C_17
REMARK    4  A    between atoms: C_18  and  C_19
REMARK    5  A    between atoms: C_19  and  N_21
REMARK                            x       y       z     vdW  Elec       q    Type
REMARK                         _______ _______ _______ _____ _____    ______ ____
ROOT
ATOM      1  N   UNL     1      34.659 -23.388 -17.336  0.00  0.00    +0.391 N 
ATOM      2  N   UNL     1      35.381 -21.419 -19.277  0.00  0.00    -0.312 N 
ATOM      3  C   UNL     1      33.621 -22.645 -18.061  0.00  0.00    -0.055 C 
ATOM      4  C   UNL     1      35.832 -22.529 -17.125  0.00  0.00    -0.055 C 
ATOM      5  C   UNL     1      34.132 -22.178 -19.426  0.00  0.00    +0.068 C 
ATOM      6  C   UNL     1      36.416 -22.057 -18.458  0.00  0.00    +0.068 C 
ATOM      7  H   UNL     1      34.940 -24.194 -17.896  0.00  0.00    -0.079 HD
ENDROOT
BRANCH   2   8
ATOM      8  C   UNL     1      35.749 -20.550 -20.310  0.00  0.00    +0.048 C 
ATOM      9  C   UNL     1      34.989 -20.465 -21.493  0.00  0.00    +0.018 C 
ATOM     10  C   UNL     1      36.892 -19.733 -20.198  0.00  0.00    +0.015 C 
ATOM     11  C   UNL     1      35.356 -19.599 -22.522  0.00  0.00    +0.073 C 
ATOM     12  C   UNL     1      37.259 -18.865 -21.227  0.00  0.00    +0.001 C 
ATOM     13  C   UNL     1      36.492 -18.799 -22.390  0.00  0.00    +0.004 C 
BRANCH  11  17
ATOM     14  F   UNL     1      33.203 -19.734 -23.556  0.00  0.00    -0.166 F 
ATOM     15  F   UNL     1      34.614 -18.321 -24.403  0.00  0.00    -0.166 F 
ATOM     16  F   UNL     1      34.909 -20.455 -24.695  0.00  0.00    -0.166 F 
ATOM     17  C   UNL     1      34.537 -19.527 -23.766  0.00  0.00    +0.419 C 
ENDBRANCH  11  17
ENDBRANCH   2   8
BRANCH   1  18
ATOM     18  C   UNL     1      34.143 -23.876 -16.058  0.00  0.00    -0.052 C 
BRANCH  18  19
ATOM     19  C   UNL     1      34.810 -23.144 -14.904  0.00  0.00    +0.088 C 
BRANCH  19  21
ATOM     20  O   UNL     1      33.220 -24.201 -12.566  0.00  0.00    -0.247 OA
ATOM     21  N   UNL     1      35.207 -24.057 -13.867  0.00  0.00    -0.282 N 
ATOM     22  N   UNL     1      35.192 -25.389 -12.025  0.00  0.00    -0.305 N 
ATOM     23  C   UNL     1      36.471 -24.657 -13.746  0.00  0.00    +0.079 A 
ATOM     24  C   UNL     1      34.383 -24.504 -12.794  0.00  0.00    +0.328 A 
ATOM     25  C   UNL     1      36.454 -25.471 -12.615  0.00  0.00    +0.076 A 
ATOM     26  C   UNL     1      37.599 -24.540 -14.533  0.00  0.00    +0.019 C 
ATOM     27  C   UNL     1      37.550 -26.204 -12.215  0.00  0.00    +0.019 C 
ATOM     28  C   UNL     1      38.724 -25.275 -14.147  0.00  0.00    +0.002 C 
ATOM     29  C   UNL     1      38.700 -26.098 -13.001  0.00  0.00    +0.002 C 
ATOM     30  H   UNL     1      34.907 -25.865 -11.213  0.00  0.00    +0.170 HD
ENDBRANCH  19  21
ENDBRANCH  18  19
ENDBRANCH   1  18
TORSDOF 5
ENDMDL
MODEL 5
REMARK VINA RESULT:     -10.5      7.810     12.407
REMARK  Name = 6918248
REMARK  5 active torsions:
REMARK  status: ('A' for Active; 'I' for Inactive)
REMARK    1  A    between atoms: N_1  and  C_18
REMARK    2  A    between atoms: N_2  and  C_8
REMARK    3  A    between atoms: C_11  and  C_17
REMARK    4  A    between atoms: C_18  and  C_19
REMARK    5  A    between atoms: C_19  and  N_21
REMARK                            x       y       z     vdW  Elec       q    Type
REMARK                         _______ _______ _______ _____ _____    ______ ____
ROOT
ATOM      1  N   UNL     1      34.952 -20.071 -21.511  0.00  0.00    +0.391 N 
ATOM      2  N   UNL     1      34.935 -21.519 -19.048  0.00  0.00    -0.312 N 
ATOM      3  C   UNL     1      36.152 -20.113 -20.667  0.00  0.00    -0.055 C 
ATOM      4  C   UNL     1      33.748 -20.094 -20.669  0.00  0.00    -0.055 C 
ATOM      5  C   UNL     1      36.180 -21.384 -19.816  0.00  0.00    +0.068 C 
ATOM      6  C   UNL     1      33.697 -21.364 -19.818  0.00  0.00    +0.068 C 
ATOM      7  H   UNL     1      34.945 -20.892 -22.116  0.00  0.00    -0.079 HD
ENDROOT
BRANCH   2   8
ATOM      8  C   UNL     1      34.949 -22.333 -17.910  0.00  0.00    +0.048 C 
ATOM      9  C   UNL     1      36.127 -22.508 -17.157  0.00  0.00    +0.018 C 
ATOM     10  C   UNL     1      33.785 -23.001 -17.482  0.00  0.00    +0.015 C 
ATOM     11  C   UNL     1      36.140 -23.320 -16.023  0.00  0.00    +0.073 C 
ATOM     12  C   UNL     1      33.797 -23.812 -16.347  0.00  0.00    +0.001 C 
ATOM     13  C   UNL     1      34.976 -23.972 -15.618  0.00  0.00    +0.004 C 
BRANCH  11  17
ATOM     14  F   UNL     1      38.522 -23.123 -15.928  0.00  0.00    -0.166 F 
ATOM     15  F   UNL     1      37.431 -22.762 -14.089  0.00  0.00    -0.166 F 
ATOM     16  F   UNL     1      37.610 -24.786 -14.864  0.00  0.00    -0.166 F 
ATOM     17  C   UNL     1      37.399 -23.491 -15.243  0.00  0.00    +0.419 C 
ENDBRANCH  11  17
ENDBRANCH   2   8
BRANCH   1  18
ATOM     18  C   UNL     1      34.962 -18.879 -22.359  0.00  0.00    -0.052 C 
BRANCH  18  19
ATOM     19  C   UNL     1      35.188 -17.633 -21.517  0.00  0.00    +0.088 C 
BRANCH  19  21
ATOM     20  O   UNL     1      35.449 -16.636 -24.354  0.00  0.00    -0.247 OA
ATOM     21  N   UNL     1      34.604 -16.474 -22.136  0.00  0.00    -0.282 N 
ATOM     22  N   UNL     1      34.025 -14.883 -23.653  0.00  0.00    -0.305 N 
ATOM     23  C   UNL     1      33.762 -15.545 -21.502  0.00  0.00    +0.079 A 
ATOM     24  C   UNL     1      34.784 -16.078 -23.493  0.00  0.00    +0.328 A 
ATOM     25  C   UNL     1      33.412 -14.574 -22.438  0.00  0.00    +0.076 A 
ATOM     26  C   UNL     1      33.298 -15.496 -20.204  0.00  0.00    +0.019 C 
ATOM     27  C   UNL     1      32.588 -13.513 -22.130  0.00  0.00    +0.019 C 
ATOM     28  C   UNL     1      32.460 -14.428 -19.867  0.00  0.00    +0.002 C 
ATOM     29  C   UNL     1      32.109 -13.448 -20.819  0.00  0.00    +0.002 C 
ATOM     30  H   UNL     1      33.946 -14.362 -24.484  0.00  0.00    +0.170 HD
ENDBRANCH  19  21
ENDBRANCH  18  19
ENDBRANCH   1  18
TORSDOF 5
ENDMDL
MODEL 6
REMARK VINA RESULT:     -10.4      7.251     11.469
REMARK  Name = 6918248
REMARK  5 active torsions:
REMARK  status: ('A' for Active; 'I' for Inactive)
REMARK    1  A    between atoms: N_1  and  C_18
REMARK    2  A    between atoms: N_2  and  C_8
REMARK    3  A    between atoms: C_11  and  C_17
REMARK    4  A    between atoms: C_18  and  C_19
REMARK    5  A    between atoms: C_19  and  N_21
REMARK                            x       y       z     vdW  Elec       q    Type
REMARK                         _______ _______ _______ _____ _____    ______ ____
ROOT
ATOM      1  N   UNL     1      34.959 -18.574 -22.619  0.00  0.00    +0.391 N 
ATOM      2  N   UNL     1      35.413 -20.405 -20.473  0.00  0.00    -0.312 N 
ATOM      3  C   UNL     1      34.046 -19.702 -22.400  0.00  0.00    -0.055 C 
ATOM      4  C   UNL     1      36.327 -18.959 -22.246  0.00  0.00    -0.055 C 
ATOM      5  C   UNL     1      34.045 -20.131 -20.931  0.00  0.00    +0.068 C 
ATOM      6  C   UNL     1      36.401 -19.364 -20.772  0.00  0.00    +0.068 C 
ATOM      7  H   UNL     1      34.666 -17.793 -22.031  0.00  0.00    -0.079 HD
ENDROOT
BRANCH   2   8
ATOM      8  C   UNL     1      35.578 -21.217 -19.346  0.00  0.00    +0.048 C 
ATOM      9  C   UNL     1      34.501 -21.958 -18.820  0.00  0.00    +0.018 C 
ATOM     10  C   UNL     1      36.828 -21.319 -18.702  0.00  0.00    +0.015 C 
ATOM     11  C   UNL     1      34.667 -22.767 -17.697  0.00  0.00    +0.073 C 
ATOM     12  C   UNL     1      36.994 -22.129 -17.579  0.00  0.00    +0.001 C 
ATOM     13  C   UNL     1      35.913 -22.853 -17.076  0.00  0.00    +0.004 C 
BRANCH  11  17
ATOM     14  F   UNL     1      32.319 -22.883 -17.255  0.00  0.00    -0.166 F 
ATOM     15  F   UNL     1      33.312 -24.736 -17.789  0.00  0.00    -0.166 F 
ATOM     16  F   UNL     1      33.655 -23.846 -15.835  0.00  0.00    -0.166 F 
ATOM     17  C   UNL     1      33.512 -23.541 -17.158  0.00  0.00    +0.419 C 
ENDBRANCH  11  17
ENDBRANCH   2   8
BRANCH   1  18
ATOM     18  C   UNL     1      34.911 -18.138 -24.014  0.00  0.00    -0.052 C 
BRANCH  18  19
ATOM     19  C   UNL     1      35.445 -16.719 -24.143  0.00  0.00    +0.088 C 
BRANCH  19  21
ATOM     20  O   UNL     1      33.659 -15.587 -26.298  0.00  0.00    -0.247 OA
ATOM     21  N   UNL     1      34.385 -15.753 -24.038  0.00  0.00    -0.282 N 
ATOM     22  N   UNL     1      32.679 -14.339 -24.544  0.00  0.00    -0.305 N 
ATOM     23  C   UNL     1      33.965 -15.126 -22.853  0.00  0.00    +0.079 A 
ATOM     24  C   UNL     1      33.589 -15.273 -25.118  0.00  0.00    +0.328 A 
ATOM     25  C   UNL     1      32.920 -14.262 -23.171  0.00  0.00    +0.076 A 
ATOM     26  C   UNL     1      34.423 -15.258 -21.558  0.00  0.00    +0.019 C 
ATOM     27  C   UNL     1      32.282 -13.492 -22.224  0.00  0.00    +0.019 C 
ATOM     28  C   UNL     1      33.790 -14.486 -20.578  0.00  0.00    +0.002 C 
ATOM     29  C   UNL     1      32.732 -13.613 -20.906  0.00  0.00    +0.002 C 
ATOM     30  H   UNL     1      31.993 -13.833 -25.035  0.00  0.00    +0.170 HD
ENDBRANCH  19  21
ENDBRANCH  18  19
ENDBRANCH   1  18
TORSDOF 5
ENDMDL
MODEL 7
REMARK VINA RESULT:     -10.4      6.893     10.162
REMARK  Name = 6918248
REMARK  5 active torsions:
REMARK  status: ('A' for Active; 'I' for Inactive)
REMARK    1  A    between atoms: N_1  and  C_18
REMARK    2  A    between atoms: N_2  and  C_8
REMARK    3  A    between atoms: C_11  and  C_17
REMARK    4  A    between atoms: C_18  and  C_19
REMARK    5  A    between atoms: C_19  and  N_21
REMARK                            x       y       z     vdW  Elec       q    Type
REMARK                         _______ _______ _______ _____ _____    ______ ____
ROOT
ATOM      1  N   UNL     1      35.223 -21.837 -19.471  0.00  0.00    +0.391 N 
ATOM      2  N   UNL     1      35.054 -19.403 -20.958  0.00  0.00    -0.312 N 
ATOM      3  C   UNL     1      33.963 -21.084 -19.523  0.00  0.00    -0.055 C 
ATOM      4  C   UNL     1      36.360 -20.909 -19.511  0.00  0.00    -0.055 C 
ATOM      5  C   UNL     1      33.870 -20.258 -20.808  0.00  0.00    +0.068 C 
ATOM      6  C   UNL     1      36.346 -20.077 -20.795  0.00  0.00    +0.068 C 
ATOM      7  H   UNL     1      35.273 -22.453 -20.283  0.00  0.00    -0.079 HD
ENDROOT
BRANCH   2   8
ATOM      8  C   UNL     1      34.955 -18.283 -21.790  0.00  0.00    +0.048 C 
ATOM      9  C   UNL     1      34.655 -17.011 -21.263  0.00  0.00    +0.018 C 
ATOM     10  C   UNL     1      35.153 -18.393 -23.182  0.00  0.00    +0.015 C 
ATOM     11  C   UNL     1      34.557 -15.895 -22.094  0.00  0.00    +0.073 C 
ATOM     12  C   UNL     1      35.056 -17.276 -24.012  0.00  0.00    +0.001 C 
ATOM     13  C   UNL     1      34.757 -16.027 -23.468  0.00  0.00    +0.004 C 
BRANCH  11  17
ATOM     14  F   UNL     1      34.817 -14.338 -20.296  0.00  0.00    -0.166 F 
ATOM     15  F   UNL     1      34.639 -13.513 -22.294  0.00  0.00    -0.166 F 
ATOM     16  F   UNL     1      32.898 -14.377 -21.319  0.00  0.00    -0.166 F 
ATOM     17  C   UNL     1      34.237 -14.559 -21.513  0.00  0.00    +0.419 C 
ENDBRANCH  11  17
ENDBRANCH   2   8
BRANCH   1  18
ATOM     18  C   UNL     1      35.277 -22.664 -18.266  0.00  0.00    -0.052 C 
BRANCH  18  19
ATOM     19  C   UNL     1      33.905 -23.246 -17.962  0.00  0.00    +0.088 C 
BRANCH  19  21
ATOM     20  O   UNL     1      35.925 -23.582 -15.745  0.00  0.00    -0.247 OA
ATOM     21  N   UNL     1      33.695 -23.371 -16.545  0.00  0.00    -0.282 N 
ATOM     22  N   UNL     1      34.044 -23.610 -14.312  0.00  0.00    -0.305 N 
ATOM     23  C   UNL     1      32.447 -23.359 -15.900  0.00  0.00    +0.079 A 
ATOM     24  C   UNL     1      34.717 -23.528 -15.565  0.00  0.00    +0.328 A 
ATOM     25  C   UNL     1      32.669 -23.506 -14.532  0.00  0.00    +0.076 A 
ATOM     26  C   UNL     1      31.173 -23.233 -16.413  0.00  0.00    +0.019 C 
ATOM     27  C   UNL     1      31.642 -23.534 -13.614  0.00  0.00    +0.019 C 
ATOM     28  C   UNL     1      30.113 -23.258 -15.501  0.00  0.00    +0.002 C 
ATOM     29  C   UNL     1      30.345 -23.407 -14.117  0.00  0.00    +0.002 C 
ATOM     30  H   UNL     1      34.477 -23.721 -13.436  0.00  0.00    +0.170 HD
ENDBRANCH  19  21
ENDBRANCH  18  19
ENDBRANCH   1  18
TORSDOF 5
ENDMDL
MODEL 8
REMARK VINA RESULT:     -10.3      3.037      4.947
REMARK  Name = 6918248
REMARK  5 active torsions:
REMARK  status: ('A' for Active; 'I' for Inactive)
REMARK    1  A    between atoms: N_1  and  C_18
REMARK    2  A    between atoms: N_2  and  C_8
REMARK    3  A    between atoms: C_11  and  C_17
REMARK    4  A    between atoms: C_18  and  C_19
REMARK    5  A    between atoms: C_19  and  N_21
REMARK                            x       y       z     vdW  Elec       q    Type
REMARK                         _______ _______ _______ _____ _____    ______ ____
ROOT
ATOM      1  N   UNL     1      35.387 -16.657 -22.552  0.00  0.00    +0.391 N 
ATOM      2  N   UNL     1      33.684 -14.429 -22.005  0.00  0.00    -0.312 N 
ATOM      3  C   UNL     1      34.529 -16.101 -23.606  0.00  0.00    -0.055 C 
ATOM      4  C   UNL     1      34.720 -16.532 -21.250  0.00  0.00    -0.055 C 
ATOM      5  C   UNL     1      34.236 -14.621 -23.353  0.00  0.00    +0.068 C 
ATOM      6  C   UNL     1      34.432 -15.066 -20.918  0.00  0.00    +0.068 C 
ATOM      7  H   UNL     1      36.260 -16.130 -22.526  0.00  0.00    -0.079 HD
ENDROOT
BRANCH   2   8
ATOM      8  C   UNL     1      32.952 -13.263 -21.756  0.00  0.00    +0.048 C 
ATOM      9  C   UNL     1      33.245 -12.062 -22.431  0.00  0.00    +0.018 C 
ATOM     10  C   UNL     1      31.897 -13.255 -20.820  0.00  0.00    +0.015 C 
ATOM     11  C   UNL     1      32.515 -10.900 -22.182  0.00  0.00    +0.073 C 
ATOM     12  C   UNL     1      31.166 -12.094 -20.572  0.00  0.00    +0.001 C 
ATOM     13  C   UNL     1      31.475 -10.916 -21.252  0.00  0.00    +0.004 C 
BRANCH  11  17
ATOM     14  F   UNL     1      31.776  -9.083 -23.552  0.00  0.00    -0.166 F 
ATOM     15  F   UNL     1      33.329  -8.653 -22.100  0.00  0.00    -0.166 F 
ATOM     16  F   UNL     1      33.795  -9.824 -23.871  0.00  0.00    -0.166 F 
ATOM     17  C   UNL     1      32.845  -9.641 -22.909  0.00  0.00    +0.419 C 
ENDBRANCH  11  17
ENDBRANCH   2   8
BRANCH   1  18
ATOM     18  C   UNL     1      35.705 -18.056 -22.834  0.00  0.00    -0.052 C 
BRANCH  18  19
ATOM     19  C   UNL     1      34.779 -18.976 -22.054  0.00  0.00    +0.088 C 
BRANCH  19  21
ATOM     20  O   UNL     1      37.711 -18.887 -21.343  0.00  0.00    -0.247 OA
ATOM     21  N   UNL     1      35.503 -19.730 -21.067  0.00  0.00    -0.282 N 
ATOM     22  N   UNL     1      37.167 -20.551 -19.754  0.00  0.00    -0.305 N 
ATOM     23  C   UNL     1      34.952 -20.695 -20.208  0.00  0.00    +0.079 A 
ATOM     24  C   UNL     1      36.899 -19.621 -20.799  0.00  0.00    +0.328 A 
ATOM     25  C   UNL     1      35.977 -21.194 -19.407  0.00  0.00    +0.076 A 
ATOM     26  C   UNL     1      33.656 -21.152 -20.087  0.00  0.00    +0.019 C 
ATOM     27  C   UNL     1      35.764 -22.163 -18.452  0.00  0.00    +0.019 C 
ATOM     28  C   UNL     1      33.415 -22.136 -19.123  0.00  0.00    +0.002 C 
ATOM     29  C   UNL     1      34.457 -22.636 -18.315  0.00  0.00    +0.002 C 
ATOM     30  H   UNL     1      38.046 -20.713 -19.343  0.00  0.00    +0.170 HD
ENDBRANCH  19  21
ENDBRANCH  18  19
ENDBRANCH   1  18
TORSDOF 5
ENDMDL
MODEL 9
REMARK VINA RESULT:     -10.2      1.457      1.938
REMARK  Name = 6918248
REMARK  5 active torsions:
REMARK  status: ('A' for Active; 'I' for Inactive)
REMARK    1  A    between atoms: N_1  and  C_18
REMARK    2  A    between atoms: N_2  and  C_8
REMARK    3  A    between atoms: C_11  and  C_17
REMARK    4  A    between atoms: C_18  and  C_19
REMARK    5  A    between atoms: C_19  and  N_21
REMARK                            x       y       z     vdW  Elec       q    Type
REMARK                         _______ _______ _______ _____ _____    ______ ____
ROOT
ATOM      1  N   UNL     1      32.626 -12.994 -22.503  0.00  0.00    +0.391 N 
ATOM      2  N   UNL     1      32.804 -10.144 -22.620  0.00  0.00    -0.312 N 
ATOM      3  C   UNL     1      32.128 -12.173 -21.393  0.00  0.00    -0.055 C 
ATOM      4  C   UNL     1      33.791 -12.345 -23.119  0.00  0.00    -0.055 C 
ATOM      5  C   UNL     1      31.708 -10.785 -21.882  0.00  0.00    +0.068 C 
ATOM      6  C   UNL     1      33.426 -10.963 -23.665  0.00  0.00    +0.068 C 
ATOM      7  H   UNL     1      31.890 -13.082 -23.205  0.00  0.00    -0.079 HD
ENDROOT
BRANCH   2   8
ATOM      8  C   UNL     1      32.785  -8.751 -22.747  0.00  0.00    +0.048 C 
ATOM      9  C   UNL     1      31.742  -7.985 -22.189  0.00  0.00    +0.018 C 
ATOM     10  C   UNL     1      33.809  -8.071 -23.437  0.00  0.00    +0.015 C 
ATOM     11  C   UNL     1      31.724  -6.596 -22.316  0.00  0.00    +0.073 C 
ATOM     12  C   UNL     1      33.791  -6.683 -23.563  0.00  0.00    +0.001 C 
ATOM     13  C   UNL     1      32.748  -5.944 -23.004  0.00  0.00    +0.004 C 
BRANCH  11  17
ATOM     14  F   UNL     1      30.604  -4.494 -22.095  0.00  0.00    -0.166 F 
ATOM     15  F   UNL     1      29.369  -6.276 -22.046  0.00  0.00    -0.166 F 
ATOM     16  F   UNL     1      30.646  -5.796 -20.354  0.00  0.00    -0.166 F 
ATOM     17  C   UNL     1      30.609  -5.807 -21.718  0.00  0.00    +0.419 C 
ENDBRANCH  11  17
ENDBRANCH   2   8
BRANCH   1  18
ATOM     18  C   UNL     1      32.973 -14.335 -22.034  0.00  0.00    -0.052 C 
BRANCH  18  19
ATOM     19  C   UNL     1      34.413 -14.665 -22.396  0.00  0.00    +0.088 C 
BRANCH  19  21
ATOM     20  O   UNL     1      33.971 -15.193 -25.335  0.00  0.00    -0.247 OA
ATOM     21  N   UNL     1      34.497 -15.901 -23.125  0.00  0.00    -0.282 N 
ATOM     22  N   UNL     1      34.461 -17.442 -24.795  0.00  0.00    -0.305 N 
ATOM     23  C   UNL     1      34.815 -17.154 -22.576  0.00  0.00    +0.079 A 
ATOM     24  C   UNL     1      34.269 -16.058 -24.523  0.00  0.00    +0.328 A 
ATOM     25  C   UNL     1      34.791 -18.093 -23.605  0.00  0.00    +0.076 A 
ATOM     26  C   UNL     1      35.114 -17.515 -21.278  0.00  0.00    +0.019 C 
ATOM     27  C   UNL     1      35.062 -19.428 -23.395  0.00  0.00    +0.019 C 
ATOM     28  C   UNL     1      35.393 -18.865 -21.040  0.00  0.00    +0.002 C 
ATOM     29  C   UNL     1      35.368 -19.810 -22.086  0.00  0.00    +0.002 C 
ATOM     30  H   UNL     1      34.375 -17.870 -25.677  0.00  0.00    +0.170 HD
ENDBRANCH  19  21
ENDBRANCH  18  19
ENDBRANCH   1  18
TORSDOF 5
ENDMDL
