MODEL 1
REMARK VINA RESULT:     -12.9      0.000      0.000
REMARK  Name = 11560856
REMARK  5 active torsions:
REMARK  status: ('A' for Active; 'I' for Inactive)
REMARK    1  A    between atoms: C_2  and  O_24
REMARK    2  A    between atoms: C_3  and  N_10
REMARK    3  A    between atoms: C_12  and  C_16
REMARK    4  A    between atoms: C_16  and  C_18
REMARK    5  A    between atoms: O_24  and  C_28
REMARK                            x       y       z     vdW  Elec       q    Type
REMARK                         _______ _______ _______ _____ _____    ______ ____
ROOT
ATOM      1  F   UNL     1      33.607 -12.170 -23.485  0.00  0.00    -0.201 F 
ATOM      2  C   UNL     1      32.225 -12.558 -21.597  0.00  0.00    +0.173 C 
ATOM      3  C   UNL     1      33.651 -14.867 -21.047  0.00  0.00    +0.054 C 
ATOM      4  C   UNL     1      33.275 -12.919 -22.425  0.00  0.00    +0.176 C 
ATOM      5  C   UNL     1      31.872 -13.325 -20.500  0.00  0.00    +0.041 C 
ATOM      6  C   UNL     1      33.993 -14.082 -22.147  0.00  0.00    +0.047 C 
ATOM      7  C   UNL     1      32.590 -14.488 -20.223  0.00  0.00    +0.018 C 
ENDROOT
BRANCH   3  10
ATOM      8  O   UNL     1      36.349 -19.256 -22.794  0.00  0.00    -0.274 OA
ATOM      9  O   UNL     1      34.882 -16.881 -22.902  0.00  0.00    -0.252 OA
ATOM     10  N   UNL     1      34.370 -16.029 -20.768  0.00  0.00    -0.268 N 
ATOM     11  N   UNL     1      35.583 -17.994 -20.988  0.00  0.00    -0.239 N 
ATOM     12  C   UNL     1      36.243 -19.072 -21.584  0.00  0.00    +0.234 C 
ATOM     13  C   UNL     1      34.933 -16.951 -21.677  0.00  0.00    +0.310 C 
ATOM     14  H   UNL     1      34.502 -16.234 -19.815  0.00  0.00    +0.156 HD
ATOM     15  H   UNL     1      35.569 -17.962 -20.004  0.00  0.00    +0.159 HD
BRANCH  12  16
ATOM     16  C   UNL     1      36.826 -20.006 -20.541  0.00  0.00    +0.112 C 
BRANCH  16  18
ATOM     17  F   UNL     1      32.962 -23.206 -18.007  0.00  0.00    -0.204 F 
ATOM     18  C   UNL     1      35.791 -20.864 -19.863  0.00  0.00    -0.013 C 
ATOM     19  C   UNL     1      36.188 -21.781 -18.900  0.00  0.00    -0.001 C 
ATOM     20  C   UNL     1      34.455 -20.723 -20.209  0.00  0.00    -0.001 C 
ATOM     21  C   UNL     1      35.229 -22.576 -18.272  0.00  0.00    +0.029 C 
ATOM     22  C   UNL     1      33.495 -21.518 -19.581  0.00  0.00    +0.029 C 
ATOM     23  C   UNL     1      33.882 -22.443 -18.612  0.00  0.00    +0.140 C 
ENDBRANCH  16  18
ENDBRANCH  12  16
ENDBRANCH   3  10
BRANCH   2  24
ATOM     24  O   UNL     1      31.515 -11.405 -21.871  0.00  0.00    -0.451 OA
BRANCH  24  28
ATOM     25  N   UNL     1      33.405  -7.152 -21.738  0.00  0.00    -0.297 N 
ATOM     26  N   UNL     1      32.500  -7.950 -19.652  0.00  0.00    -0.229 NA
ATOM     27  C   UNL     1      32.492  -9.190 -21.767  0.00  0.00    +0.067 C 
ATOM     28  C   UNL     1      31.841 -10.280 -21.167  0.00  0.00    +0.150 C 
ATOM     29  C   UNL     1      32.777  -8.091 -20.962  0.00  0.00    +0.135 C 
ATOM     30  C   UNL     1      32.971  -8.882 -23.068  0.00  0.00    +0.022 C 
ATOM     31  C   UNL     1      33.528  -7.622 -23.019  0.00  0.00    +0.063 C 
ATOM     32  C   UNL     1      31.529 -10.186 -19.812  0.00  0.00    +0.058 C 
ATOM     33  C   UNL     1      31.875  -9.029 -19.126  0.00  0.00    +0.103 C 
ATOM     34  H   UNL     1      33.719  -6.274 -21.422  0.00  0.00    +0.154 HD
ENDBRANCH  24  28
ENDBRANCH   2  24
TORSDOF 5
ENDMDL
MODEL 2
REMARK VINA RESULT:     -12.6      0.912      2.022
REMARK  Name = 11560856
REMARK  5 active torsions:
REMARK  status: ('A' for Active; 'I' for Inactive)
REMARK    1  A    between atoms: C_2  and  O_24
REMARK    2  A    between atoms: C_3  and  N_10
REMARK    3  A    between atoms: C_12  and  C_16
REMARK    4  A    between atoms: C_16  and  C_18
REMARK    5  A    between atoms: O_24  and  C_28
REMARK                            x       y       z     vdW  Elec       q    Type
REMARK                         _______ _______ _______ _____ _____    ______ ____
ROOT
ATOM      1  F   UNL     1      30.907 -12.580 -20.259  0.00  0.00    -0.201 F 
ATOM      2  C   UNL     1      32.348 -12.220 -22.108  0.00  0.00    +0.173 C 
ATOM      3  C   UNL     1      33.720 -14.539 -21.470  0.00  0.00    +0.054 C 
ATOM      4  C   UNL     1      31.945 -12.966 -21.012  0.00  0.00    +0.176 C 
ATOM      5  C   UNL     1      33.422 -12.608 -22.891  0.00  0.00    +0.041 C 
ATOM      6  C   UNL     1      32.636 -14.134 -20.692  0.00  0.00    +0.047 C 
ATOM      7  C   UNL     1      34.112 -13.776 -22.570  0.00  0.00    +0.018 C 
ENDROOT
BRANCH   3  10
ATOM      8  O   UNL     1      36.024 -19.214 -23.033  0.00  0.00    -0.274 OA
ATOM      9  O   UNL     1      34.665 -16.781 -23.230  0.00  0.00    -0.252 OA
ATOM     10  N   UNL     1      34.410 -15.709 -21.150  0.00  0.00    -0.268 N 
ATOM     11  N   UNL     1      35.502 -17.750 -21.292  0.00  0.00    -0.239 N 
ATOM     12  C   UNL     1      36.049 -18.913 -21.842  0.00  0.00    +0.234 C 
ATOM     13  C   UNL     1      34.836 -16.740 -22.014  0.00  0.00    +0.310 C 
ATOM     14  H   UNL     1      34.628 -15.831 -20.199  0.00  0.00    +0.156 HD
ATOM     15  H   UNL     1      35.589 -17.626 -20.320  0.00  0.00    +0.159 HD
BRANCH  12  16
ATOM     16  C   UNL     1      36.691 -19.777 -20.773  0.00  0.00    +0.112 C 
BRANCH  16  18
ATOM     17  F   UNL     1      33.039 -23.142 -18.139  0.00  0.00    -0.204 F 
ATOM     18  C   UNL     1      35.712 -20.680 -20.068  0.00  0.00    -0.013 C 
ATOM     19  C   UNL     1      36.184 -21.644 -19.189  0.00  0.00    -0.001 C 
ATOM     20  C   UNL     1      34.354 -20.532 -20.307  0.00  0.00    -0.001 C 
ATOM     21  C   UNL     1      35.277 -22.479 -18.536  0.00  0.00    +0.029 C 
ATOM     22  C   UNL     1      33.447 -21.367 -19.654  0.00  0.00    +0.029 C 
ATOM     23  C   UNL     1      33.909 -22.340 -18.768  0.00  0.00    +0.140 C 
ENDBRANCH  16  18
ENDBRANCH  12  16
ENDBRANCH   3  10
BRANCH   2  24
ATOM     24  O   UNL     1      31.664 -11.063 -22.426  0.00  0.00    -0.451 OA
BRANCH  24  28
ATOM     25  N   UNL     1      32.916  -7.605 -19.572  0.00  0.00    -0.297 N 
ATOM     26  N   UNL     1      33.662  -7.388 -21.852  0.00  0.00    -0.229 NA
ATOM     27  C   UNL     1      32.331  -9.247 -20.967  0.00  0.00    +0.067 C 
ATOM     28  C   UNL     1      32.306  -9.874 -22.223  0.00  0.00    +0.150 C 
ATOM     29  C   UNL     1      33.014  -8.038 -20.868  0.00  0.00    +0.135 C 
ATOM     30  C   UNL     1      31.813  -9.534 -19.677  0.00  0.00    +0.022 C 
ATOM     31  C   UNL     1      32.189  -8.505 -18.839  0.00  0.00    +0.063 C 
ATOM     32  C   UNL     1      32.962  -9.243 -23.279  0.00  0.00    +0.058 C 
ATOM     33  C   UNL     1      33.604  -8.035 -23.039  0.00  0.00    +0.103 C 
ATOM     34  H   UNL     1      33.310  -6.773 -19.221  0.00  0.00    +0.154 HD
ENDBRANCH  24  28
ENDBRANCH   2  24
TORSDOF 5
ENDMDL
MODEL 3
REMARK VINA RESULT:     -12.5      2.829     11.108
REMARK  Name = 11560856
REMARK  5 active torsions:
REMARK  status: ('A' for Active; 'I' for Inactive)
REMARK    1  A    between atoms: C_2  and  O_24
REMARK    2  A    between atoms: C_3  and  N_10
REMARK    3  A    between atoms: C_12  and  C_16
REMARK    4  A    between atoms: C_16  and  C_18
REMARK    5  A    between atoms: O_24  and  C_28
REMARK                            x       y       z     vdW  Elec       q    Type
REMARK                         _______ _______ _______ _____ _____    ______ ____
ROOT
ATOM      1  F   UNL     1      34.958 -18.691 -24.390  0.00  0.00    -0.201 F 
ATOM      2  C   UNL     1      35.184 -18.278 -22.065  0.00  0.00    +0.173 C 
ATOM      3  C   UNL     1      34.614 -15.604 -22.500  0.00  0.00    +0.054 C 
ATOM      4  C   UNL     1      34.930 -17.841 -23.354  0.00  0.00    +0.176 C 
ATOM      5  C   UNL     1      35.159 -17.408 -20.988  0.00  0.00    +0.041 C 
ATOM      6  C   UNL     1      34.643 -16.494 -23.572  0.00  0.00    +0.047 C 
ATOM      7  C   UNL     1      34.872 -16.061 -21.207  0.00  0.00    +0.018 C 
ENDROOT
BRANCH   3  10
ATOM      8  O   UNL     1      31.374 -11.304 -21.714  0.00  0.00    -0.274 OA
ATOM      9  O   UNL     1      32.319 -13.927 -21.532  0.00  0.00    -0.252 OA
ATOM     10  N   UNL     1      34.325 -14.257 -22.718  0.00  0.00    -0.268 N 
ATOM     11  N   UNL     1      33.307 -12.173 -22.691  0.00  0.00    -0.239 N 
ATOM     12  C   UNL     1      32.383 -11.165 -22.402  0.00  0.00    +0.234 C 
ATOM     13  C   UNL     1      33.230 -13.506 -22.241  0.00  0.00    +0.310 C 
ATOM     14  H   UNL     1      34.968 -13.766 -23.278  0.00  0.00    +0.156 HD
ATOM     15  H   UNL     1      34.076 -11.931 -23.256  0.00  0.00    +0.159 HD
BRANCH  12  16
ATOM     16  C   UNL     1      32.779  -9.853 -23.050  0.00  0.00    +0.112 C 
BRANCH  16  18
ATOM     17  F   UNL     1      30.357  -5.370 -20.677  0.00  0.00    -0.204 F 
ATOM     18  C   UNL     1      32.129  -8.652 -22.414  0.00  0.00    -0.013 C 
ATOM     19  C   UNL     1      32.519  -8.259 -21.141  0.00  0.00    -0.001 C 
ATOM     20  C   UNL     1      31.153  -7.956 -23.110  0.00  0.00    -0.001 C 
ATOM     21  C   UNL     1      31.917  -7.147 -20.552  0.00  0.00    +0.029 C 
ATOM     22  C   UNL     1      30.551  -6.843 -22.521  0.00  0.00    +0.029 C 
ATOM     23  C   UNL     1      30.934  -6.438 -21.243  0.00  0.00    +0.140 C 
ENDBRANCH  16  18
ENDBRANCH  12  16
ENDBRANCH   3  10
BRANCH   2  24
ATOM     24  O   UNL     1      35.468 -19.613 -21.848  0.00  0.00    -0.451 OA
BRANCH  24  28
ATOM     25  N   UNL     1      35.193 -22.400 -18.128  0.00  0.00    -0.297 N 
ATOM     26  N   UNL     1      33.084 -21.646 -19.016  0.00  0.00    -0.229 NA
ATOM     27  C   UNL     1      35.290 -21.062 -19.913  0.00  0.00    +0.067 C 
ATOM     28  C   UNL     1      34.711 -20.277 -20.924  0.00  0.00    +0.150 C 
ATOM     29  C   UNL     1      34.429 -21.696 -19.022  0.00  0.00    +0.135 C 
ATOM     30  C   UNL     1      36.612 -21.408 -19.526  0.00  0.00    +0.022 C 
ATOM     31  C   UNL     1      36.520 -22.232 -18.425  0.00  0.00    +0.063 C 
ATOM     32  C   UNL     1      33.320 -20.190 -20.963  0.00  0.00    +0.058 C 
ATOM     33  C   UNL     1      32.581 -20.878 -20.010  0.00  0.00    +0.103 C 
ATOM     34  H   UNL     1      34.841 -22.943 -17.386  0.00  0.00    +0.154 HD
ENDBRANCH  24  28
ENDBRANCH   2  24
TORSDOF 5
ENDMDL
MODEL 4
REMARK VINA RESULT:     -12.4      4.634      7.486
REMARK  Name = 11560856
REMARK  5 active torsions:
REMARK  status: ('A' for Active; 'I' for Inactive)
REMARK    1  A    between atoms: C_2  and  O_24
REMARK    2  A    between atoms: C_3  and  N_10
REMARK    3  A    between atoms: C_12  and  C_16
REMARK    4  A    between atoms: C_16  and  C_18
REMARK    5  A    between atoms: O_24  and  C_28
REMARK                            x       y       z     vdW  Elec       q    Type
REMARK                         _______ _______ _______ _____ _____    ______ ____
ROOT
ATOM      1  F   UNL     1      38.002 -18.658 -21.662  0.00  0.00    -0.201 F 
ATOM      2  C   UNL     1      35.683 -19.097 -21.901  0.00  0.00    +0.173 C 
ATOM      3  C   UNL     1      35.840 -20.957 -19.856  0.00  0.00    +0.054 C 
ATOM      4  C   UNL     1      36.902 -19.324 -21.284  0.00  0.00    +0.176 C 
ATOM      5  C   UNL     1      34.541 -19.780 -21.519  0.00  0.00    +0.041 C 
ATOM      6  C   UNL     1      36.980 -20.260 -20.253  0.00  0.00    +0.047 C 
ATOM      7  C   UNL     1      34.620 -20.717 -20.489  0.00  0.00    +0.018 C 
ENDROOT
BRANCH   3  10
ATOM      8  O   UNL     1      37.835 -22.471 -15.026  0.00  0.00    -0.274 OA
ATOM      9  O   UNL     1      37.394 -20.892 -17.288  0.00  0.00    -0.252 OA
ATOM     10  N   UNL     1      35.919 -21.893 -18.824  0.00  0.00    -0.268 N 
ATOM     11  N   UNL     1      36.470 -22.977 -16.849  0.00  0.00    -0.239 N 
ATOM     12  C   UNL     1      37.062 -23.227 -15.608  0.00  0.00    +0.234 C 
ATOM     13  C   UNL     1      36.666 -21.820 -17.629  0.00  0.00    +0.310 C 
ATOM     14  H   UNL     1      35.385 -22.710 -18.945  0.00  0.00    +0.156 HD
ATOM     15  H   UNL     1      35.867 -23.666 -17.208  0.00  0.00    +0.159 HD
BRANCH  12  16
ATOM     16  C   UNL     1      36.628 -24.571 -15.053  0.00  0.00    +0.112 C 
BRANCH  16  18
ATOM     17  F   UNL     1      35.880 -24.537  -9.482  0.00  0.00    -0.204 F 
ATOM     18  C   UNL     1      36.427 -24.563 -13.560  0.00  0.00    -0.013 C 
ATOM     19  C   UNL     1      37.495 -24.862 -12.726  0.00  0.00    -0.001 C 
ATOM     20  C   UNL     1      35.178 -24.255 -13.041  0.00  0.00    -0.001 C 
ATOM     21  C   UNL     1      37.309 -24.854 -11.343  0.00  0.00    +0.029 C 
ATOM     22  C   UNL     1      34.992 -24.247 -11.659  0.00  0.00    +0.029 C 
ATOM     23  C   UNL     1      36.057 -24.546 -10.810  0.00  0.00    +0.140 C 
ENDBRANCH  16  18
ENDBRANCH  12  16
ENDBRANCH   3  10
BRANCH   2  24
ATOM     24  O   UNL     1      35.604 -18.169 -22.921  0.00  0.00    -0.451 OA
BRANCH  24  28
ATOM     25  N   UNL     1      33.307 -14.397 -24.393  0.00  0.00    -0.297 N 
ATOM     26  N   UNL     1      33.713 -14.503 -22.021  0.00  0.00    -0.229 NA
ATOM     27  C   UNL     1      34.408 -16.193 -23.654  0.00  0.00    +0.067 C 
ATOM     28  C   UNL     1      34.989 -16.980 -22.647  0.00  0.00    +0.150 C 
ATOM     29  C   UNL     1      33.804 -15.000 -23.268  0.00  0.00    +0.135 C 
ATOM     30  C   UNL     1      34.257 -16.294 -25.063  0.00  0.00    +0.022 C 
ATOM     31  C   UNL     1      33.576 -15.174 -25.489  0.00  0.00    +0.063 C 
ATOM     32  C   UNL     1      34.922 -16.511 -21.336  0.00  0.00    +0.058 C 
ATOM     33  C   UNL     1      34.290 -15.299 -21.092  0.00  0.00    +0.103 C 
ATOM     34  H   UNL     1      32.828 -13.536 -24.411  0.00  0.00    +0.154 HD
ENDBRANCH  24  28
ENDBRANCH   2  24
TORSDOF 5
ENDMDL
MODEL 5
REMARK VINA RESULT:     -12.2      5.286     12.597
REMARK  Name = 11560856
REMARK  5 active torsions:
REMARK  status: ('A' for Active; 'I' for Inactive)
REMARK    1  A    between atoms: C_2  and  O_24
REMARK    2  A    between atoms: C_3  and  N_10
REMARK    3  A    between atoms: C_12  and  C_16
REMARK    4  A    between atoms: C_16  and  C_18
REMARK    5  A    between atoms: O_24  and  C_28
REMARK                            x       y       z     vdW  Elec       q    Type
REMARK                         _______ _______ _______ _____ _____    ______ ____
ROOT
ATOM      1  F   UNL     1      32.327 -24.253 -16.222  0.00  0.00    -0.201 F 
ATOM      2  C   UNL     1      34.603 -23.690 -15.862  0.00  0.00    +0.173 C 
ATOM      3  C   UNL     1      34.632 -22.328 -18.272  0.00  0.00    +0.054 C 
ATOM      4  C   UNL     1      33.450 -23.646 -16.629  0.00  0.00    +0.176 C 
ATOM      5  C   UNL     1      35.769 -23.067 -16.273  0.00  0.00    +0.041 C 
ATOM      6  C   UNL     1      33.465 -22.959 -17.843  0.00  0.00    +0.047 C 
ATOM      7  C   UNL     1      35.784 -22.381 -17.487  0.00  0.00    +0.018 C 
ENDROOT
BRANCH   3  10
ATOM      8  O   UNL     1      37.120 -18.938 -21.725  0.00  0.00    -0.274 OA
ATOM      9  O   UNL     1      36.690 -20.475 -19.432  0.00  0.00    -0.252 OA
ATOM     10  N   UNL     1      34.646 -21.640 -19.486  0.00  0.00    -0.268 N 
ATOM     11  N   UNL     1      35.270 -20.282 -21.259  0.00  0.00    -0.239 N 
ATOM     12  C   UNL     1      36.026 -19.402 -22.039  0.00  0.00    +0.234 C 
ATOM     13  C   UNL     1      35.639 -20.775 -19.993  0.00  0.00    +0.310 C 
ATOM     14  H   UNL     1      33.861 -21.774 -20.064  0.00  0.00    +0.156 HD
ATOM     15  H   UNL     1      34.407 -20.581 -21.626  0.00  0.00    +0.159 HD
BRANCH  12  16
ATOM     16  C   UNL     1      35.324 -19.081 -23.344  0.00  0.00    +0.112 C 
BRANCH  16  18
ATOM     17  F   UNL     1      33.919 -13.660 -23.841  0.00  0.00    -0.204 F 
ATOM     18  C   UNL     1      34.946 -17.628 -23.477  0.00  0.00    -0.013 C 
ATOM     19  C   UNL     1      35.000 -16.804 -22.362  0.00  0.00    -0.001 C 
ATOM     20  C   UNL     1      34.552 -17.136 -24.712  0.00  0.00    -0.001 C 
ATOM     21  C   UNL     1      34.651 -15.459 -22.485  0.00  0.00    +0.029 C 
ATOM     22  C   UNL     1      34.203 -15.791 -24.836  0.00  0.00    +0.029 C 
ATOM     23  C   UNL     1      34.254 -14.953 -23.723  0.00  0.00    +0.140 C 
ENDBRANCH  16  18
ENDBRANCH  12  16
ENDBRANCH   3  10
BRANCH   2  24
ATOM     24  O   UNL     1      34.588 -24.369 -14.659  0.00  0.00    -0.451 OA
BRANCH  24  28
ATOM     25  N   UNL     1      38.395 -24.947 -12.041  0.00  0.00    -0.297 N 
ATOM     26  N   UNL     1      38.000 -26.660 -13.689  0.00  0.00    -0.229 NA
ATOM     27  C   UNL     1      36.577 -24.699 -13.314  0.00  0.00    +0.067 C 
ATOM     28  C   UNL     1      35.697 -25.099 -14.333  0.00  0.00    +0.150 C 
ATOM     29  C   UNL     1      37.676 -25.515 -13.060  0.00  0.00    +0.135 C 
ATOM     30  C   UNL     1      36.655 -23.610 -12.407  0.00  0.00    +0.022 C 
ATOM     31  C   UNL     1      37.784 -23.790 -11.636  0.00  0.00    +0.063 C 
ATOM     32  C   UNL     1      35.985 -26.279 -15.016  0.00  0.00    +0.058 C 
ATOM     33  C   UNL     1      37.120 -26.996 -14.660  0.00  0.00    +0.103 C 
ATOM     34  H   UNL     1      39.224 -25.316 -11.658  0.00  0.00    +0.154 HD
ENDBRANCH  24  28
ENDBRANCH   2  24
TORSDOF 5
ENDMDL
MODEL 6
REMARK VINA RESULT:     -12.2      4.000     10.917
REMARK  Name = 11560856
REMARK  5 active torsions:
REMARK  status: ('A' for Active; 'I' for Inactive)
REMARK    1  A    between atoms: C_2  and  O_24
REMARK    2  A    between atoms: C_3  and  N_10
REMARK    3  A    between atoms: C_12  and  C_16
REMARK    4  A    between atoms: C_16  and  C_18
REMARK    5  A    between atoms: O_24  and  C_28
REMARK                            x       y       z     vdW  Elec       q    Type
REMARK                         _______ _______ _______ _____ _____    ______ ____
ROOT
ATOM      1  F   UNL     1      36.793 -22.451 -18.668  0.00  0.00    -0.201 F 
ATOM      2  C   UNL     1      34.439 -22.490 -18.957  0.00  0.00    +0.173 C 
ATOM      3  C   UNL     1      34.595 -20.144 -20.419  0.00  0.00    +0.054 C 
ATOM      4  C   UNL     1      35.676 -21.903 -19.164  0.00  0.00    +0.176 C 
ATOM      5  C   UNL     1      33.278 -21.931 -19.463  0.00  0.00    +0.041 C 
ATOM      6  C   UNL     1      35.754 -20.722 -19.902  0.00  0.00    +0.047 C 
ATOM      7  C   UNL     1      33.357 -20.749 -20.200  0.00  0.00    +0.018 C 
ENDROOT
BRANCH   3  10
ATOM      8  O   UNL     1      34.646 -17.605 -25.231  0.00  0.00    -0.274 OA
ATOM      9  O   UNL     1      34.525 -19.701 -23.388  0.00  0.00    -0.252 OA
ATOM     10  N   UNL     1      34.674 -18.964 -21.158  0.00  0.00    -0.268 N 
ATOM     11  N   UNL     1      34.746 -17.441 -22.906  0.00  0.00    -0.239 N 
ATOM     12  C   UNL     1      34.744 -16.933 -24.208  0.00  0.00    +0.234 C 
ATOM     13  C   UNL     1      34.636 -18.802 -22.559  0.00  0.00    +0.310 C 
ATOM     14  H   UNL     1      34.768 -18.136 -20.635  0.00  0.00    +0.156 HD
ATOM     15  H   UNL     1      34.831 -16.793 -22.169  0.00  0.00    +0.159 HD
BRANCH  12  16
ATOM     16  C   UNL     1      34.880 -15.422 -24.209  0.00  0.00    +0.112 C 
BRANCH  16  18
ATOM     17  F   UNL     1      32.136 -12.937 -19.979  0.00  0.00    -0.204 F 
ATOM     18  C   UNL     1      34.146 -14.755 -23.076  0.00  0.00    -0.013 C 
ATOM     19  C   UNL     1      33.018 -13.993 -23.347  0.00  0.00    -0.001 C 
ATOM     20  C   UNL     1      34.606 -14.915 -21.777  0.00  0.00    -0.001 C 
ATOM     21  C   UNL     1      32.338 -13.376 -22.297  0.00  0.00    +0.029 C 
ATOM     22  C   UNL     1      33.925 -14.298 -20.727  0.00  0.00    +0.029 C 
ATOM     23  C   UNL     1      32.791 -13.529 -20.987  0.00  0.00    +0.140 C 
ENDBRANCH  16  18
ENDBRANCH  12  16
ENDBRANCH   3  10
BRANCH   2  24
ATOM     24  O   UNL     1      34.361 -23.661 -18.227  0.00  0.00    -0.451 OA
BRANCH  24  28
ATOM     25  N   UNL     1      35.034 -23.430 -13.626  0.00  0.00    -0.297 N 
ATOM     26  N   UNL     1      32.733 -23.421 -14.339  0.00  0.00    -0.229 NA
ATOM     27  C   UNL     1      34.677 -23.541 -15.827  0.00  0.00    +0.067 C 
ATOM     28  C   UNL     1      33.850 -23.583 -16.962  0.00  0.00    +0.150 C 
ATOM     29  C   UNL     1      34.055 -23.461 -14.584  0.00  0.00    +0.135 C 
ATOM     30  C   UNL     1      36.076 -23.557 -15.588  0.00  0.00    +0.022 C 
ATOM     31  C   UNL     1      36.266 -23.487 -14.223  0.00  0.00    +0.063 C 
ATOM     32  C   UNL     1      32.471 -23.545 -16.764  0.00  0.00    +0.058 C 
ATOM     33  C   UNL     1      31.985 -23.467 -15.465  0.00  0.00    +0.103 C 
ATOM     34  H   UNL     1      34.876 -23.375 -12.655  0.00  0.00    +0.154 HD
ENDBRANCH  24  28
ENDBRANCH   2  24
TORSDOF 5
ENDMDL
MODEL 7
REMARK VINA RESULT:     -12.1      4.511      7.011
REMARK  Name = 11560856
REMARK  5 active torsions:
REMARK  status: ('A' for Active; 'I' for Inactive)
REMARK    1  A    between atoms: C_2  and  O_24
REMARK    2  A    between atoms: C_3  and  N_10
REMARK    3  A    between atoms: C_12  and  C_16
REMARK    4  A    between atoms: C_16  and  C_18
REMARK    5  A    between atoms: O_24  and  C_28
REMARK                            x       y       z     vdW  Elec       q    Type
REMARK                         _______ _______ _______ _____ _____    ______ ____
ROOT
ATOM      1  F   UNL     1      38.002 -18.689 -21.646  0.00  0.00    -0.201 F 
ATOM      2  C   UNL     1      35.676 -19.025 -21.964  0.00  0.00    +0.173 C 
ATOM      3  C   UNL     1      35.674 -20.869 -19.899  0.00  0.00    +0.054 C 
ATOM      4  C   UNL     1      36.861 -19.300 -21.301  0.00  0.00    +0.176 C 
ATOM      5  C   UNL     1      34.491 -19.651 -21.618  0.00  0.00    +0.041 C 
ATOM      6  C   UNL     1      36.859 -20.228 -20.260  0.00  0.00    +0.047 C 
ATOM      7  C   UNL     1      34.490 -20.580 -20.577  0.00  0.00    +0.018 C 
ENDROOT
BRANCH   3  10
ATOM      8  O   UNL     1      37.663 -22.589 -15.135  0.00  0.00    -0.274 OA
ATOM      9  O   UNL     1      37.336 -20.987 -17.401  0.00  0.00    -0.252 OA
ATOM     10  N   UNL     1      35.673 -21.796 -18.856  0.00  0.00    -0.268 N 
ATOM     11  N   UNL     1      36.162 -22.924 -16.890  0.00  0.00    -0.239 N 
ATOM     12  C   UNL     1      36.770 -23.240 -15.672  0.00  0.00    +0.234 C 
ATOM     13  C   UNL     1      36.476 -21.812 -17.696  0.00  0.00    +0.310 C 
ATOM     14  H   UNL     1      35.029 -22.535 -18.941  0.00  0.00    +0.156 HD
ATOM     15  H   UNL     1      35.456 -23.530 -17.212  0.00  0.00    +0.159 HD
BRANCH  12  16
ATOM     16  C   UNL     1      36.186 -24.507 -15.077  0.00  0.00    +0.112 C 
BRANCH  16  18
ATOM     17  F   UNL     1      30.763 -24.022 -13.680  0.00  0.00    -0.204 F 
ATOM     18  C   UNL     1      34.732 -24.376 -14.702  0.00  0.00    -0.013 C 
ATOM     19  C   UNL     1      33.824 -23.911 -15.643  0.00  0.00    -0.001 C 
ATOM     20  C   UNL     1      34.324 -24.723 -13.423  0.00  0.00    -0.001 C 
ATOM     21  C   UNL     1      32.478 -23.791 -15.295  0.00  0.00    +0.029 C 
ATOM     22  C   UNL     1      32.978 -24.603 -13.076  0.00  0.00    +0.029 C 
ATOM     23  C   UNL     1      32.055 -24.138 -14.012  0.00  0.00    +0.140 C 
ENDBRANCH  16  18
ENDBRANCH  12  16
ENDBRANCH   3  10
BRANCH   2  24
ATOM     24  O   UNL     1      35.677 -18.105 -22.994  0.00  0.00    -0.451 OA
BRANCH  24  28
ATOM     25  N   UNL     1      33.270 -14.479 -24.651  0.00  0.00    -0.297 N 
ATOM     26  N   UNL     1      33.706 -14.439 -22.282  0.00  0.00    -0.229 NA
ATOM     27  C   UNL     1      34.423 -16.204 -23.825  0.00  0.00    +0.067 C 
ATOM     28  C   UNL     1      35.035 -16.917 -22.781  0.00  0.00    +0.150 C 
ATOM     29  C   UNL     1      33.795 -15.005 -23.499  0.00  0.00    +0.135 C 
ATOM     30  C   UNL     1      34.260 -16.389 -25.223  0.00  0.00    +0.022 C 
ATOM     31  C   UNL     1      33.546 -15.312 -25.704  0.00  0.00    +0.063 C 
ATOM     32  C   UNL     1      34.971 -16.376 -21.498  0.00  0.00    +0.058 C 
ATOM     33  C   UNL     1      34.312 -15.167 -21.316  0.00  0.00    +0.103 C 
ATOM     34  H   UNL     1      32.770 -13.633 -24.711  0.00  0.00    +0.154 HD
ENDBRANCH  24  28
ENDBRANCH   2  24
TORSDOF 5
ENDMDL
MODEL 8
REMARK VINA RESULT:     -11.8      4.760      7.593
REMARK  Name = 11560856
REMARK  5 active torsions:
REMARK  status: ('A' for Active; 'I' for Inactive)
REMARK    1  A    between atoms: C_2  and  O_24
REMARK    2  A    between atoms: C_3  and  N_10
REMARK    3  A    between atoms: C_12  and  C_16
REMARK    4  A    between atoms: C_16  and  C_18
REMARK    5  A    between atoms: O_24  and  C_28
REMARK                            x       y       z     vdW  Elec       q    Type
REMARK                         _______ _______ _______ _____ _____    ______ ____
ROOT
ATOM      1  F   UNL     1      38.029 -18.640 -21.892  0.00  0.00    -0.201 F 
ATOM      2  C   UNL     1      35.700 -19.073 -22.010  0.00  0.00    +0.173 C 
ATOM      3  C   UNL     1      35.943 -20.873 -19.921  0.00  0.00    +0.054 C 
ATOM      4  C   UNL     1      36.945 -19.288 -21.443  0.00  0.00    +0.176 C 
ATOM      5  C   UNL     1      34.574 -19.738 -21.556  0.00  0.00    +0.041 C 
ATOM      6  C   UNL     1      37.067 -20.194 -20.390  0.00  0.00    +0.047 C 
ATOM      7  C   UNL     1      34.697 -20.645 -20.504  0.00  0.00    +0.018 C 
ENDROOT
BRANCH   3  10
ATOM      8  O   UNL     1      37.844 -22.095 -14.972  0.00  0.00    -0.274 OA
ATOM      9  O   UNL     1      37.356 -20.607 -17.285  0.00  0.00    -0.252 OA
ATOM     10  N   UNL     1      36.066 -21.779 -18.867  0.00  0.00    -0.268 N 
ATOM     11  N   UNL     1      36.627 -22.767 -16.845  0.00  0.00    -0.239 N 
ATOM     12  C   UNL     1      37.179 -22.936 -15.573  0.00  0.00    +0.234 C 
ATOM     13  C   UNL     1      36.743 -21.610 -17.640  0.00  0.00    +0.310 C 
ATOM     14  H   UNL     1      35.623 -22.648 -18.994  0.00  0.00    +0.156 HD
ATOM     15  H   UNL     1      36.114 -23.521 -17.217  0.00  0.00    +0.159 HD
BRANCH  12  16
ATOM     16  C   UNL     1      36.857 -24.307 -15.010  0.00  0.00    +0.112 C 
BRANCH  16  18
ATOM     17  F   UNL     1      41.389 -27.082 -13.177  0.00  0.00    -0.204 F 
ATOM     18  C   UNL     1      38.071 -25.052 -14.519  0.00  0.00    -0.013 C 
ATOM     19  C   UNL     1      39.246 -25.003 -15.256  0.00  0.00    -0.001 C 
ATOM     20  C   UNL     1      37.997 -25.773 -13.337  0.00  0.00    -0.001 C 
ATOM     21  C   UNL     1      40.370 -25.692 -14.801  0.00  0.00    +0.029 C 
ATOM     22  C   UNL     1      39.122 -26.462 -12.882  0.00  0.00    +0.029 C 
ATOM     23  C   UNL     1      40.308 -26.421 -13.613  0.00  0.00    +0.140 C 
ENDBRANCH  16  18
ENDBRANCH  12  16
ENDBRANCH   3  10
BRANCH   2  24
ATOM     24  O   UNL     1      35.578 -18.174 -23.053  0.00  0.00    -0.451 OA
BRANCH  24  28
ATOM     25  N   UNL     1      33.292 -14.404 -24.548  0.00  0.00    -0.297 N 
ATOM     26  N   UNL     1      33.728 -14.481 -22.179  0.00  0.00    -0.229 NA
ATOM     27  C   UNL     1      34.388 -16.200 -23.798  0.00  0.00    +0.067 C 
ATOM     28  C   UNL     1      34.976 -16.977 -22.787  0.00  0.00    +0.150 C 
ATOM     29  C   UNL     1      33.799 -14.996 -23.421  0.00  0.00    +0.135 C 
ATOM     30  C   UNL     1      34.219 -16.318 -25.203  0.00  0.00    +0.022 C 
ATOM     31  C   UNL     1      33.540 -15.198 -25.636  0.00  0.00    +0.063 C 
ATOM     32  C   UNL     1      34.929 -16.490 -21.482  0.00  0.00    +0.058 C 
ATOM     33  C   UNL     1      34.310 -15.269 -21.247  0.00  0.00    +0.103 C 
ATOM     34  H   UNL     1      32.820 -13.540 -24.571  0.00  0.00    +0.154 HD
ENDBRANCH  24  28
ENDBRANCH   2  24
TORSDOF 5
ENDMDL
MODEL 9
REMARK VINA RESULT:     -11.8      1.604      2.132
REMARK  Name = 11560856
REMARK  5 active torsions:
REMARK  status: ('A' for Active; 'I' for Inactive)
REMARK    1  A    between atoms: C_2  and  O_24
REMARK    2  A    between atoms: C_3  and  N_10
REMARK    3  A    between atoms: C_12  and  C_16
REMARK    4  A    between atoms: C_16  and  C_18
REMARK    5  A    between atoms: O_24  and  C_28
REMARK                            x       y       z     vdW  Elec       q    Type
REMARK                         _______ _______ _______ _____ _____    ______ ____
ROOT
ATOM      1  F   UNL     1      34.030 -10.142 -23.991  0.00  0.00    -0.201 F 
ATOM      2  C   UNL     1      32.293 -10.890 -22.560  0.00  0.00    +0.173 C 
ATOM      3  C   UNL     1      33.619 -13.298 -22.232  0.00  0.00    +0.054 C 
ATOM      4  C   UNL     1      33.500 -11.092 -23.209  0.00  0.00    +0.176 C 
ATOM      5  C   UNL     1      31.734 -11.865 -21.751  0.00  0.00    +0.041 C 
ATOM      6  C   UNL     1      34.168 -12.305 -23.043  0.00  0.00    +0.047 C 
ATOM      7  C   UNL     1      32.403 -13.078 -21.586  0.00  0.00    +0.018 C 
ENDROOT
BRANCH   3  10
ATOM      8  O   UNL     1      34.796 -18.302 -24.014  0.00  0.00    -0.274 OA
ATOM      9  O   UNL     1      33.651 -15.754 -23.958  0.00  0.00    -0.252 OA
ATOM     10  N   UNL     1      34.289 -14.510 -22.065  0.00  0.00    -0.268 N 
ATOM     11  N   UNL     1      35.089 -16.665 -22.378  0.00  0.00    -0.239 N 
ATOM     12  C   UNL     1      35.296 -17.919 -22.959  0.00  0.00    +0.234 C 
ATOM     13  C   UNL     1      34.275 -15.643 -22.906  0.00  0.00    +0.310 C 
ATOM     14  H   UNL     1      34.843 -14.586 -21.256  0.00  0.00    +0.156 HD
ATOM     15  H   UNL     1      35.549 -16.481 -21.527  0.00  0.00    +0.159 HD
BRANCH  12  16
ATOM     16  C   UNL     1      36.230 -18.768 -22.118  0.00  0.00    +0.112 C 
BRANCH  16  18
ATOM     17  F   UNL     1      33.533 -22.321 -18.697  0.00  0.00    -0.204 F 
ATOM     18  C   UNL     1      35.507 -19.719 -21.200  0.00  0.00    -0.013 C 
ATOM     19  C   UNL     1      34.119 -19.742 -21.196  0.00  0.00    -0.001 C 
ATOM     20  C   UNL     1      36.239 -20.559 -20.375  0.00  0.00    -0.001 C 
ATOM     21  C   UNL     1      33.450 -20.624 -20.346  0.00  0.00    +0.029 C 
ATOM     22  C   UNL     1      35.570 -21.441 -19.525  0.00  0.00    +0.029 C 
ATOM     23  C   UNL     1      34.176 -21.474 -19.512  0.00  0.00    +0.140 C 
ENDBRANCH  16  18
ENDBRANCH  12  16
ENDBRANCH   3  10
BRANCH   2  24
ATOM     24  O   UNL     1      31.631  -9.689 -22.724  0.00  0.00    -0.451 OA
BRANCH  24  28
ATOM     25  N   UNL     1      31.883  -5.140 -21.762  0.00  0.00    -0.297 N 
ATOM     26  N   UNL     1      32.551  -6.615 -19.978  0.00  0.00    -0.229 NA
ATOM     27  C   UNL     1      31.775  -7.329 -22.192  0.00  0.00    +0.067 C 
ATOM     28  C   UNL     1      31.924  -8.682 -21.847  0.00  0.00    +0.150 C 
ATOM     29  C   UNL     1      32.100  -6.382 -21.224  0.00  0.00    +0.135 C 
ATOM     30  C   UNL     1      31.350  -6.613 -23.342  0.00  0.00    +0.022 C 
ATOM     31  C   UNL     1      31.427  -5.268 -23.048  0.00  0.00    +0.063 C 
ATOM     32  C   UNL     1      32.388  -8.980 -20.567  0.00  0.00    +0.058 C 
ATOM     33  C   UNL     1      32.677  -7.933 -19.701  0.00  0.00    +0.103 C 
ATOM     34  H   UNL     1      32.032  -4.286 -21.295  0.00  0.00    +0.154 HD
ENDBRANCH  24  28
ENDBRANCH   2  24
TORSDOF 5
ENDMDL
