MODEL 1
REMARK VINA RESULT:     -11.7      0.000      0.000
REMARK  Name = 657140
REMARK  9 active torsions:
REMARK  status: ('A' for Active; 'I' for Inactive)
REMARK    1  A    between atoms: C_1  and  N_8
REMARK    2  A    between atoms: C_2  and  O_20
REMARK    3  A    between atoms: C_9  and  C_11
REMARK    4  A    between atoms: C_14  and  N_19
REMARK    5  A    between atoms: O_20  and  C_21
REMARK    6  A    between atoms: C_22  and  C_28
REMARK    7  A    between atoms: C_24  and  C_32
REMARK    8  A    between atoms: C_28  and  O_29
REMARK    9  A    between atoms: C_32  and  O_33
REMARK                            x       y       z     vdW  Elec       q    Type
REMARK                         _______ _______ _______ _____ _____    ______ ____
ROOT
ATOM      1  C   UNL     1      34.929 -23.170 -16.083  0.00  0.00    +0.086 C 
ATOM      2  C   UNL     1      35.385 -22.772 -17.329  0.00  0.00    +0.159 C 
ATOM      3  C   UNL     1      35.762 -23.167 -14.976  0.00  0.00    +0.018 C 
ATOM      4  C   UNL     1      36.710 -22.362 -17.472  0.00  0.00    +0.039 C 
ATOM      5  C   UNL     1      37.087 -22.757 -15.119  0.00  0.00    +0.001 C 
ATOM      6  C   UNL     1      37.561 -22.354 -16.368  0.00  0.00    +0.003 C 
ENDROOT
BRANCH   1   8
ATOM      7  O   UNL     1      33.313 -23.573 -13.591  0.00  0.00    -0.270 OA
ATOM      8  N   UNL     1      33.586 -23.589 -15.921  0.00  0.00    -0.278 N 
ATOM      9  C   UNL     1      32.864 -23.765 -14.732  0.00  0.00    +0.250 C 
ATOM     10  H   UNL     1      33.095 -23.781 -16.752  0.00  0.00    +0.155 HD
BRANCH   9  11
ATOM     11  C   UNL     1      31.497 -24.236 -14.883  0.00  0.00    +0.055 C 
ATOM     12  C   UNL     1      30.607 -23.539 -15.701  0.00  0.00    +0.029 C 
ATOM     13  C   UNL     1      31.076 -25.384 -14.214  0.00  0.00    +0.005 C 
ATOM     14  C   UNL     1      29.295 -23.991 -15.848  0.00  0.00    +0.143 C 
ATOM     15  C   UNL     1      29.764 -25.836 -14.360  0.00  0.00    +0.002 C 
ATOM     16  C   UNL     1      28.874 -25.140 -15.177  0.00  0.00    +0.024 C 
BRANCH  14  19
ATOM     17  O   UNL     1      28.184 -22.065 -16.461  0.00  0.00    -0.126 OA
ATOM     18  O   UNL     1      27.815 -23.896 -17.614  0.00  0.00    -0.126 OA
ATOM     19  N   UNL     1      28.388 -23.284 -16.681  0.00  0.00    +0.058 N 
ENDBRANCH  14  19
ENDBRANCH   9  11
ENDBRANCH   1   8
BRANCH   2  20
ATOM     20  O   UNL     1      34.569 -22.772 -18.422  0.00  0.00    -0.452 OA
BRANCH  20  21
ATOM     21  C   UNL     1      34.641 -21.684 -19.275  0.00  0.00    +0.146 C 
ATOM     22  C   UNL     1      35.940 -19.999 -20.377  0.00  0.00    +0.085 C 
ATOM     23  C   UNL     1      35.869 -21.094 -19.517  0.00  0.00    +0.044 C 
ATOM     24  C   UNL     1      34.782 -19.511 -20.982  0.00  0.00    +0.082 C 
ATOM     25  C   UNL     1      33.481 -21.214 -19.866  0.00  0.00    +0.038 C 
ATOM     26  C   UNL     1      33.553 -20.119 -20.726  0.00  0.00    +0.010 C 
BRANCH  22  28
ATOM     27  O   UNL     1      37.745 -19.212 -21.735  0.00  0.00    -0.245 OA
ATOM     28  C   UNL     1      37.238 -19.386 -20.623  0.00  0.00    +0.338 C 
BRANCH  28  29
ATOM     29  O   UNL     1      37.861 -19.012 -19.474  0.00  0.00    -0.477 OA
ATOM     30  H   UNL     1      38.417 -19.617 -19.024  0.00  0.00    +0.295 HD
ENDBRANCH  28  29
ENDBRANCH  22  28
BRANCH  24  32
ATOM     31  O   UNL     1      34.745 -17.185 -21.542  0.00  0.00    -0.245 OA
ATOM     32  C   UNL     1      34.823 -18.368 -21.884  0.00  0.00    +0.338 C 
BRANCH  32  33
ATOM     33  O   UNL     1      34.958 -18.741 -23.186  0.00  0.00    -0.477 OA
ATOM     34  H   UNL     1      35.680 -19.278 -23.447  0.00  0.00    +0.295 HD
ENDBRANCH  32  33
ENDBRANCH  24  32
ENDBRANCH  20  21
ENDBRANCH   2  20
TORSDOF 9
ENDMDL
MODEL 2
REMARK VINA RESULT:     -11.7      2.926      8.601
REMARK  Name = 657140
REMARK  9 active torsions:
REMARK  status: ('A' for Active; 'I' for Inactive)
REMARK    1  A    between atoms: C_1  and  N_8
REMARK    2  A    between atoms: C_2  and  O_20
REMARK    3  A    between atoms: C_9  and  C_11
REMARK    4  A    between atoms: C_14  and  N_19
REMARK    5  A    between atoms: O_20  and  C_21
REMARK    6  A    between atoms: C_22  and  C_28
REMARK    7  A    between atoms: C_24  and  C_32
REMARK    8  A    between atoms: C_28  and  O_29
REMARK    9  A    between atoms: C_32  and  O_33
REMARK                            x       y       z     vdW  Elec       q    Type
REMARK                         _______ _______ _______ _____ _____    ______ ____
ROOT
ATOM      1  C   UNL     1      31.635 -23.541 -15.993  0.00  0.00    +0.086 C 
ATOM      2  C   UNL     1      32.345 -23.759 -14.824  0.00  0.00    +0.159 C 
ATOM      3  C   UNL     1      30.368 -24.070 -16.178  0.00  0.00    +0.018 C 
ATOM      4  C   UNL     1      31.773 -24.530 -13.812  0.00  0.00    +0.039 C 
ATOM      5  C   UNL     1      29.796 -24.842 -15.166  0.00  0.00    +0.001 C 
ATOM      6  C   UNL     1      30.499 -25.071 -13.983  0.00  0.00    +0.003 C 
ENDROOT
BRANCH   1   8
ATOM      7  O   UNL     1      33.657 -24.266 -18.084  0.00  0.00    -0.270 OA
ATOM      8  N   UNL     1      32.201 -22.759 -17.030  0.00  0.00    -0.278 N 
ATOM      9  C   UNL     1      33.149 -23.138 -17.991  0.00  0.00    +0.250 C 
ATOM     10  H   UNL     1      31.889 -21.826 -17.081  0.00  0.00    +0.155 HD
BRANCH   9  11
ATOM     11  C   UNL     1      33.564 -22.097 -18.917  0.00  0.00    +0.055 C 
ATOM     12  C   UNL     1      34.907 -21.732 -19.000  0.00  0.00    +0.029 C 
ATOM     13  C   UNL     1      32.619 -21.465 -19.725  0.00  0.00    +0.005 C 
ATOM     14  C   UNL     1      35.306 -20.734 -19.891  0.00  0.00    +0.143 C 
ATOM     15  C   UNL     1      33.016 -20.467 -20.615  0.00  0.00    +0.002 C 
ATOM     16  C   UNL     1      34.360 -20.102 -20.698  0.00  0.00    +0.024 C 
BRANCH  14  19
ATOM     17  O   UNL     1      37.432 -20.607 -19.007  0.00  0.00    -0.126 OA
ATOM     18  O   UNL     1      37.087 -19.802 -21.020  0.00  0.00    -0.126 OA
ATOM     19  N   UNL     1      36.674 -20.363 -19.977  0.00  0.00    +0.058 N 
ENDBRANCH  14  19
ENDBRANCH   9  11
ENDBRANCH   1   8
BRANCH   2  20
ATOM     20  O   UNL     1      33.591 -23.239 -14.636  0.00  0.00    -0.452 OA
BRANCH  20  21
ATOM     21  C   UNL     1      34.543 -24.052 -14.046  0.00  0.00    +0.146 C 
ATOM     22  C   UNL     1      35.758 -24.741 -12.099  0.00  0.00    +0.085 C 
ATOM     23  C   UNL     1      34.799 -23.920 -12.693  0.00  0.00    +0.044 C 
ATOM     24  C   UNL     1      36.446 -25.679 -12.868  0.00  0.00    +0.082 C 
ATOM     25  C   UNL     1      35.215 -24.977 -14.825  0.00  0.00    +0.038 C 
ATOM     26  C   UNL     1      36.174 -25.797 -14.231  0.00  0.00    +0.010 C 
BRANCH  22  28
ATOM     27  O   UNL     1      36.820 -23.799 -10.174  0.00  0.00    -0.245 OA
ATOM     28  C   UNL     1      36.018 -24.593 -10.673  0.00  0.00    +0.338 C 
BRANCH  28  29
ATOM     29  O   UNL     1      35.269 -25.439  -9.918  0.00  0.00    -0.477 OA
ATOM     30  H   UNL     1      35.570 -26.311  -9.753  0.00  0.00    +0.295 HD
ENDBRANCH  28  29
ENDBRANCH  22  28
BRANCH  24  32
ATOM     31  O   UNL     1      37.294 -27.246 -11.271  0.00  0.00    -0.245 OA
ATOM     32  C   UNL     1      37.453 -26.549 -12.278  0.00  0.00    +0.338 C 
BRANCH  32  33
ATOM     33  O   UNL     1      38.628 -26.521 -12.964  0.00  0.00    -0.477 OA
ATOM     34  H   UNL     1      38.714 -27.000 -13.764  0.00  0.00    +0.295 HD
ENDBRANCH  32  33
ENDBRANCH  24  32
ENDBRANCH  20  21
ENDBRANCH   2  20
TORSDOF 9
ENDMDL
MODEL 3
REMARK VINA RESULT:     -11.5      2.359      7.653
REMARK  Name = 657140
REMARK  9 active torsions:
REMARK  status: ('A' for Active; 'I' for Inactive)
REMARK    1  A    between atoms: C_1  and  N_8
REMARK    2  A    between atoms: C_2  and  O_20
REMARK    3  A    between atoms: C_9  and  C_11
REMARK    4  A    between atoms: C_14  and  N_19
REMARK    5  A    between atoms: O_20  and  C_21
REMARK    6  A    between atoms: C_22  and  C_28
REMARK    7  A    between atoms: C_24  and  C_32
REMARK    8  A    between atoms: C_28  and  O_29
REMARK    9  A    between atoms: C_32  and  O_33
REMARK                            x       y       z     vdW  Elec       q    Type
REMARK                         _______ _______ _______ _____ _____    ______ ____
ROOT
ATOM      1  C   UNL     1      35.935 -24.859 -14.555  0.00  0.00    +0.086 C 
ATOM      2  C   UNL     1      35.342 -24.602 -13.330  0.00  0.00    +0.159 C 
ATOM      3  C   UNL     1      36.970 -25.771 -14.679  0.00  0.00    +0.018 C 
ATOM      4  C   UNL     1      35.799 -25.274 -12.197  0.00  0.00    +0.039 C 
ATOM      5  C   UNL     1      37.428 -26.443 -13.546  0.00  0.00    +0.001 C 
ATOM      6  C   UNL     1      36.841 -26.195 -12.304  0.00  0.00    +0.003 C 
ENDROOT
BRANCH   1   8
ATOM      7  O   UNL     1      37.075 -22.486 -15.990  0.00  0.00    -0.270 OA
ATOM      8  N   UNL     1      35.481 -24.186 -15.716  0.00  0.00    -0.278 N 
ATOM      9  C   UNL     1      36.046 -23.074 -16.357  0.00  0.00    +0.250 C 
ATOM     10  H   UNL     1      34.661 -24.545 -16.126  0.00  0.00    +0.155 HD
BRANCH   9  11
ATOM     11  C   UNL     1      35.331 -22.584 -17.525  0.00  0.00    +0.055 C 
ATOM     12  C   UNL     1      35.968 -21.730 -18.425  0.00  0.00    +0.029 C 
ATOM     13  C   UNL     1      34.009 -22.970 -17.746  0.00  0.00    +0.005 C 
ATOM     14  C   UNL     1      35.283 -21.262 -19.547  0.00  0.00    +0.143 C 
ATOM     15  C   UNL     1      33.323 -22.501 -18.866  0.00  0.00    +0.002 C 
ATOM     16  C   UNL     1      33.960 -21.647 -19.766  0.00  0.00    +0.024 C 
BRANCH  14  19
ATOM     17  O   UNL     1      37.062 -19.935 -20.173  0.00  0.00    -0.126 OA
ATOM     18  O   UNL     1      35.355 -20.108 -21.542  0.00  0.00    -0.126 OA
ATOM     19  N   UNL     1      35.931 -20.394 -20.464  0.00  0.00    +0.058 N 
ENDBRANCH  14  19
ENDBRANCH   9  11
ENDBRANCH   1   8
BRANCH   2  20
ATOM     20  O   UNL     1      34.322 -23.707 -13.203  0.00  0.00    -0.452 OA
BRANCH  20  21
ATOM     21  C   UNL     1      33.060 -24.112 -13.604  0.00  0.00    +0.146 C 
ATOM     22  C   UNL     1      31.042 -23.695 -14.826  0.00  0.00    +0.085 C 
ATOM     23  C   UNL     1      32.313 -23.285 -14.423  0.00  0.00    +0.044 C 
ATOM     24  C   UNL     1      30.538 -24.925 -14.404  0.00  0.00    +0.082 C 
ATOM     25  C   UNL     1      32.578 -25.337 -13.174  0.00  0.00    +0.038 C 
ATOM     26  C   UNL     1      31.307 -25.745 -13.578  0.00  0.00    +0.010 C 
BRANCH  22  28
ATOM     27  O   UNL     1      30.532 -22.552 -16.865  0.00  0.00    -0.245 OA
ATOM     28  C   UNL     1      30.265 -22.815 -15.689  0.00  0.00    +0.338 C 
BRANCH  28  29
ATOM     29  O   UNL     1      29.181 -22.292 -15.056  0.00  0.00    -0.477 OA
ATOM     30  H   UNL     1      29.297 -21.700 -14.339  0.00  0.00    +0.295 HD
ENDBRANCH  28  29
ENDBRANCH  22  28
BRANCH  24  32
ATOM     31  O   UNL     1      28.716 -25.223 -15.925  0.00  0.00    -0.245 OA
ATOM     32  C   UNL     1      29.215 -25.381 -14.807  0.00  0.00    +0.338 C 
BRANCH  32  33
ATOM     33  O   UNL     1      28.559 -26.018 -13.801  0.00  0.00    -0.477 OA
ATOM     34  H   UNL     1      27.644 -25.866 -13.668  0.00  0.00    +0.295 HD
ENDBRANCH  32  33
ENDBRANCH  24  32
ENDBRANCH  20  21
ENDBRANCH   2  20
TORSDOF 9
ENDMDL
MODEL 4
REMARK VINA RESULT:     -11.5      3.021      8.345
REMARK  Name = 657140
REMARK  9 active torsions:
REMARK  status: ('A' for Active; 'I' for Inactive)
REMARK    1  A    between atoms: C_1  and  N_8
REMARK    2  A    between atoms: C_2  and  O_20
REMARK    3  A    between atoms: C_9  and  C_11
REMARK    4  A    between atoms: C_14  and  N_19
REMARK    5  A    between atoms: O_20  and  C_21
REMARK    6  A    between atoms: C_22  and  C_28
REMARK    7  A    between atoms: C_24  and  C_32
REMARK    8  A    between atoms: C_28  and  O_29
REMARK    9  A    between atoms: C_32  and  O_33
REMARK                            x       y       z     vdW  Elec       q    Type
REMARK                         _______ _______ _______ _____ _____    ______ ____
ROOT
ATOM      1  C   UNL     1      31.781 -23.541 -15.982  0.00  0.00    +0.086 C 
ATOM      2  C   UNL     1      32.508 -23.757 -14.824  0.00  0.00    +0.159 C 
ATOM      3  C   UNL     1      30.516 -24.080 -16.151  0.00  0.00    +0.018 C 
ATOM      4  C   UNL     1      31.957 -24.536 -13.807  0.00  0.00    +0.039 C 
ATOM      5  C   UNL     1      29.964 -24.859 -15.134  0.00  0.00    +0.001 C 
ATOM      6  C   UNL     1      30.685 -25.086 -13.961  0.00  0.00    +0.003 C 
ENDROOT
BRANCH   1   8
ATOM      7  O   UNL     1      33.652 -24.287 -18.203  0.00  0.00    -0.270 OA
ATOM      8  N   UNL     1      32.326 -22.751 -17.024  0.00  0.00    -0.278 N 
ATOM      9  C   UNL     1      33.202 -23.141 -18.047  0.00  0.00    +0.250 C 
ATOM     10  H   UNL     1      32.055 -21.805 -17.030  0.00  0.00    +0.155 HD
BRANCH   9  11
ATOM     11  C   UNL     1      33.615 -22.089 -18.963  0.00  0.00    +0.055 C 
ATOM     12  C   UNL     1      34.955 -21.709 -19.030  0.00  0.00    +0.029 C 
ATOM     13  C   UNL     1      32.671 -21.462 -19.776  0.00  0.00    +0.005 C 
ATOM     14  C   UNL     1      35.352 -20.702 -19.911  0.00  0.00    +0.143 C 
ATOM     15  C   UNL     1      33.066 -20.455 -20.656  0.00  0.00    +0.002 C 
ATOM     16  C   UNL     1      34.407 -20.075 -20.723  0.00  0.00    +0.024 C 
BRANCH  14  19
ATOM     17  O   UNL     1      37.141 -19.774 -21.030  0.00  0.00    -0.126 OA
ATOM     18  O   UNL     1      37.460 -20.526 -18.993  0.00  0.00    -0.126 OA
ATOM     19  N   UNL     1      36.716 -20.315 -19.981  0.00  0.00    +0.058 N 
ENDBRANCH  14  19
ENDBRANCH   9  11
ENDBRANCH   1   8
BRANCH   2  20
ATOM     20  O   UNL     1      33.752 -23.227 -14.652  0.00  0.00    -0.452 OA
BRANCH  20  21
ATOM     21  C   UNL     1      34.714 -24.027 -14.057  0.00  0.00    +0.146 C 
ATOM     22  C   UNL     1      36.334 -25.784 -14.219  0.00  0.00    +0.085 C 
ATOM     23  C   UNL     1      35.366 -24.980 -14.819  0.00  0.00    +0.044 C 
ATOM     24  C   UNL     1      36.635 -25.623 -12.866  0.00  0.00    +0.082 C 
ATOM     25  C   UNL     1      34.998 -23.852 -12.714  0.00  0.00    +0.038 C 
ATOM     26  C   UNL     1      35.967 -24.657 -12.114  0.00  0.00    +0.010 C 
BRANCH  22  28
ATOM     27  O   UNL     1      36.489 -27.797 -15.501  0.00  0.00    -0.245 OA
ATOM     28  C   UNL     1      37.014 -26.784 -15.031  0.00  0.00    +0.338 C 
BRANCH  28  29
ATOM     29  O   UNL     1      38.325 -26.486 -15.231  0.00  0.00    -0.477 OA
ATOM     30  H   UNL     1      38.988 -27.100 -14.985  0.00  0.00    +0.295 HD
ENDBRANCH  28  29
ENDBRANCH  22  28
BRANCH  24  32
ATOM     31  O   UNL     1      38.843 -26.463 -12.488  0.00  0.00    -0.245 OA
ATOM     32  C   UNL     1      37.640 -26.447 -12.210  0.00  0.00    +0.338 C 
BRANCH  32  33
ATOM     33  O   UNL     1      37.111 -27.226 -11.229  0.00  0.00    -0.477 OA
ATOM     34  H   UNL     1      37.672 -27.619 -10.589  0.00  0.00    +0.295 HD
ENDBRANCH  32  33
ENDBRANCH  24  32
ENDBRANCH  20  21
ENDBRANCH   2  20
TORSDOF 9
ENDMDL
MODEL 5
REMARK VINA RESULT:     -11.3      2.979      8.324
REMARK  Name = 657140
REMARK  9 active torsions:
REMARK  status: ('A' for Active; 'I' for Inactive)
REMARK    1  A    between atoms: C_1  and  N_8
REMARK    2  A    between atoms: C_2  and  O_20
REMARK    3  A    between atoms: C_9  and  C_11
REMARK    4  A    between atoms: C_14  and  N_19
REMARK    5  A    between atoms: O_20  and  C_21
REMARK    6  A    between atoms: C_22  and  C_28
REMARK    7  A    between atoms: C_24  and  C_32
REMARK    8  A    between atoms: C_28  and  O_29
REMARK    9  A    between atoms: C_32  and  O_33
REMARK                            x       y       z     vdW  Elec       q    Type
REMARK                         _______ _______ _______ _____ _____    ______ ____
ROOT
ATOM      1  C   UNL     1      32.350 -23.688 -15.069  0.00  0.00    +0.086 C 
ATOM      2  C   UNL     1      32.685 -24.820 -14.345  0.00  0.00    +0.159 C 
ATOM      3  C   UNL     1      31.118 -23.072 -14.918  0.00  0.00    +0.018 C 
ATOM      4  C   UNL     1      31.762 -25.352 -13.446  0.00  0.00    +0.039 C 
ATOM      5  C   UNL     1      30.194 -23.605 -14.019  0.00  0.00    +0.001 C 
ATOM      6  C   UNL     1      30.517 -24.746 -13.282  0.00  0.00    +0.003 C 
ENDROOT
BRANCH   1   8
ATOM      7  O   UNL     1      32.148 -23.300 -18.035  0.00  0.00    -0.270 OA
ATOM      8  N   UNL     1      33.277 -23.133 -15.985  0.00  0.00    -0.278 N 
ATOM      9  C   UNL     1      33.143 -22.970 -17.371  0.00  0.00    +0.250 C 
ATOM     10  H   UNL     1      34.128 -22.823 -15.598  0.00  0.00    +0.155 HD
BRANCH   9  11
ATOM     11  C   UNL     1      34.288 -22.389 -18.055  0.00  0.00    +0.055 C 
ATOM     12  C   UNL     1      34.097 -21.613 -19.198  0.00  0.00    +0.029 C 
ATOM     13  C   UNL     1      35.576 -22.607 -17.567  0.00  0.00    +0.005 C 
ATOM     14  C   UNL     1      35.195 -21.054 -19.853  0.00  0.00    +0.143 C 
ATOM     15  C   UNL     1      36.674 -22.050 -18.222  0.00  0.00    +0.002 C 
ATOM     16  C   UNL     1      36.483 -21.273 -19.365  0.00  0.00    +0.024 C 
BRANCH  14  19
ATOM     17  O   UNL     1      33.850 -20.172 -21.506  0.00  0.00    -0.126 OA
ATOM     18  O   UNL     1      35.987 -19.673 -21.521  0.00  0.00    -0.126 OA
ATOM     19  N   UNL     1      35.001 -20.262 -21.015  0.00  0.00    +0.058 N 
ENDBRANCH  14  19
ENDBRANCH   9  11
ENDBRANCH   1   8
BRANCH   2  20
ATOM     20  O   UNL     1      33.896 -25.428 -14.489  0.00  0.00    -0.452 OA
BRANCH  20  21
ATOM     21  C   UNL     1      34.967 -24.899 -13.787  0.00  0.00    +0.146 C 
ATOM     22  C   UNL     1      36.023 -24.384 -11.699  0.00  0.00    +0.085 C 
ATOM     23  C   UNL     1      34.943 -24.916 -12.404  0.00  0.00    +0.044 C 
ATOM     24  C   UNL     1      37.108 -23.843 -12.388  0.00  0.00    +0.082 C 
ATOM     25  C   UNL     1      36.035 -24.367 -14.489  0.00  0.00    +0.038 C 
ATOM     26  C   UNL     1      37.114 -23.835 -13.783  0.00  0.00    +0.010 C 
BRANCH  22  28
ATOM     27  O   UNL     1      36.510 -23.571  -9.503  0.00  0.00    -0.245 OA
ATOM     28  C   UNL     1      35.986 -24.408 -10.243  0.00  0.00    +0.338 C 
BRANCH  28  29
ATOM     29  O   UNL     1      35.297 -25.475  -9.759  0.00  0.00    -0.477 OA
ATOM     30  H   UNL     1      35.352 -25.695  -8.850  0.00  0.00    +0.295 HD
ENDBRANCH  28  29
ENDBRANCH  22  28
BRANCH  24  32
ATOM     31  O   UNL     1      39.207 -23.924 -11.243  0.00  0.00    -0.245 OA
ATOM     32  C   UNL     1      38.249 -23.279 -11.681  0.00  0.00    +0.338 C 
BRANCH  32  33
ATOM     33  O   UNL     1      38.158 -21.929 -11.543  0.00  0.00    -0.477 OA
ATOM     34  H   UNL     1      38.115 -21.382 -12.302  0.00  0.00    +0.295 HD
ENDBRANCH  32  33
ENDBRANCH  24  32
ENDBRANCH  20  21
ENDBRANCH   2  20
TORSDOF 9
ENDMDL
MODEL 6
REMARK VINA RESULT:     -11.2      2.999      6.428
REMARK  Name = 657140
REMARK  9 active torsions:
REMARK  status: ('A' for Active; 'I' for Inactive)
REMARK    1  A    between atoms: C_1  and  N_8
REMARK    2  A    between atoms: C_2  and  O_20
REMARK    3  A    between atoms: C_9  and  C_11
REMARK    4  A    between atoms: C_14  and  N_19
REMARK    5  A    between atoms: O_20  and  C_21
REMARK    6  A    between atoms: C_22  and  C_28
REMARK    7  A    between atoms: C_24  and  C_32
REMARK    8  A    between atoms: C_28  and  O_29
REMARK    9  A    between atoms: C_32  and  O_33
REMARK                            x       y       z     vdW  Elec       q    Type
REMARK                         _______ _______ _______ _____ _____    ______ ____
ROOT
ATOM      1  C   UNL     1      34.762 -22.664 -17.554  0.00  0.00    +0.086 C 
ATOM      2  C   UNL     1      35.844 -22.203 -16.823  0.00  0.00    +0.159 C 
ATOM      3  C   UNL     1      34.798 -22.721 -18.938  0.00  0.00    +0.018 C 
ATOM      4  C   UNL     1      36.993 -21.785 -17.494  0.00  0.00    +0.039 C 
ATOM      5  C   UNL     1      35.947 -22.304 -19.609  0.00  0.00    +0.001 C 
ATOM      6  C   UNL     1      37.045 -21.836 -18.887  0.00  0.00    +0.003 C 
ENDROOT
BRANCH   1   8
ATOM      7  O   UNL     1      31.892 -21.936 -18.023  0.00  0.00    -0.270 OA
ATOM      8  N   UNL     1      33.588 -23.093 -16.888  0.00  0.00    -0.278 N 
ATOM      9  C   UNL     1      32.258 -22.726 -17.139  0.00  0.00    +0.250 C 
ATOM     10  H   UNL     1      33.724 -23.732 -16.151  0.00  0.00    +0.155 HD
BRANCH   9  11
ATOM     11  C   UNL     1      31.261 -23.316 -16.261  0.00  0.00    +0.055 C 
ATOM     12  C   UNL     1      29.914 -22.988 -16.415  0.00  0.00    +0.029 C 
ATOM     13  C   UNL     1      31.650 -24.213 -15.266  0.00  0.00    +0.005 C 
ATOM     14  C   UNL     1      28.956 -23.556 -15.574  0.00  0.00    +0.143 C 
ATOM     15  C   UNL     1      30.693 -24.781 -14.424  0.00  0.00    +0.002 C 
ATOM     16  C   UNL     1      29.347 -24.452 -14.579  0.00  0.00    +0.024 C 
BRANCH  14  19
ATOM     17  O   UNL     1      27.044 -23.387 -16.852  0.00  0.00    -0.126 OA
ATOM     18  O   UNL     1      26.951 -22.774 -14.746  0.00  0.00    -0.126 OA
ATOM     19  N   UNL     1      27.585 -23.223 -15.731  0.00  0.00    +0.058 N 
ENDBRANCH  14  19
ENDBRANCH   9  11
ENDBRANCH   1   8
BRANCH   2  20
ATOM     20  O   UNL     1      35.814 -22.146 -15.462  0.00  0.00    -0.452 OA
BRANCH  20  21
ATOM     21  C   UNL     1      36.144 -23.296 -14.764  0.00  0.00    +0.146 C 
ATOM     22  C   UNL     1      37.758 -24.959 -14.159  0.00  0.00    +0.085 C 
ATOM     23  C   UNL     1      37.428 -23.801 -14.863  0.00  0.00    +0.044 C 
ATOM     24  C   UNL     1      36.800 -25.593 -13.369  0.00  0.00    +0.082 C 
ATOM     25  C   UNL     1      35.179 -23.910 -13.985  0.00  0.00    +0.038 C 
ATOM     26  C   UNL     1      35.511 -25.069 -13.282  0.00  0.00    +0.010 C 
BRANCH  22  28
ATOM     27  O   UNL     1      40.089 -25.074 -13.634  0.00  0.00    -0.245 OA
ATOM     28  C   UNL     1      39.114 -25.481 -14.271  0.00  0.00    +0.338 C 
BRANCH  28  29
ATOM     29  O   UNL     1      39.206 -26.495 -15.172  0.00  0.00    -0.477 OA
ATOM     30  H   UNL     1      40.024 -26.934 -15.301  0.00  0.00    +0.295 HD
ENDBRANCH  28  29
ENDBRANCH  22  28
BRANCH  24  32
ATOM     31  O   UNL     1      37.371 -26.852 -11.416  0.00  0.00    -0.245 OA
ATOM     32  C   UNL     1      37.114 -26.804 -12.623  0.00  0.00    +0.338 C 
BRANCH  32  33
ATOM     33  O   UNL     1      37.097 -27.915 -13.407  0.00  0.00    -0.477 OA
ATOM     34  H   UNL     1      36.611 -27.916 -14.208  0.00  0.00    +0.295 HD
ENDBRANCH  32  33
ENDBRANCH  24  32
ENDBRANCH  20  21
ENDBRANCH   2  20
TORSDOF 9
ENDMDL
MODEL 7
REMARK VINA RESULT:     -11.2      2.923      7.744
REMARK  Name = 657140
REMARK  9 active torsions:
REMARK  status: ('A' for Active; 'I' for Inactive)
REMARK    1  A    between atoms: C_1  and  N_8
REMARK    2  A    between atoms: C_2  and  O_20
REMARK    3  A    between atoms: C_9  and  C_11
REMARK    4  A    between atoms: C_14  and  N_19
REMARK    5  A    between atoms: O_20  and  C_21
REMARK    6  A    between atoms: C_22  and  C_28
REMARK    7  A    between atoms: C_24  and  C_32
REMARK    8  A    between atoms: C_28  and  O_29
REMARK    9  A    between atoms: C_32  and  O_33
REMARK                            x       y       z     vdW  Elec       q    Type
REMARK                         _______ _______ _______ _____ _____    ______ ____
ROOT
ATOM      1  C   UNL     1      32.214 -23.691 -14.994  0.00  0.00    +0.086 C 
ATOM      2  C   UNL     1      32.528 -24.855 -14.314  0.00  0.00    +0.159 C 
ATOM      3  C   UNL     1      30.987 -23.068 -14.832  0.00  0.00    +0.018 C 
ATOM      4  C   UNL     1      31.589 -25.415 -13.449  0.00  0.00    +0.039 C 
ATOM      5  C   UNL     1      30.047 -23.627 -13.966  0.00  0.00    +0.001 C 
ATOM      6  C   UNL     1      30.349 -24.801 -13.274  0.00  0.00    +0.003 C 
ENDROOT
BRANCH   1   8
ATOM      7  O   UNL     1      32.913 -24.394 -17.824  0.00  0.00    -0.270 OA
ATOM      8  N   UNL     1      33.158 -23.109 -15.876  0.00  0.00    -0.278 N 
ATOM      9  C   UNL     1      33.456 -23.470 -17.197  0.00  0.00    +0.250 C 
ATOM     10  H   UNL     1      33.674 -22.353 -15.512  0.00  0.00    +0.155 HD
BRANCH   9  11
ATOM     11  C   UNL     1      34.504 -22.697 -17.845  0.00  0.00    +0.055 C 
ATOM     12  C   UNL     1      34.211 -21.936 -18.977  0.00  0.00    +0.029 C 
ATOM     13  C   UNL     1      35.802 -22.716 -17.334  0.00  0.00    +0.005 C 
ATOM     14  C   UNL     1      35.216 -21.193 -19.597  0.00  0.00    +0.143 C 
ATOM     15  C   UNL     1      36.807 -21.974 -17.954  0.00  0.00    +0.002 C 
ATOM     16  C   UNL     1      36.514 -21.213 -19.085  0.00  0.00    +0.024 C 
BRANCH  14  19
ATOM     17  O   UNL     1      35.842 -19.772 -21.302  0.00  0.00    -0.126 OA
ATOM     18  O   UNL     1      33.741 -20.396 -21.180  0.00  0.00    -0.126 OA
ATOM     19  N   UNL     1      34.919 -20.417 -20.748  0.00  0.00    +0.058 N 
ENDBRANCH  14  19
ENDBRANCH   9  11
ENDBRANCH   1   8
BRANCH   2  20
ATOM     20  O   UNL     1      33.735 -25.471 -14.469  0.00  0.00    -0.452 OA
BRANCH  20  21
ATOM     21  C   UNL     1      34.821 -24.931 -13.801  0.00  0.00    +0.146 C 
ATOM     22  C   UNL     1      37.146 -24.355 -13.756  0.00  0.00    +0.085 C 
ATOM     23  C   UNL     1      36.053 -24.900 -14.429  0.00  0.00    +0.044 C 
ATOM     24  C   UNL     1      36.990 -23.850 -12.465  0.00  0.00    +0.082 C 
ATOM     25  C   UNL     1      34.645 -24.434 -12.521  0.00  0.00    +0.038 C 
ATOM     26  C   UNL     1      35.739 -23.890 -11.849  0.00  0.00    +0.010 C 
BRANCH  22  28
ATOM     27  O   UNL     1      38.735 -23.595 -15.375  0.00  0.00    -0.245 OA
ATOM     28  C   UNL     1      38.439 -24.329 -14.428  0.00  0.00    +0.338 C 
BRANCH  28  29
ATOM     29  O   UNL     1      39.319 -25.217 -13.894  0.00  0.00    -0.477 OA
ATOM     30  H   UNL     1      39.138 -26.136 -13.933  0.00  0.00    +0.295 HD
ENDBRANCH  28  29
ENDBRANCH  22  28
BRANCH  24  32
ATOM     31  O   UNL     1      39.002 -23.920 -11.174  0.00  0.00    -0.245 OA
ATOM     32  C   UNL     1      38.111 -23.276 -11.736  0.00  0.00    +0.338 C 
BRANCH  32  33
ATOM     33  O   UNL     1      38.084 -21.916 -11.730  0.00  0.00    -0.477 OA
ATOM     34  H   UNL     1      37.975 -21.446 -12.534  0.00  0.00    +0.295 HD
ENDBRANCH  32  33
ENDBRANCH  24  32
ENDBRANCH  20  21
ENDBRANCH   2  20
TORSDOF 9
ENDMDL
MODEL 8
REMARK VINA RESULT:     -11.1      3.202      8.283
REMARK  Name = 657140
REMARK  9 active torsions:
REMARK  status: ('A' for Active; 'I' for Inactive)
REMARK    1  A    between atoms: C_1  and  N_8
REMARK    2  A    between atoms: C_2  and  O_20
REMARK    3  A    between atoms: C_9  and  C_11
REMARK    4  A    between atoms: C_14  and  N_19
REMARK    5  A    between atoms: O_20  and  C_21
REMARK    6  A    between atoms: C_22  and  C_28
REMARK    7  A    between atoms: C_24  and  C_32
REMARK    8  A    between atoms: C_28  and  O_29
REMARK    9  A    between atoms: C_32  and  O_33
REMARK                            x       y       z     vdW  Elec       q    Type
REMARK                         _______ _______ _______ _____ _____    ______ ____
ROOT
ATOM      1  C   UNL     1      33.272 -23.324 -16.094  0.00  0.00    +0.086 C 
ATOM      2  C   UNL     1      33.705 -23.386 -14.780  0.00  0.00    +0.159 C 
ATOM      3  C   UNL     1      32.091 -23.928 -16.494  0.00  0.00    +0.018 C 
ATOM      4  C   UNL     1      32.937 -24.073 -13.840  0.00  0.00    +0.039 C 
ATOM      5  C   UNL     1      31.323 -24.615 -15.554  0.00  0.00    +0.001 C 
ATOM      6  C   UNL     1      31.746 -24.687 -14.226  0.00  0.00    +0.003 C 
ENDROOT
BRANCH   1   8
ATOM      7  O   UNL     1      32.710 -22.778 -18.988  0.00  0.00    -0.270 OA
ATOM      8  N   UNL     1      34.039 -22.628 -17.061  0.00  0.00    -0.278 N 
ATOM      9  C   UNL     1      33.739 -22.395 -18.410  0.00  0.00    +0.250 C 
ATOM     10  H   UNL     1      34.897 -22.262 -16.743  0.00  0.00    +0.155 HD
BRANCH   9  11
ATOM     11  C   UNL     1      34.745 -21.667 -19.167  0.00  0.00    +0.055 C 
ATOM     12  C   UNL     1      34.357 -20.801 -20.189  0.00  0.00    +0.029 C 
ATOM     13  C   UNL     1      36.098 -21.833 -18.869  0.00  0.00    +0.005 C 
ATOM     14  C   UNL     1      35.323 -20.101 -20.914  0.00  0.00    +0.143 C 
ATOM     15  C   UNL     1      37.063 -21.135 -19.594  0.00  0.00    +0.002 C 
ATOM     16  C   UNL     1      36.675 -20.269 -20.616  0.00  0.00    +0.024 C 
BRANCH  14  19
ATOM     17  O   UNL     1      34.969 -17.981 -21.748  0.00  0.00    -0.126 OA
ATOM     18  O   UNL     1      34.552 -19.698 -23.050  0.00  0.00    -0.126 OA
ATOM     19  N   UNL     1      34.929 -19.218 -21.954  0.00  0.00    +0.058 N 
ENDBRANCH  14  19
ENDBRANCH   9  11
ENDBRANCH   1   8
BRANCH   2  20
ATOM     20  O   UNL     1      34.865 -22.792 -14.381  0.00  0.00    -0.452 OA
BRANCH  20  21
ATOM     21  C   UNL     1      36.007 -23.575 -14.344  0.00  0.00    +0.146 C 
ATOM     22  C   UNL     1      37.231 -25.407 -13.403  0.00  0.00    +0.085 C 
ATOM     23  C   UNL     1      36.081 -24.618 -13.439  0.00  0.00    +0.044 C 
ATOM     24  C   UNL     1      38.288 -25.139 -14.272  0.00  0.00    +0.082 C 
ATOM     25  C   UNL     1      37.045 -23.294 -15.215  0.00  0.00    +0.038 C 
ATOM     26  C   UNL     1      38.195 -24.083 -15.178  0.00  0.00    +0.010 C 
BRANCH  22  28
ATOM     27  O   UNL     1      37.648 -26.398 -11.266  0.00  0.00    -0.245 OA
ATOM     28  C   UNL     1      37.298 -26.502 -12.445  0.00  0.00    +0.338 C 
BRANCH  28  29
ATOM     29  O   UNL     1      36.925 -27.691 -12.990  0.00  0.00    -0.477 OA
ATOM     30  H   UNL     1      36.020 -27.933 -13.011  0.00  0.00    +0.295 HD
ENDBRANCH  28  29
ENDBRANCH  22  28
BRANCH  24  32
ATOM     31  O   UNL     1      39.574 -27.133 -14.579  0.00  0.00    -0.245 OA
ATOM     32  C   UNL     1      39.502 -25.943 -14.259  0.00  0.00    +0.338 C 
BRANCH  32  33
ATOM     33  O   UNL     1      40.588 -25.235 -13.845  0.00  0.00    -0.477 OA
ATOM     34  H   UNL     1      41.152 -24.832 -14.475  0.00  0.00    +0.295 HD
ENDBRANCH  32  33
ENDBRANCH  24  32
ENDBRANCH  20  21
ENDBRANCH   2  20
TORSDOF 9
ENDMDL
MODEL 9
REMARK VINA RESULT:     -11.1      3.169      6.244
REMARK  Name = 657140
REMARK  9 active torsions:
REMARK  status: ('A' for Active; 'I' for Inactive)
REMARK    1  A    between atoms: C_1  and  N_8
REMARK    2  A    between atoms: C_2  and  O_20
REMARK    3  A    between atoms: C_9  and  C_11
REMARK    4  A    between atoms: C_14  and  N_19
REMARK    5  A    between atoms: O_20  and  C_21
REMARK    6  A    between atoms: C_22  and  C_28
REMARK    7  A    between atoms: C_24  and  C_32
REMARK    8  A    between atoms: C_28  and  O_29
REMARK    9  A    between atoms: C_32  and  O_33
REMARK                            x       y       z     vdW  Elec       q    Type
REMARK                         _______ _______ _______ _____ _____    ______ ____
ROOT
ATOM      1  C   UNL     1      33.900 -22.682 -17.747  0.00  0.00    +0.086 C 
ATOM      2  C   UNL     1      35.111 -22.745 -17.078  0.00  0.00    +0.159 C 
ATOM      3  C   UNL     1      33.801 -22.124 -19.011  0.00  0.00    +0.018 C 
ATOM      4  C   UNL     1      36.255 -22.233 -17.690  0.00  0.00    +0.039 C 
ATOM      5  C   UNL     1      34.946 -21.613 -19.623  0.00  0.00    +0.001 C 
ATOM      6  C   UNL     1      36.173 -21.668 -18.962  0.00  0.00    +0.003 C 
ENDROOT
BRANCH   1   8
ATOM      7  O   UNL     1      32.993 -22.587 -14.891  0.00  0.00    -0.270 OA
ATOM      8  N   UNL     1      32.728 -23.198 -17.140  0.00  0.00    -0.278 N 
ATOM      9  C   UNL     1      32.341 -23.132 -15.794  0.00  0.00    +0.250 C 
ATOM     10  H   UNL     1      32.105 -23.666 -17.743  0.00  0.00    +0.155 HD
BRANCH   9  11
ATOM     11  C   UNL     1      31.084 -23.786 -15.463  0.00  0.00    +0.055 C 
ATOM     12  C   UNL     1      29.889 -23.315 -16.007  0.00  0.00    +0.029 C 
ATOM     13  C   UNL     1      31.075 -24.884 -14.604  0.00  0.00    +0.005 C 
ATOM     14  C   UNL     1      28.684 -23.943 -15.691  0.00  0.00    +0.143 C 
ATOM     15  C   UNL     1      29.870 -25.512 -14.287  0.00  0.00    +0.002 C 
ATOM     16  C   UNL     1      28.675 -25.041 -14.831  0.00  0.00    +0.024 C 
BRANCH  14  19
ATOM     17  O   UNL     1      26.640 -22.894 -15.494  0.00  0.00    -0.126 OA
ATOM     18  O   UNL     1      27.251 -23.629 -17.470  0.00  0.00    -0.126 OA
ATOM     19  N   UNL     1      27.467 -23.466 -16.245  0.00  0.00    +0.058 N 
ENDBRANCH  14  19
ENDBRANCH   9  11
ENDBRANCH   1   8
BRANCH   2  20
ATOM     20  O   UNL     1      35.213 -23.294 -15.835  0.00  0.00    -0.452 OA
BRANCH  20  21
ATOM     21  C   UNL     1      36.417 -23.885 -15.492  0.00  0.00    +0.146 C 
ATOM     22  C   UNL     1      37.628 -25.751 -14.600  0.00  0.00    +0.085 C 
ATOM     23  C   UNL     1      36.414 -25.156 -14.944  0.00  0.00    +0.044 C 
ATOM     24  C   UNL     1      38.825 -25.066 -14.809  0.00  0.00    +0.082 C 
ATOM     25  C   UNL     1      37.594 -23.190 -15.707  0.00  0.00    +0.038 C 
ATOM     26  C   UNL     1      38.808 -23.786 -15.363  0.00  0.00    +0.010 C 
BRANCH  22  28
ATOM     27  O   UNL     1      38.050 -28.105 -14.570  0.00  0.00    -0.245 OA
ATOM     28  C   UNL     1      37.611 -27.089 -14.024  0.00  0.00    +0.338 C 
BRANCH  28  29
ATOM     29  O   UNL     1      37.050 -27.114 -12.786  0.00  0.00    -0.477 OA
ATOM     30  H   UNL     1      37.183 -27.853 -12.227  0.00  0.00    +0.295 HD
ENDBRANCH  28  29
ENDBRANCH  22  28
BRANCH  24  32
ATOM     31  O   UNL     1      40.727 -25.456 -13.411  0.00  0.00    -0.245 OA
ATOM     32  C   UNL     1      40.108 -25.660 -14.460  0.00  0.00    +0.338 C 
BRANCH  32  33
ATOM     33  O   UNL     1      40.577 -26.488 -15.431  0.00  0.00    -0.477 OA
ATOM     34  H   UNL     1      40.631 -26.188 -16.317  0.00  0.00    +0.295 HD
ENDBRANCH  32  33
ENDBRANCH  24  32
ENDBRANCH  20  21
ENDBRANCH   2  20
TORSDOF 9
ENDMDL
