MODEL 1
REMARK VINA RESULT:     -11.2      0.000      0.000
REMARK  Name = 77993
REMARK  6 active torsions:
REMARK  status: ('A' for Active; 'I' for Inactive)
REMARK    1  A    between atoms: C_2  and  C_11
REMARK    2  A    between atoms: C_7  and  C_19
REMARK    3  A    between atoms: C_11  and  C_13
REMARK    4  A    between atoms: C_19  and  C_20
REMARK    5  A    between atoms: C_20  and  S_21
REMARK    6  A    between atoms: S_21  and  C_24
REMARK                            x       y       z     vdW  Elec       q    Type
REMARK                         _______ _______ _______ _____ _____    ______ ____
ROOT
ATOM      1  N   UNL     1      33.570 -23.921 -16.078  0.00  0.00    -0.312 N 
ATOM      2  C   UNL     1      35.706 -23.476 -15.803  0.00  0.00    -0.008 C 
ATOM      3  C   UNL     1      35.306 -22.882 -17.019  0.00  0.00    +0.010 C 
ATOM      4  C   UNL     1      34.637 -24.106 -15.240  0.00  0.00    +0.058 C 
ATOM      5  C   UNL     1      33.949 -23.177 -17.173  0.00  0.00    +0.048 C 
ATOM      6  C   UNL     1      35.951 -22.121 -18.013  0.00  0.00    -0.003 C 
ATOM      7  C   UNL     1      35.218 -21.684 -19.121  0.00  0.00    -0.020 C 
ATOM      8  C   UNL     1      33.204 -22.747 -18.275  0.00  0.00    +0.014 C 
ATOM      9  C   UNL     1      33.865 -21.994 -19.249  0.00  0.00    -0.003 C 
ATOM     10  H   UNL     1      32.663 -24.269 -15.921  0.00  0.00    +0.152 HD
ENDROOT
BRANCH   2  11
ATOM     11  C   UNL     1      37.083 -23.427 -15.215  0.00  0.00    +0.007 C 
BRANCH  11  13
ATOM     12  N   UNL     1      37.638 -24.059 -12.859  0.00  0.00    +0.387 N 
ATOM     13  C   UNL     1      37.327 -24.546 -14.211  0.00  0.00    -0.054 C 
ATOM     14  C   UNL     1      38.570 -25.366 -14.565  0.00  0.00    -0.023 C 
ATOM     15  C   UNL     1      39.162 -25.799 -13.229  0.00  0.00    -0.025 C 
ATOM     16  C   UNL     1      38.240 -25.206 -12.175  0.00  0.00    -0.077 C 
ATOM     17  C   UNL     1      36.468 -23.564 -12.143  0.00  0.00    -0.101 C 
ATOM     18  H   UNL     1      38.263 -23.255 -12.900  0.00  0.00    -0.080 HD
ENDBRANCH  11  13
ENDBRANCH   2  11
BRANCH   7  19
ATOM     19  C   UNL     1      35.895 -20.877 -20.180  0.00  0.00    +0.052 C 
BRANCH  19  20
ATOM     20  C   UNL     1      35.004 -19.804 -20.813  0.00  0.00    +0.161 C 
BRANCH  20  21
ATOM     21  S   UNL     1      35.782 -18.997 -22.177  0.00  0.00    +0.009 S 
ATOM     22  O   UNL     1      35.275 -19.572 -23.411  0.00  0.00    -0.169 OA
ATOM     23  O   UNL     1      37.211 -18.964 -21.917  0.00  0.00    -0.169 OA
BRANCH  21  24
ATOM     24  C   UNL     1      35.177 -17.339 -22.093  0.00  0.00    +0.106 C 
ATOM     25  C   UNL     1      34.773 -16.826 -20.871  0.00  0.00    +0.018 C 
ATOM     26  C   UNL     1      35.117 -16.581 -23.251  0.00  0.00    +0.018 C 
ATOM     27  C   UNL     1      34.296 -15.518 -20.806  0.00  0.00    +0.001 C 
ATOM     28  C   UNL     1      34.640 -15.272 -23.185  0.00  0.00    +0.001 C 
ATOM     29  C   UNL     1      34.230 -14.741 -21.963  0.00  0.00    +0.000 C 
ENDBRANCH  21  24
ENDBRANCH  20  21
ENDBRANCH  19  20
ENDBRANCH   7  19
TORSDOF 6
ENDMDL
MODEL 2
REMARK VINA RESULT:     -10.9      2.178      4.026
REMARK  Name = 77993
REMARK  6 active torsions:
REMARK  status: ('A' for Active; 'I' for Inactive)
REMARK    1  A    between atoms: C_2  and  C_11
REMARK    2  A    between atoms: C_7  and  C_19
REMARK    3  A    between atoms: C_11  and  C_13
REMARK    4  A    between atoms: C_19  and  C_20
REMARK    5  A    between atoms: C_20  and  S_21
REMARK    6  A    between atoms: S_21  and  C_24
REMARK                            x       y       z     vdW  Elec       q    Type
REMARK                         _______ _______ _______ _____ _____    ______ ____
ROOT
ATOM      1  N   UNL     1      36.118 -23.151 -16.038  0.00  0.00    -0.312 N 
ATOM      2  C   UNL     1      34.044 -23.529 -16.668  0.00  0.00    -0.008 C 
ATOM      3  C   UNL     1      34.650 -22.741 -17.669  0.00  0.00    +0.010 C 
ATOM      4  C   UNL     1      34.951 -23.771 -15.680  0.00  0.00    +0.058 C 
ATOM      5  C   UNL     1      35.964 -22.513 -17.249  0.00  0.00    +0.048 C 
ATOM      6  C   UNL     1      34.226 -22.190 -18.894  0.00  0.00    -0.003 C 
ATOM      7  C   UNL     1      35.127 -21.436 -19.653  0.00  0.00    -0.020 C 
ATOM      8  C   UNL     1      36.875 -21.761 -17.997  0.00  0.00    +0.014 C 
ATOM      9  C   UNL     1      36.431 -21.225 -19.209  0.00  0.00    -0.003 C 
ATOM     10  H   UNL     1      36.947 -23.159 -15.508  0.00  0.00    +0.152 HD
ENDROOT
BRANCH   2  11
ATOM     11  C   UNL     1      32.631 -24.025 -16.679  0.00  0.00    +0.007 C 
BRANCH  11  13
ATOM     12  N   UNL     1      31.317 -24.492 -14.603  0.00  0.00    +0.387 N 
ATOM     13  C   UNL     1      31.807 -23.462 -15.529  0.00  0.00    -0.054 C 
ATOM     14  C   UNL     1      30.512 -22.812 -16.023  0.00  0.00    -0.023 C 
ATOM     15  C   UNL     1      29.490 -23.061 -14.920  0.00  0.00    -0.025 C 
ATOM     16  C   UNL     1      30.239 -23.842 -13.852  0.00  0.00    -0.077 C 
ATOM     17  C   UNL     1      32.351 -25.006 -13.713  0.00  0.00    -0.101 C 
ATOM     18  H   UNL     1      30.998 -25.314 -15.114  0.00  0.00    -0.080 HD
ENDBRANCH  11  13
ENDBRANCH   2  11
BRANCH   7  19
ATOM     19  C   UNL     1      34.684 -20.849 -20.952  0.00  0.00    +0.052 C 
BRANCH  19  20
ATOM     20  C   UNL     1      34.555 -19.323 -20.936  0.00  0.00    +0.161 C 
BRANCH  20  21
ATOM     21  S   UNL     1      35.377 -18.560 -22.299  0.00  0.00    +0.009 S 
ATOM     22  O   UNL     1      34.790 -19.053 -23.533  0.00  0.00    -0.169 OA
ATOM     23  O   UNL     1      36.808 -18.672 -22.073  0.00  0.00    -0.169 OA
BRANCH  21  24
ATOM     24  C   UNL     1      34.937 -16.854 -22.163  0.00  0.00    +0.106 C 
ATOM     25  C   UNL     1      34.934 -16.063 -23.299  0.00  0.00    +0.018 C 
ATOM     26  C   UNL     1      34.602 -16.339 -20.921  0.00  0.00    +0.018 C 
ATOM     27  C   UNL     1      34.587 -14.716 -23.191  0.00  0.00    +0.001 C 
ATOM     28  C   UNL     1      34.255 -14.992 -20.814  0.00  0.00    +0.001 C 
ATOM     29  C   UNL     1      34.247 -14.182 -21.948  0.00  0.00    +0.000 C 
ENDBRANCH  21  24
ENDBRANCH  20  21
ENDBRANCH  19  20
ENDBRANCH   7  19
TORSDOF 6
ENDMDL
MODEL 3
REMARK VINA RESULT:     -10.4      3.947      9.765
REMARK  Name = 77993
REMARK  6 active torsions:
REMARK  status: ('A' for Active; 'I' for Inactive)
REMARK    1  A    between atoms: C_2  and  C_11
REMARK    2  A    between atoms: C_7  and  C_19
REMARK    3  A    between atoms: C_11  and  C_13
REMARK    4  A    between atoms: C_19  and  C_20
REMARK    5  A    between atoms: C_20  and  S_21
REMARK    6  A    between atoms: S_21  and  C_24
REMARK                            x       y       z     vdW  Elec       q    Type
REMARK                         _______ _______ _______ _____ _____    ______ ____
ROOT
ATOM      1  N   UNL     1      32.795 -21.676 -19.653  0.00  0.00    -0.312 N 
ATOM      2  C   UNL     1      34.615 -20.627 -20.305  0.00  0.00    -0.008 C 
ATOM      3  C   UNL     1      34.963 -21.419 -19.190  0.00  0.00    +0.010 C 
ATOM      4  C   UNL     1      33.290 -20.794 -20.576  0.00  0.00    +0.058 C 
ATOM      5  C   UNL     1      33.795 -22.075 -18.794  0.00  0.00    +0.048 C 
ATOM      6  C   UNL     1      36.150 -21.654 -18.468  0.00  0.00    -0.003 C 
ATOM      7  C   UNL     1      36.125 -22.533 -17.381  0.00  0.00    -0.020 C 
ATOM      8  C   UNL     1      33.755 -22.956 -17.709  0.00  0.00    +0.014 C 
ATOM      9  C   UNL     1      34.945 -23.173 -17.007  0.00  0.00    -0.003 C 
ATOM     10  H   UNL     1      31.861 -21.982 -19.610  0.00  0.00    +0.152 HD
ENDROOT
BRANCH   2  11
ATOM     11  C   UNL     1      35.546 -19.741 -21.074  0.00  0.00    +0.007 C 
BRANCH  11  13
ATOM     12  N   UNL     1      35.185 -18.575 -23.258  0.00  0.00    +0.387 N 
ATOM     13  C   UNL     1      34.809 -18.649 -21.839  0.00  0.00    -0.054 C 
ATOM     14  C   UNL     1      35.169 -17.253 -21.324  0.00  0.00    -0.023 C 
ATOM     15  C   UNL     1      35.109 -16.344 -22.547  0.00  0.00    -0.025 C 
ATOM     16  C   UNL     1      34.726 -17.256 -23.702  0.00  0.00    -0.077 C 
ATOM     17  C   UNL     1      34.604 -19.641 -24.065  0.00  0.00    -0.101 C 
ATOM     18  H   UNL     1      36.191 -18.698 -23.372  0.00  0.00    -0.080 HD
ENDBRANCH  11  13
ENDBRANCH   2  11
BRANCH   7  19
ATOM     19  C   UNL     1      37.379 -22.785 -16.610  0.00  0.00    +0.052 C 
BRANCH  19  20
ATOM     20  C   UNL     1      37.177 -22.847 -15.093  0.00  0.00    +0.161 C 
BRANCH  20  21
ATOM     21  S   UNL     1      37.525 -24.445 -14.429  0.00  0.00    +0.009 S 
ATOM     22  O   UNL     1      38.965 -24.620 -14.361  0.00  0.00    -0.169 OA
ATOM     23  O   UNL     1      36.703 -25.409 -15.141  0.00  0.00    -0.169 OA
BRANCH  21  24
ATOM     24  C   UNL     1      36.937 -24.353 -12.765  0.00  0.00    +0.106 C 
ATOM     25  C   UNL     1      36.067 -25.325 -12.300  0.00  0.00    +0.018 C 
ATOM     26  C   UNL     1      37.357 -23.310 -11.956  0.00  0.00    +0.018 C 
ATOM     27  C   UNL     1      35.604 -25.252 -10.986  0.00  0.00    +0.001 C 
ATOM     28  C   UNL     1      36.893 -23.238 -10.643  0.00  0.00    +0.001 C 
ATOM     29  C   UNL     1      36.017 -24.209 -10.158  0.00  0.00    +0.000 C 
ENDBRANCH  21  24
ENDBRANCH  20  21
ENDBRANCH  19  20
ENDBRANCH   7  19
TORSDOF 6
ENDMDL
MODEL 4
REMARK VINA RESULT:     -10.3      5.436     11.512
REMARK  Name = 77993
REMARK  6 active torsions:
REMARK  status: ('A' for Active; 'I' for Inactive)
REMARK    1  A    between atoms: C_2  and  C_11
REMARK    2  A    between atoms: C_7  and  C_19
REMARK    3  A    between atoms: C_11  and  C_13
REMARK    4  A    between atoms: C_19  and  C_20
REMARK    5  A    between atoms: C_20  and  S_21
REMARK    6  A    between atoms: S_21  and  C_24
REMARK                            x       y       z     vdW  Elec       q    Type
REMARK                         _______ _______ _______ _____ _____    ______ ____
ROOT
ATOM      1  N   UNL     1      33.441 -13.970 -26.178  0.00  0.00    -0.312 N 
ATOM      2  C   UNL     1      33.799 -12.652 -24.453  0.00  0.00    -0.008 C 
ATOM      3  C   UNL     1      34.102 -13.969 -24.046  0.00  0.00    +0.010 C 
ATOM      4  C   UNL     1      33.398 -12.668 -25.755  0.00  0.00    +0.058 C 
ATOM      5  C   UNL     1      33.868 -14.787 -25.155  0.00  0.00    +0.048 C 
ATOM      6  C   UNL     1      34.552 -14.561 -22.850  0.00  0.00    -0.003 C 
ATOM      7  C   UNL     1      34.751 -15.945 -22.807  0.00  0.00    -0.020 C 
ATOM      8  C   UNL     1      34.063 -16.171 -25.126  0.00  0.00    +0.014 C 
ATOM      9  C   UNL     1      34.509 -16.737 -23.928  0.00  0.00    -0.003 C 
ATOM     10  H   UNL     1      33.203 -14.277 -27.082  0.00  0.00    +0.152 HD
ENDROOT
BRANCH   2  11
ATOM     11  C   UNL     1      33.900 -11.426 -23.598  0.00  0.00    +0.007 C 
BRANCH  11  13
ATOM     12  N   UNL     1      32.645  -9.863 -22.101  0.00  0.00    +0.387 N 
ATOM     13  C   UNL     1      32.591 -11.102 -22.890  0.00  0.00    -0.054 C 
ATOM     14  C   UNL     1      32.240 -12.154 -21.835  0.00  0.00    -0.023 C 
ATOM     15  C   UNL     1      31.522 -11.392 -20.728  0.00  0.00    -0.025 C 
ATOM     16  C   UNL     1      31.499  -9.944 -21.191  0.00  0.00    -0.077 C 
ATOM     17  C   UNL     1      32.593  -8.656 -22.919  0.00  0.00    -0.101 C 
ATOM     18  H   UNL     1      33.534  -9.789 -21.607  0.00  0.00    -0.080 HD
ENDBRANCH  11  13
ENDBRANCH   2  11
BRANCH   7  19
ATOM     19  C   UNL     1      35.227 -16.580 -21.541  0.00  0.00    +0.052 C 
BRANCH  19  20
ATOM     20  C   UNL     1      34.571 -17.930 -21.236  0.00  0.00    +0.161 C 
BRANCH  20  21
ATOM     21  S   UNL     1      35.706 -19.276 -21.355  0.00  0.00    +0.009 S 
ATOM     22  O   UNL     1      36.959 -18.887 -20.732  0.00  0.00    -0.169 OA
ATOM     23  O   UNL     1      35.687 -19.753 -22.727  0.00  0.00    -0.169 OA
BRANCH  21  24
ATOM     24  C   UNL     1      34.989 -20.530 -20.335  0.00  0.00    +0.106 C 
ATOM     25  C   UNL     1      33.611 -20.618 -20.239  0.00  0.00    +0.018 C 
ATOM     26  C   UNL     1      35.821 -21.401 -19.651  0.00  0.00    +0.018 C 
ATOM     27  C   UNL     1      33.046 -21.608 -19.435  0.00  0.00    +0.001 C 
ATOM     28  C   UNL     1      35.255 -22.391 -18.846  0.00  0.00    +0.001 C 
ATOM     29  C   UNL     1      33.869 -22.494 -18.738  0.00  0.00    +0.000 C 
ENDBRANCH  21  24
ENDBRANCH  20  21
ENDBRANCH  19  20
ENDBRANCH   7  19
TORSDOF 6
ENDMDL
MODEL 5
REMARK VINA RESULT:     -10.3      4.197      7.417
REMARK  Name = 77993
REMARK  6 active torsions:
REMARK  status: ('A' for Active; 'I' for Inactive)
REMARK    1  A    between atoms: C_2  and  C_11
REMARK    2  A    between atoms: C_7  and  C_19
REMARK    3  A    between atoms: C_11  and  C_13
REMARK    4  A    between atoms: C_19  and  C_20
REMARK    5  A    between atoms: C_20  and  S_21
REMARK    6  A    between atoms: S_21  and  C_24
REMARK                            x       y       z     vdW  Elec       q    Type
REMARK                         _______ _______ _______ _____ _____    ______ ____
ROOT
ATOM      1  N   UNL     1      34.647 -19.547 -24.383  0.00  0.00    -0.312 N 
ATOM      2  C   UNL     1      35.215 -19.165 -22.292  0.00  0.00    -0.008 C 
ATOM      3  C   UNL     1      34.949 -17.915 -22.890  0.00  0.00    +0.010 C 
ATOM      4  C   UNL     1      35.027 -20.151 -23.214  0.00  0.00    +0.058 C 
ATOM      5  C   UNL     1      34.591 -18.181 -24.215  0.00  0.00    +0.048 C 
ATOM      6  C   UNL     1      34.973 -16.577 -22.451  0.00  0.00    -0.003 C 
ATOM      7  C   UNL     1      34.639 -15.557 -23.348  0.00  0.00    -0.020 C 
ATOM      8  C   UNL     1      34.255 -17.172 -25.123  0.00  0.00    +0.014 C 
ATOM      9  C   UNL     1      34.286 -15.852 -24.664  0.00  0.00    -0.003 C 
ATOM     10  H   UNL     1      34.443 -20.019 -25.222  0.00  0.00    +0.152 HD
ENDROOT
BRANCH   2  11
ATOM     11  C   UNL     1      35.637 -19.384 -20.872  0.00  0.00    +0.007 C 
BRANCH  11  13
ATOM     12  N   UNL     1      34.167 -20.884 -19.513  0.00  0.00    +0.387 N 
ATOM     13  C   UNL     1      35.343 -20.799 -20.390  0.00  0.00    -0.054 C 
ATOM     14  C   UNL     1      36.464 -21.340 -19.499  0.00  0.00    -0.023 C 
ATOM     15  C   UNL     1      35.773 -22.244 -18.485  0.00  0.00    -0.025 C 
ATOM     16  C   UNL     1      34.295 -22.176 -18.834  0.00  0.00    -0.077 C 
ATOM     17  C   UNL     1      32.903 -20.782 -20.233  0.00  0.00    -0.101 C 
ATOM     18  H   UNL     1      34.145 -20.100 -18.861  0.00  0.00    -0.080 HD
ENDBRANCH  11  13
ENDBRANCH   2  11
BRANCH   7  19
ATOM     19  C   UNL     1      34.664 -14.136 -22.890  0.00  0.00    +0.052 C 
BRANCH  19  20
ATOM     20  C   UNL     1      34.184 -13.937 -21.449  0.00  0.00    +0.161 C 
BRANCH  20  21
ATOM     21  S   UNL     1      32.423 -13.958 -21.314  0.00  0.00    +0.009 S 
ATOM     22  O   UNL     1      32.040 -14.986 -20.362  0.00  0.00    -0.169 OA
ATOM     23  O   UNL     1      31.875 -13.963 -22.659  0.00  0.00    -0.169 OA
BRANCH  21  24
ATOM     24  C   UNL     1      32.034 -12.400 -20.575  0.00  0.00    +0.106 C 
ATOM     25  C   UNL     1      31.742 -12.346 -19.223  0.00  0.00    +0.018 C 
ATOM     26  C   UNL     1      32.029 -11.260 -21.363  0.00  0.00    +0.018 C 
ATOM     27  C   UNL     1      31.435 -11.116 -18.641  0.00  0.00    +0.001 C 
ATOM     28  C   UNL     1      31.723 -10.031 -20.780  0.00  0.00    +0.001 C 
ATOM     29  C   UNL     1      31.426  -9.959 -19.420  0.00  0.00    +0.000 C 
ENDBRANCH  21  24
ENDBRANCH  20  21
ENDBRANCH  19  20
ENDBRANCH   7  19
TORSDOF 6
ENDMDL
MODEL 6
REMARK VINA RESULT:     -10.3      5.478     12.188
REMARK  Name = 77993
REMARK  6 active torsions:
REMARK  status: ('A' for Active; 'I' for Inactive)
REMARK    1  A    between atoms: C_2  and  C_11
REMARK    2  A    between atoms: C_7  and  C_19
REMARK    3  A    between atoms: C_11  and  C_13
REMARK    4  A    between atoms: C_19  and  C_20
REMARK    5  A    between atoms: C_20  and  S_21
REMARK    6  A    between atoms: S_21  and  C_24
REMARK                            x       y       z     vdW  Elec       q    Type
REMARK                         _______ _______ _______ _____ _____    ______ ____
ROOT
ATOM      1  N   UNL     1      31.165 -12.071 -19.949  0.00  0.00    -0.312 N 
ATOM      2  C   UNL     1      32.197 -11.461 -21.794  0.00  0.00    -0.008 C 
ATOM      3  C   UNL     1      32.610 -12.777 -21.496  0.00  0.00    +0.010 C 
ATOM      4  C   UNL     1      31.316 -11.044 -20.842  0.00  0.00    +0.058 C 
ATOM      5  C   UNL     1      31.944 -13.144 -20.324  0.00  0.00    +0.048 C 
ATOM      6  C   UNL     1      33.483 -13.705 -22.098  0.00  0.00    -0.003 C 
ATOM      7  C   UNL     1      33.657 -14.961 -21.506  0.00  0.00    -0.020 C 
ATOM      8  C   UNL     1      32.108 -14.395 -19.722  0.00  0.00    +0.014 C 
ATOM      9  C   UNL     1      32.979 -15.299 -20.336  0.00  0.00    -0.003 C 
ATOM     10  H   UNL     1      30.584 -12.048 -19.155  0.00  0.00    +0.152 HD
ENDROOT
BRANCH   2  11
ATOM     11  C   UNL     1      32.649 -10.645 -22.965  0.00  0.00    +0.007 C 
BRANCH  11  13
ATOM     12  N   UNL     1      31.871  -8.320 -23.464  0.00  0.00    +0.387 N 
ATOM     13  C   UNL     1      32.748  -9.161 -22.637  0.00  0.00    -0.054 C 
ATOM     14  C   UNL     1      34.139  -8.602 -22.948  0.00  0.00    -0.023 C 
ATOM     15  C   UNL     1      33.905  -7.161 -23.387  0.00  0.00    -0.025 C 
ATOM     16  C   UNL     1      32.399  -6.961 -23.313  0.00  0.00    -0.077 C 
ATOM     17  C   UNL     1      30.468  -8.393 -23.074  0.00  0.00    -0.101 C 
ATOM     18  H   UNL     1      31.876  -8.637 -24.433  0.00  0.00    -0.080 HD
ENDBRANCH  11  13
ENDBRANCH   2  11
BRANCH   7  19
ATOM     19  C   UNL     1      34.582 -15.949 -22.137  0.00  0.00    +0.052 C 
BRANCH  19  20
ATOM     20  C   UNL     1      35.055 -17.055 -21.189  0.00  0.00    +0.161 C 
BRANCH  20  21
ATOM     21  S   UNL     1      35.507 -18.532 -22.044  0.00  0.00    +0.009 S 
ATOM     22  O   UNL     1      36.955 -18.592 -22.140  0.00  0.00    -0.169 OA
ATOM     23  O   UNL     1      34.689 -18.619 -23.242  0.00  0.00    -0.169 OA
BRANCH  21  24
ATOM     24  C   UNL     1      35.008 -19.827 -20.950  0.00  0.00    +0.106 C 
ATOM     25  C   UNL     1      33.658 -20.052 -20.739  0.00  0.00    +0.018 C 
ATOM     26  C   UNL     1      35.976 -20.594 -20.324  0.00  0.00    +0.018 C 
ATOM     27  C   UNL     1      33.265 -21.075 -19.876  0.00  0.00    +0.001 C 
ATOM     28  C   UNL     1      35.582 -21.617 -19.461  0.00  0.00    +0.001 C 
ATOM     29  C   UNL     1      34.227 -21.857 -19.237  0.00  0.00    +0.000 C 
ENDBRANCH  21  24
ENDBRANCH  20  21
ENDBRANCH  19  20
ENDBRANCH   7  19
TORSDOF 6
ENDMDL
MODEL 7
REMARK VINA RESULT:     -10.1      7.931     14.119
REMARK  Name = 77993
REMARK  6 active torsions:
REMARK  status: ('A' for Active; 'I' for Inactive)
REMARK    1  A    between atoms: C_2  and  C_11
REMARK    2  A    between atoms: C_7  and  C_19
REMARK    3  A    between atoms: C_11  and  C_13
REMARK    4  A    between atoms: C_19  and  C_20
REMARK    5  A    between atoms: C_20  and  S_21
REMARK    6  A    between atoms: S_21  and  C_24
REMARK                            x       y       z     vdW  Elec       q    Type
REMARK                         _______ _______ _______ _____ _____    ______ ____
ROOT
ATOM      1  N   UNL     1      31.930  -8.138 -19.186  0.00  0.00    -0.312 N 
ATOM      2  C   UNL     1      31.926  -8.329 -21.378  0.00  0.00    -0.008 C 
ATOM      3  C   UNL     1      31.878  -9.634 -20.842  0.00  0.00    +0.010 C 
ATOM      4  C   UNL     1      31.958  -7.428 -20.357  0.00  0.00    +0.058 C 
ATOM      5  C   UNL     1      31.881  -9.488 -19.452  0.00  0.00    +0.048 C 
ATOM      6  C   UNL     1      31.831 -10.932 -21.387  0.00  0.00    -0.003 C 
ATOM      7  C   UNL     1      31.789 -12.033 -20.526  0.00  0.00    -0.020 C 
ATOM      8  C   UNL     1      31.839 -10.580 -18.579  0.00  0.00    +0.014 C 
ATOM      9  C   UNL     1      31.794 -11.858 -19.143  0.00  0.00    -0.003 C 
ATOM     10  H   UNL     1      31.943  -7.742 -18.285  0.00  0.00    +0.152 HD
ENDROOT
BRANCH   2  11
ATOM     11  C   UNL     1      31.941  -7.981 -22.834  0.00  0.00    +0.007 C 
BRANCH  11  13
ATOM     12  N   UNL     1      31.698  -5.679 -23.783  0.00  0.00    +0.387 N 
ATOM     13  C   UNL     1      32.589  -6.628 -23.102  0.00  0.00    -0.054 C 
ATOM     14  C   UNL     1      33.763  -6.744 -24.078  0.00  0.00    -0.023 C 
ATOM     15  C   UNL     1      33.760  -5.441 -24.869  0.00  0.00    -0.025 C 
ATOM     16  C   UNL     1      32.587  -4.645 -24.319  0.00  0.00    -0.077 C 
ATOM     17  C   UNL     1      30.684  -5.108 -22.904  0.00  0.00    -0.101 C 
ATOM     18  H   UNL     1      31.159  -6.148 -24.511  0.00  0.00    -0.080 HD
ENDBRANCH  11  13
ENDBRANCH   2  11
BRANCH   7  19
ATOM     19  C   UNL     1      31.740 -13.412 -21.097  0.00  0.00    +0.052 C 
BRANCH  19  20
ATOM     20  C   UNL     1      33.066 -14.173 -21.004  0.00  0.00    +0.161 C 
BRANCH  20  21
ATOM     21  S   UNL     1      33.809 -14.432 -22.585  0.00  0.00    +0.009 S 
ATOM     22  O   UNL     1      34.928 -13.518 -22.731  0.00  0.00    -0.169 OA
ATOM     23  O   UNL     1      32.746 -14.455 -23.576  0.00  0.00    -0.169 OA
BRANCH  21  24
ATOM     24  C   UNL     1      34.484 -16.062 -22.476  0.00  0.00    +0.106 C 
ATOM     25  C   UNL     1      34.702 -16.623 -21.229  0.00  0.00    +0.018 C 
ATOM     26  C   UNL     1      34.783 -16.749 -23.641  0.00  0.00    +0.018 C 
ATOM     27  C   UNL     1      35.235 -17.909 -21.144  0.00  0.00    +0.001 C 
ATOM     28  C   UNL     1      35.316 -18.035 -23.555  0.00  0.00    +0.001 C 
ATOM     29  C   UNL     1      35.542 -18.615 -22.308  0.00  0.00    +0.000 C 
ENDBRANCH  21  24
ENDBRANCH  20  21
ENDBRANCH  19  20
ENDBRANCH   7  19
TORSDOF 6
ENDMDL
MODEL 8
REMARK VINA RESULT:     -10.0      8.902     12.348
REMARK  Name = 77993
REMARK  6 active torsions:
REMARK  status: ('A' for Active; 'I' for Inactive)
REMARK    1  A    between atoms: C_2  and  C_11
REMARK    2  A    between atoms: C_7  and  C_19
REMARK    3  A    between atoms: C_11  and  C_13
REMARK    4  A    between atoms: C_19  and  C_20
REMARK    5  A    between atoms: C_20  and  S_21
REMARK    6  A    between atoms: S_21  and  C_24
REMARK                            x       y       z     vdW  Elec       q    Type
REMARK                         _______ _______ _______ _____ _____    ______ ____
ROOT
ATOM      1  N   UNL     1      31.946 -14.051 -19.722  0.00  0.00    -0.312 N 
ATOM      2  C   UNL     1      33.441 -14.154 -21.332  0.00  0.00    -0.008 C 
ATOM      3  C   UNL     1      32.800 -12.901 -21.433  0.00  0.00    +0.010 C 
ATOM      4  C   UNL     1      32.910 -14.845 -20.284  0.00  0.00    +0.058 C 
ATOM      5  C   UNL     1      31.857 -12.858 -20.403  0.00  0.00    +0.048 C 
ATOM      6  C   UNL     1      32.917 -11.790 -22.291  0.00  0.00    -0.003 C 
ATOM      7  C   UNL     1      32.090 -10.681 -22.089  0.00  0.00    -0.020 C 
ATOM      8  C   UNL     1      31.024 -11.756 -20.188  0.00  0.00    +0.014 C 
ATOM      9  C   UNL     1      31.157 -10.665 -21.053  0.00  0.00    -0.003 C 
ATOM     10  H   UNL     1      31.397 -14.297 -18.943  0.00  0.00    +0.152 HD
ENDROOT
BRANCH   2  11
ATOM     11  C   UNL     1      34.532 -14.655 -22.229  0.00  0.00    +0.007 C 
BRANCH  11  13
ATOM     12  N   UNL     1      35.066 -16.515 -23.814  0.00  0.00    +0.387 N 
ATOM     13  C   UNL     1      34.020 -15.634 -23.277  0.00  0.00    -0.054 C 
ATOM     14  C   UNL     1      33.515 -14.913 -24.529  0.00  0.00    -0.023 C 
ATOM     15  C   UNL     1      33.831 -15.850 -25.689  0.00  0.00    -0.025 C 
ATOM     16  C   UNL     1      34.505 -17.056 -25.055  0.00  0.00    -0.077 C 
ATOM     17  C   UNL     1      35.452 -17.579 -22.894  0.00  0.00    -0.101 C 
ATOM     18  H   UNL     1      35.930 -15.996 -23.969  0.00  0.00    -0.080 HD
ENDBRANCH  11  13
ENDBRANCH   2  11
BRANCH   7  19
ATOM     19  C   UNL     1      32.208  -9.500 -22.996  0.00  0.00    +0.052 C 
BRANCH  19  20
ATOM     20  C   UNL     1      31.323  -8.316 -22.596  0.00  0.00    +0.161 C 
BRANCH  20  21
ATOM     21  S   UNL     1      32.255  -6.964 -21.948  0.00  0.00    +0.009 S 
ATOM     22  O   UNL     1      33.478  -7.480 -21.358  0.00  0.00    -0.169 OA
ATOM     23  O   UNL     1      31.354  -6.140 -21.161  0.00  0.00    -0.169 OA
BRANCH  21  24
ATOM     24  C   UNL     1      32.723  -6.042 -23.382  0.00  0.00    +0.106 C 
ATOM     25  C   UNL     1      33.816  -6.454 -24.124  0.00  0.00    +0.018 C 
ATOM     26  C   UNL     1      31.987  -4.924 -23.736  0.00  0.00    +0.018 C 
ATOM     27  C   UNL     1      34.185  -5.726 -25.256  0.00  0.00    +0.001 C 
ATOM     28  C   UNL     1      32.356  -4.196 -24.868  0.00  0.00    +0.001 C 
ATOM     29  C   UNL     1      33.454  -4.597 -25.627  0.00  0.00    +0.000 C 
ENDBRANCH  21  24
ENDBRANCH  20  21
ENDBRANCH  19  20
ENDBRANCH   7  19
TORSDOF 6
ENDMDL
MODEL 9
REMARK VINA RESULT:     -10.0      9.793     14.225
REMARK  Name = 77993
REMARK  6 active torsions:
REMARK  status: ('A' for Active; 'I' for Inactive)
REMARK    1  A    between atoms: C_2  and  C_11
REMARK    2  A    between atoms: C_7  and  C_19
REMARK    3  A    between atoms: C_11  and  C_13
REMARK    4  A    between atoms: C_19  and  C_20
REMARK    5  A    between atoms: C_20  and  S_21
REMARK    6  A    between atoms: S_21  and  C_24
REMARK                            x       y       z     vdW  Elec       q    Type
REMARK                         _______ _______ _______ _____ _____    ______ ____
ROOT
ATOM      1  N   UNL     1      31.998  -8.321 -19.213  0.00  0.00    -0.312 N 
ATOM      2  C   UNL     1      31.887  -8.317 -21.411  0.00  0.00    -0.008 C 
ATOM      3  C   UNL     1      31.853  -9.664 -20.990  0.00  0.00    +0.010 C 
ATOM      4  C   UNL     1      31.975  -7.509 -20.316  0.00  0.00    +0.058 C 
ATOM      5  C   UNL     1      31.924  -9.642 -19.595  0.00  0.00    +0.048 C 
ATOM      6  C   UNL     1      31.768 -10.908 -21.645  0.00  0.00    -0.003 C 
ATOM      7  C   UNL     1      31.759 -12.081 -20.884  0.00  0.00    -0.020 C 
ATOM      8  C   UNL     1      31.916 -10.807 -18.821  0.00  0.00    +0.014 C 
ATOM      9  C   UNL     1      31.832 -12.030 -19.493  0.00  0.00    -0.003 C 
ATOM     10  H   UNL     1      32.058  -8.006 -18.283  0.00  0.00    +0.152 HD
ENDROOT
BRANCH   2  11
ATOM     11  C   UNL     1      31.834  -7.840 -22.829  0.00  0.00    +0.007 C 
BRANCH  11  13
ATOM     12  N   UNL     1      31.288  -5.449 -23.319  0.00  0.00    +0.387 N 
ATOM     13  C   UNL     1      32.344  -6.414 -22.983  0.00  0.00    -0.054 C 
ATOM     14  C   UNL     1      33.308  -6.279 -24.165  0.00  0.00    -0.023 C 
ATOM     15  C   UNL     1      33.080  -4.875 -24.713  0.00  0.00    -0.025 C 
ATOM     16  C   UNL     1      31.998  -4.273 -23.830  0.00  0.00    -0.077 C 
ATOM     17  C   UNL     1      30.439  -5.106 -22.184  0.00  0.00    -0.101 C 
ATOM     18  H   UNL     1      30.642  -5.844 -24.002  0.00  0.00    -0.080 HD
ENDBRANCH  11  13
ENDBRANCH   2  11
BRANCH   7  19
ATOM     19  C   UNL     1      31.671 -13.404 -21.571  0.00  0.00    +0.052 C 
BRANCH  19  20
ATOM     20  C   UNL     1      32.511 -14.504 -20.917  0.00  0.00    +0.161 C 
BRANCH  20  21
ATOM     21  S   UNL     1      34.097 -14.683 -21.672  0.00  0.00    +0.009 S 
ATOM     22  O   UNL     1      34.391 -16.099 -21.810  0.00  0.00    -0.169 OA
ATOM     23  O   UNL     1      35.022 -13.807 -20.974  0.00  0.00    -0.169 OA
BRANCH  21  24
ATOM     24  C   UNL     1      33.868 -14.042 -23.303  0.00  0.00    +0.106 C 
ATOM     25  C   UNL     1      34.154 -12.711 -23.554  0.00  0.00    +0.018 C 
ATOM     26  C   UNL     1      33.406 -14.884 -24.302  0.00  0.00    +0.018 C 
ATOM     27  C   UNL     1      33.973 -12.206 -24.841  0.00  0.00    +0.001 C 
ATOM     28  C   UNL     1      33.226 -14.377 -25.589  0.00  0.00    +0.001 C 
ATOM     29  C   UNL     1      33.509 -13.039 -25.859  0.00  0.00    +0.000 C 
ENDBRANCH  21  24
ENDBRANCH  20  21
ENDBRANCH  19  20
ENDBRANCH   7  19
TORSDOF 6
ENDMDL
