MODEL 1
REMARK VINA RESULT:     -12.6      0.000      0.000
REMARK  Name = 23656870
REMARK  4 active torsions:
REMARK  status: ('A' for Active; 'I' for Inactive)
REMARK    1  A    between atoms: N_2  and  C_25
REMARK    2  A    between atoms: N_3  and  C_14
REMARK    3  A    between atoms: C_10  and  C_32
REMARK    4  A    between atoms: C_16  and  N_21
REMARK                            x       y       z     vdW  Elec       q    Type
REMARK                         _______ _______ _______ _____ _____    ______ ____
ROOT
ATOM      1  N   UNL     1      31.947 -23.714 -14.794  0.00  0.00    -0.123 N 
ATOM      2  N   UNL     1      34.197 -24.248 -14.322  0.00  0.00    -0.274 N 
ATOM      3  N   UNL     1      32.826 -22.573 -18.529  0.00  0.00    -0.238 N 
ATOM      4  N   UNL     1      33.516 -23.410 -16.432  0.00  0.00    -0.295 NA
ATOM      5  N   UNL     1      31.229 -22.881 -16.874  0.00  0.00    -0.314 NA
ATOM      6  N   UNL     1      31.537 -24.070 -13.563  0.00  0.00    -0.170 NA
ATOM      7  C   UNL     1      33.265 -23.788 -15.212  0.00  0.00    +0.279 C 
ATOM      8  C   UNL     1      30.947 -23.270 -15.610  0.00  0.00    +0.219 C 
ATOM      9  C   UNL     1      32.486 -22.958 -17.253  0.00  0.00    +0.207 C 
ATOM     10  C   UNL     1      29.797 -23.341 -14.856  0.00  0.00    +0.203 C 
ATOM     11  C   UNL     1      30.222 -23.839 -13.608  0.00  0.00    +0.116 C 
ATOM     12  H   UNL     1      33.857 -24.497 -13.432  0.00  0.00    +0.156 HD
ATOM     13  H   UNL     1      32.132 -22.695 -19.216  0.00  0.00    +0.166 HD
ENDROOT
BRANCH   3  14
ATOM     14  C   UNL     1      34.032 -22.032 -18.970  0.00  0.00    +0.060 C 
ATOM     15  C   UNL     1      34.045 -21.139 -20.042  0.00  0.00    +0.030 C 
ATOM     16  C   UNL     1      35.252 -20.596 -20.482  0.00  0.00    +0.052 C 
ATOM     17  C   UNL     1      35.226 -22.382 -18.339  0.00  0.00    +0.015 C 
ATOM     18  C   UNL     1      36.446 -20.947 -19.852  0.00  0.00    +0.015 C 
ATOM     19  C   UNL     1      36.433 -21.839 -18.779  0.00  0.00    +0.003 C 
BRANCH  16  21
ATOM     20  O   UNL     1      35.315 -17.586 -20.522  0.00  0.00    -0.275 OA
ATOM     21  N   UNL     1      35.266 -19.705 -21.555  0.00  0.00    -0.284 N 
ATOM     22  C   UNL     1      35.295 -18.304 -21.516  0.00  0.00    +0.227 C 
ATOM     23  C   UNL     1      35.302 -17.706 -22.901  0.00  0.00    +0.095 C 
ATOM     24  H   UNL     1      35.255 -20.110 -22.453  0.00  0.00    +0.155 HD
ENDBRANCH  16  21
ENDBRANCH   3  14
BRANCH   2  25
ATOM     25  C   UNL     1      35.572 -24.410 -14.515  0.00  0.00    +0.051 C 
ATOM     26  C   UNL     1      36.364 -23.311 -14.845  0.00  0.00    +0.015 C 
ATOM     27  C   UNL     1      36.152 -25.671 -14.375  0.00  0.00    +0.015 C 
ATOM     28  C   UNL     1      37.737 -23.472 -15.037  0.00  0.00    +0.001 C 
ATOM     29  C   UNL     1      37.524 -25.832 -14.567  0.00  0.00    +0.001 C 
ATOM     30  C   UNL     1      38.317 -24.733 -14.898  0.00  0.00    +0.000 C 
ENDBRANCH   2  25
BRANCH  10  32
ATOM     31  N   UNL     1      27.414 -22.693 -15.605  0.00  0.00    -0.195 NA
ATOM     32  C   UNL     1      28.486 -22.984 -15.269  0.00  0.00    +0.087 C 
ENDBRANCH  10  32
TORSDOF 4
ENDMDL
MODEL 2
REMARK VINA RESULT:     -12.0      2.234      5.697
REMARK  Name = 23656870
REMARK  4 active torsions:
REMARK  status: ('A' for Active; 'I' for Inactive)
REMARK    1  A    between atoms: N_2  and  C_25
REMARK    2  A    between atoms: N_3  and  C_14
REMARK    3  A    between atoms: C_10  and  C_32
REMARK    4  A    between atoms: C_16  and  N_21
REMARK                            x       y       z     vdW  Elec       q    Type
REMARK                         _______ _______ _______ _____ _____    ______ ____
ROOT
ATOM      1  N   UNL     1      36.380 -25.401 -13.611  0.00  0.00    -0.123 N 
ATOM      2  N   UNL     1      34.040 -25.145 -13.432  0.00  0.00    -0.274 N 
ATOM      3  N   UNL     1      36.607 -22.760 -16.611  0.00  0.00    -0.238 N 
ATOM      4  N   UNL     1      35.320 -23.946 -15.026  0.00  0.00    -0.295 NA
ATOM      5  N   UNL     1      37.688 -24.230 -15.179  0.00  0.00    -0.314 NA
ATOM      6  N   UNL     1      36.422 -26.301 -12.612  0.00  0.00    -0.170 NA
ATOM      7  C   UNL     1      35.211 -24.800 -14.050  0.00  0.00    +0.279 C 
ATOM      8  C   UNL     1      37.596 -25.120 -14.165  0.00  0.00    +0.219 C 
ATOM      9  C   UNL     1      36.568 -23.671 -15.582  0.00  0.00    +0.207 C 
ATOM     10  C   UNL     1      38.501 -25.895 -13.475  0.00  0.00    +0.203 C 
ATOM     11  C   UNL     1      37.722 -26.600 -12.535  0.00  0.00    +0.116 C 
ATOM     12  H   UNL     1      34.114 -25.806 -12.707  0.00  0.00    +0.156 HD
ATOM     13  H   UNL     1      37.436 -22.236 -16.693  0.00  0.00    +0.166 HD
ENDROOT
BRANCH   3  14
ATOM     14  C   UNL     1      35.618 -22.485 -17.553  0.00  0.00    +0.060 C 
ATOM     15  C   UNL     1      35.947 -21.831 -18.740  0.00  0.00    +0.030 C 
ATOM     16  C   UNL     1      34.956 -21.558 -19.683  0.00  0.00    +0.052 C 
ATOM     17  C   UNL     1      34.298 -22.867 -17.309  0.00  0.00    +0.015 C 
ATOM     18  C   UNL     1      33.637 -21.938 -19.440  0.00  0.00    +0.015 C 
ATOM     19  C   UNL     1      33.307 -22.594 -18.253  0.00  0.00    +0.003 C 
BRANCH  16  21
ATOM     20  O   UNL     1      34.503 -18.703 -20.528  0.00  0.00    -0.275 OA
ATOM     21  N   UNL     1      35.285 -20.901 -20.870  0.00  0.00    -0.284 N 
ATOM     22  C   UNL     1      35.048 -19.563 -21.213  0.00  0.00    +0.227 C 
ATOM     23  C   UNL     1      35.558 -19.241 -22.595  0.00  0.00    +0.095 C 
ATOM     24  H   UNL     1      35.741 -21.446 -21.553  0.00  0.00    +0.155 HD
ENDBRANCH  16  21
ENDBRANCH   3  14
BRANCH   2  25
ATOM     25  C   UNL     1      32.751 -24.675 -13.698  0.00  0.00    +0.051 C 
ATOM     26  C   UNL     1      32.567 -23.394 -14.217  0.00  0.00    +0.015 C 
ATOM     27  C   UNL     1      31.646 -25.489 -13.446  0.00  0.00    +0.015 C 
ATOM     28  C   UNL     1      31.281 -22.925 -14.483  0.00  0.00    +0.001 C 
ATOM     29  C   UNL     1      30.359 -25.021 -13.712  0.00  0.00    +0.001 C 
ATOM     30  C   UNL     1      30.176 -23.739 -14.231  0.00  0.00    +0.000 C 
ENDBRANCH   2  25
BRANCH  10  32
ATOM     31  N   UNL     1      41.051 -26.004 -13.859  0.00  0.00    -0.195 NA
ATOM     32  C   UNL     1      39.904 -25.955 -13.686  0.00  0.00    +0.087 C 
ENDBRANCH  10  32
TORSDOF 4
ENDMDL
MODEL 3
REMARK VINA RESULT:     -11.1      1.496      1.723
REMARK  Name = 23656870
REMARK  4 active torsions:
REMARK  status: ('A' for Active; 'I' for Inactive)
REMARK    1  A    between atoms: N_2  and  C_25
REMARK    2  A    between atoms: N_3  and  C_14
REMARK    3  A    between atoms: C_10  and  C_32
REMARK    4  A    between atoms: C_16  and  N_21
REMARK                            x       y       z     vdW  Elec       q    Type
REMARK                         _______ _______ _______ _____ _____    ______ ____
ROOT
ATOM      1  N   UNL     1      32.217 -24.690 -14.026  0.00  0.00    -0.123 N 
ATOM      2  N   UNL     1      34.407 -25.109 -13.253  0.00  0.00    -0.274 N 
ATOM      3  N   UNL     1      33.544 -23.304 -17.540  0.00  0.00    -0.238 N 
ATOM      4  N   UNL     1      33.981 -24.206 -15.401  0.00  0.00    -0.295 NA
ATOM      5  N   UNL     1      31.751 -23.795 -16.152  0.00  0.00    -0.314 NA
ATOM      6  N   UNL     1      31.660 -25.134 -12.885  0.00  0.00    -0.170 NA
ATOM      7  C   UNL     1      33.584 -24.661 -14.249  0.00  0.00    +0.279 C 
ATOM      8  C   UNL     1      31.316 -24.265 -14.961  0.00  0.00    +0.219 C 
ATOM      9  C   UNL     1      33.051 -23.774 -16.345  0.00  0.00    +0.207 C 
ATOM     10  C   UNL     1      30.078 -24.446 -14.387  0.00  0.00    +0.203 C 
ATOM     11  C   UNL     1      30.352 -24.982 -13.112  0.00  0.00    +0.116 C 
ATOM     12  H   UNL     1      33.960 -25.425 -12.434  0.00  0.00    +0.156 HD
ATOM     13  H   UNL     1      32.965 -23.432 -18.325  0.00  0.00    +0.166 HD
ENDROOT
BRANCH   3  14
ATOM     14  C   UNL     1      34.761 -22.668 -17.775  0.00  0.00    +0.060 C 
ATOM     15  C   UNL     1      34.940 -21.912 -18.934  0.00  0.00    +0.030 C 
ATOM     16  C   UNL     1      36.157 -21.274 -19.169  0.00  0.00    +0.052 C 
ATOM     17  C   UNL     1      35.800 -22.785 -16.852  0.00  0.00    +0.015 C 
ATOM     18  C   UNL     1      37.196 -21.392 -18.247  0.00  0.00    +0.015 C 
ATOM     19  C   UNL     1      37.018 -22.147 -17.087  0.00  0.00    +0.003 C 
BRANCH  16  21
ATOM     20  O   UNL     1      37.810 -18.805 -19.658  0.00  0.00    -0.275 OA
ATOM     21  N   UNL     1      36.338 -20.520 -20.329  0.00  0.00    -0.284 N 
ATOM     22  C   UNL     1      37.123 -19.371 -20.501  0.00  0.00    +0.227 C 
ATOM     23  C   UNL     1      37.051 -18.851 -21.915  0.00  0.00    +0.095 C 
ATOM     24  H   UNL     1      35.853 -20.833 -21.127  0.00  0.00    +0.155 HD
ENDBRANCH  16  21
ENDBRANCH   3  14
BRANCH   2  25
ATOM     25  C   UNL     1      35.803 -25.176 -13.248  0.00  0.00    +0.051 C 
ATOM     26  C   UNL     1      36.526 -24.608 -12.201  0.00  0.00    +0.015 C 
ATOM     27  C   UNL     1      36.474 -25.814 -14.293  0.00  0.00    +0.015 C 
ATOM     28  C   UNL     1      37.919 -24.675 -12.195  0.00  0.00    +0.001 C 
ATOM     29  C   UNL     1      37.867 -25.882 -14.288  0.00  0.00    +0.001 C 
ATOM     30  C   UNL     1      38.590 -25.312 -13.240  0.00  0.00    +0.000 C 
ENDBRANCH   2  25
BRANCH  10  32
ATOM     31  N   UNL     1      27.789 -23.906 -15.450  0.00  0.00    -0.195 NA
ATOM     32  C   UNL     1      28.819 -24.149 -14.972  0.00  0.00    +0.087 C 
ENDBRANCH  10  32
TORSDOF 4
ENDMDL
MODEL 4
REMARK VINA RESULT:     -10.1      2.820      7.312
REMARK  Name = 23656870
REMARK  4 active torsions:
REMARK  status: ('A' for Active; 'I' for Inactive)
REMARK    1  A    between atoms: N_2  and  C_25
REMARK    2  A    between atoms: N_3  and  C_14
REMARK    3  A    between atoms: C_10  and  C_32
REMARK    4  A    between atoms: C_16  and  N_21
REMARK                            x       y       z     vdW  Elec       q    Type
REMARK                         _______ _______ _______ _____ _____    ______ ____
ROOT
ATOM      1  N   UNL     1      33.497 -21.795 -18.649  0.00  0.00    -0.123 N 
ATOM      2  N   UNL     1      32.149 -22.938 -17.085  0.00  0.00    -0.274 N 
ATOM      3  N   UNL     1      36.874 -23.156 -16.985  0.00  0.00    -0.238 N 
ATOM      4  N   UNL     1      34.515 -23.052 -17.030  0.00  0.00    -0.295 NA
ATOM      5  N   UNL     1      35.848 -21.882 -18.630  0.00  0.00    -0.314 NA
ATOM      6  N   UNL     1      32.430 -21.279 -19.287  0.00  0.00    -0.170 NA
ATOM      7  C   UNL     1      33.399 -22.627 -17.546  0.00  0.00    +0.279 C 
ATOM      8  C   UNL     1      34.699 -21.430 -19.182  0.00  0.00    +0.219 C 
ATOM      9  C   UNL     1      35.735 -22.670 -17.584  0.00  0.00    +0.207 C 
ATOM     10  C   UNL     1      34.396 -20.614 -20.249  0.00  0.00    +0.203 C 
ATOM     11  C   UNL     1      32.987 -20.558 -20.264  0.00  0.00    +0.116 C 
ATOM     12  H   UNL     1      31.396 -22.541 -17.579  0.00  0.00    +0.156 HD
ATOM     13  H   UNL     1      37.649 -23.287 -17.576  0.00  0.00    +0.166 HD
ENDROOT
BRANCH   3  14
ATOM     14  C   UNL     1      37.065 -23.487 -15.645  0.00  0.00    +0.060 C 
ATOM     15  C   UNL     1      37.978 -24.482 -15.296  0.00  0.00    +0.030 C 
ATOM     16  C   UNL     1      38.170 -24.812 -13.955  0.00  0.00    +0.052 C 
ATOM     17  C   UNL     1      36.344 -22.821 -14.653  0.00  0.00    +0.015 C 
ATOM     18  C   UNL     1      37.450 -24.148 -12.962  0.00  0.00    +0.015 C 
ATOM     19  C   UNL     1      36.537 -23.151 -13.311  0.00  0.00    +0.003 C 
BRANCH  16  21
ATOM     20  O   UNL     1      41.099 -25.093 -14.590  0.00  0.00    -0.275 OA
ATOM     21  N   UNL     1      39.081 -25.809 -13.605  0.00  0.00    -0.284 N 
ATOM     22  C   UNL     1      40.442 -25.891 -13.930  0.00  0.00    +0.227 C 
ATOM     23  C   UNL     1      41.080 -27.132 -13.358  0.00  0.00    +0.095 C 
ATOM     24  H   UNL     1      38.724 -26.548 -13.060  0.00  0.00    +0.155 HD
ENDBRANCH  16  21
ENDBRANCH   3  14
BRANCH   2  25
ATOM     25  C   UNL     1      31.804 -23.750 -16.001  0.00  0.00    +0.051 C 
ATOM     26  C   UNL     1      32.707 -23.940 -14.955  0.00  0.00    +0.015 C 
ATOM     27  C   UNL     1      30.555 -24.372 -15.964  0.00  0.00    +0.015 C 
ATOM     28  C   UNL     1      32.363 -24.749 -13.873  0.00  0.00    +0.001 C 
ATOM     29  C   UNL     1      30.210 -25.181 -14.881  0.00  0.00    +0.001 C 
ATOM     30  C   UNL     1      31.114 -25.371 -13.836  0.00  0.00    +0.000 C 
ENDBRANCH   2  25
BRANCH  10  32
ATOM     31  N   UNL     1      36.071 -19.463 -21.840  0.00  0.00    -0.195 NA
ATOM     32  C   UNL     1      35.318 -19.981 -21.124  0.00  0.00    +0.087 C 
ENDBRANCH  10  32
TORSDOF 4
ENDMDL
MODEL 5
REMARK VINA RESULT:      -9.8      3.120      6.935
REMARK  Name = 23656870
REMARK  4 active torsions:
REMARK  status: ('A' for Active; 'I' for Inactive)
REMARK    1  A    between atoms: N_2  and  C_25
REMARK    2  A    between atoms: N_3  and  C_14
REMARK    3  A    between atoms: C_10  and  C_32
REMARK    4  A    between atoms: C_16  and  N_21
REMARK                            x       y       z     vdW  Elec       q    Type
REMARK                         _______ _______ _______ _____ _____    ______ ____
ROOT
ATOM      1  N   UNL     1      36.111 -23.604 -13.231  0.00  0.00    -0.123 N 
ATOM      2  N   UNL     1      36.423 -22.853 -15.447  0.00  0.00    -0.274 N 
ATOM      3  N   UNL     1      32.287 -24.567 -13.918  0.00  0.00    -0.238 N 
ATOM      4  N   UNL     1      34.349 -23.711 -14.688  0.00  0.00    -0.295 NA
ATOM      5  N   UNL     1      34.069 -24.463 -12.437  0.00  0.00    -0.314 NA
ATOM      6  N   UNL     1      37.380 -23.318 -12.887  0.00  0.00    -0.170 NA
ATOM      7  C   UNL     1      35.594 -23.386 -14.498  0.00  0.00    +0.279 C 
ATOM      8  C   UNL     1      35.362 -24.133 -12.219  0.00  0.00    +0.219 C 
ATOM      9  C   UNL     1      33.596 -24.250 -13.646  0.00  0.00    +0.207 C 
ATOM     10  C   UNL     1      36.206 -24.199 -11.134  0.00  0.00    +0.203 C 
ATOM     11  C   UNL     1      37.431 -23.684 -11.603  0.00  0.00    +0.116 C 
ATOM     12  H   UNL     1      37.343 -22.658 -15.155  0.00  0.00    +0.156 HD
ATOM     13  H   UNL     1      31.908 -25.315 -13.404  0.00  0.00    +0.166 HD
ENDROOT
BRANCH   3  14
ATOM     14  C   UNL     1      31.429 -23.961 -14.834  0.00  0.00    +0.060 C 
ATOM     15  C   UNL     1      30.089 -23.755 -14.505  0.00  0.00    +0.030 C 
ATOM     16  C   UNL     1      29.232 -23.147 -15.420  0.00  0.00    +0.052 C 
ATOM     17  C   UNL     1      31.911 -23.558 -16.080  0.00  0.00    +0.015 C 
ATOM     18  C   UNL     1      29.712 -22.744 -16.666  0.00  0.00    +0.015 C 
ATOM     19  C   UNL     1      31.053 -22.949 -16.996  0.00  0.00    +0.003 C 
BRANCH  16  21
ATOM     20  O   UNL     1      27.016 -21.831 -16.978  0.00  0.00    -0.275 OA
ATOM     21  N   UNL     1      27.891 -22.942 -15.092  0.00  0.00    -0.284 N 
ATOM     22  C   UNL     1      26.897 -22.319 -15.859  0.00  0.00    +0.227 C 
ATOM     23  C   UNL     1      25.569 -22.299 -15.144  0.00  0.00    +0.095 C 
ATOM     24  H   UNL     1      27.606 -23.279 -14.211  0.00  0.00    +0.155 HD
ENDBRANCH  16  21
ENDBRANCH   3  14
BRANCH   2  25
ATOM     25  C   UNL     1      36.130 -22.549 -16.779  0.00  0.00    +0.051 C 
ATOM     26  C   UNL     1      34.913 -22.943 -17.334  0.00  0.00    +0.015 C 
ATOM     27  C   UNL     1      37.055 -21.851 -17.556  0.00  0.00    +0.015 C 
ATOM     28  C   UNL     1      34.619 -22.640 -18.663  0.00  0.00    +0.001 C 
ATOM     29  C   UNL     1      36.762 -21.547 -18.885  0.00  0.00    +0.001 C 
ATOM     30  C   UNL     1      35.545 -21.942 -19.439  0.00  0.00    +0.000 C 
ENDBRANCH   2  25
BRANCH  10  32
ATOM     31  N   UNL     1      35.625 -25.076  -8.777  0.00  0.00    -0.195 NA
ATOM     32  C   UNL     1      35.887 -24.681  -9.837  0.00  0.00    +0.087 C 
ENDBRANCH  10  32
TORSDOF 4
ENDMDL
MODEL 6
REMARK VINA RESULT:      -9.7      2.056      3.117
REMARK  Name = 23656870
REMARK  4 active torsions:
REMARK  status: ('A' for Active; 'I' for Inactive)
REMARK    1  A    between atoms: N_2  and  C_25
REMARK    2  A    between atoms: N_3  and  C_14
REMARK    3  A    between atoms: C_10  and  C_32
REMARK    4  A    between atoms: C_16  and  N_21
REMARK                            x       y       z     vdW  Elec       q    Type
REMARK                         _______ _______ _______ _____ _____    ______ ____
ROOT
ATOM      1  N   UNL     1      31.136 -23.713 -14.657  0.00  0.00    -0.123 N 
ATOM      2  N   UNL     1      33.276 -24.368 -13.907  0.00  0.00    -0.274 N 
ATOM      3  N   UNL     1      32.518 -22.759 -18.291  0.00  0.00    -0.238 N 
ATOM      4  N   UNL     1      32.903 -23.564 -16.104  0.00  0.00    -0.295 NA
ATOM      5  N   UNL     1      30.723 -22.910 -16.830  0.00  0.00    -0.314 NA
ATOM      6  N   UNL     1      30.563 -24.001 -13.474  0.00  0.00    -0.170 NA
ATOM      7  C   UNL     1      32.487 -23.883 -14.913  0.00  0.00    +0.279 C 
ATOM      8  C   UNL     1      30.269 -23.237 -15.598  0.00  0.00    +0.219 C 
ATOM      9  C   UNL     1      32.008 -23.077 -17.055  0.00  0.00    +0.207 C 
ATOM     10  C   UNL     1      29.038 -23.211 -14.984  0.00  0.00    +0.203 C 
ATOM     11  C   UNL     1      29.280 -23.690 -13.681  0.00  0.00    +0.116 C 
ATOM     12  H   UNL     1      32.818 -24.566 -13.058  0.00  0.00    +0.156 HD
ATOM     13  H   UNL     1      31.903 -22.862 -19.052  0.00  0.00    +0.166 HD
ENDROOT
BRANCH   3  14
ATOM     14  C   UNL     1      33.800 -22.309 -18.600  0.00  0.00    +0.060 C 
ATOM     15  C   UNL     1      34.899 -22.787 -17.886  0.00  0.00    +0.030 C 
ATOM     16  C   UNL     1      36.182 -22.338 -18.196  0.00  0.00    +0.052 C 
ATOM     17  C   UNL     1      33.985 -21.381 -19.625  0.00  0.00    +0.015 C 
ATOM     18  C   UNL     1      36.367 -21.410 -19.221  0.00  0.00    +0.015 C 
ATOM     19  C   UNL     1      35.269 -20.932 -19.936  0.00  0.00    +0.003 C 
BRANCH  16  21
ATOM     20  O   UNL     1      37.172 -21.640 -15.440  0.00  0.00    -0.275 OA
ATOM     21  N   UNL     1      37.281 -22.814 -17.481  0.00  0.00    -0.284 N 
ATOM     22  C   UNL     1      37.698 -22.452 -16.193  0.00  0.00    +0.227 C 
ATOM     23  C   UNL     1      38.940 -23.200 -15.776  0.00  0.00    +0.095 C 
ATOM     24  H   UNL     1      37.833 -23.491 -17.937  0.00  0.00    +0.155 HD
ENDBRANCH  16  21
ENDBRANCH   3  14
BRANCH   2  25
ATOM     25  C   UNL     1      34.650 -24.622 -13.930  0.00  0.00    +0.051 C 
ATOM     26  C   UNL     1      35.176 -25.536 -14.843  0.00  0.00    +0.015 C 
ATOM     27  C   UNL     1      35.497 -23.959 -13.041  0.00  0.00    +0.015 C 
ATOM     28  C   UNL     1      36.547 -25.789 -14.867  0.00  0.00    +0.001 C 
ATOM     29  C   UNL     1      36.869 -24.211 -13.066  0.00  0.00    +0.001 C 
ATOM     30  C   UNL     1      37.394 -25.126 -13.978  0.00  0.00    +0.000 C 
ENDBRANCH   2  25
BRANCH  10  32
ATOM     31  N   UNL     1      26.806 -22.442 -16.028  0.00  0.00    -0.195 NA
ATOM     32  C   UNL     1      27.810 -22.788 -15.559  0.00  0.00    +0.087 C 
ENDBRANCH  10  32
TORSDOF 4
ENDMDL
