MODEL 1
REMARK VINA RESULT:     -11.9      0.000      0.000
REMARK  Name = 25195365
REMARK  5 active torsions:
REMARK  status: ('A' for Active; 'I' for Inactive)
REMARK    1  A    between atoms: C_1  and  C_3
REMARK    2  A    between atoms: C_1  and  C_17
REMARK    3  A    between atoms: C_4  and  C_9
REMARK    4  A    between atoms: C_6  and  O_15
REMARK    5  A    between atoms: C_18  and  C_23
REMARK                            x       y       z     vdW  Elec       q    Type
REMARK                         _______ _______ _______ _____ _____    ______ ____
ROOT
ATOM      1  C   UNL     1      35.481 -17.941 -22.492  0.00  0.00    +0.086 C 
ATOM      2  C   UNL     1      35.234 -18.419 -23.935  0.00  0.00    +0.019 C 
ENDROOT
BRANCH   1   3
ATOM      3  C   UNL     1      34.739 -16.691 -22.161  0.00  0.00    -0.007 C 
ATOM      4  C   UNL     1      33.349 -14.353 -21.541  0.00  0.00    +0.034 C 
ATOM      5  C   UNL     1      34.258 -15.873 -23.184  0.00  0.00    +0.034 C 
ATOM      6  C   UNL     1      33.563 -14.704 -22.874  0.00  0.00    +0.138 C 
ATOM      7  C   UNL     1      34.525 -16.339 -20.829  0.00  0.00    -0.003 C 
ATOM      8  C   UNL     1      33.830 -15.170 -20.519  0.00  0.00    +0.003 C 
BRANCH   4   9
ATOM      9  C   UNL     1      32.632 -13.144 -21.198  0.00  0.00    +0.003 C 
ATOM     10  C   UNL     1      32.602 -12.072 -22.091  0.00  0.00    +0.000 C 
ATOM     11  C   UNL     1      31.969 -13.049 -19.974  0.00  0.00    +0.000 C 
ATOM     12  C   UNL     1      31.911 -10.908 -21.761  0.00  0.00    +0.000 C 
ATOM     13  C   UNL     1      31.278 -11.883 -19.644  0.00  0.00    +0.000 C 
ATOM     14  C   UNL     1      31.249 -10.813 -20.537  0.00  0.00    +0.000 C 
ENDBRANCH   4   9
BRANCH   6  15
ATOM     15  O   UNL     1      33.103 -13.924 -23.894  0.00  0.00    -0.471 OA
ATOM     16  C   UNL     1      33.087 -14.505 -25.196  0.00  0.00    +0.252 C 
ENDBRANCH   6  15
ENDBRANCH   1   3
BRANCH   1  17
ATOM     17  C   UNL     1      35.176 -19.044 -21.545  0.00  0.00    -0.087 C 
ATOM     18  C   UNL     1      34.908 -19.929 -20.777  0.00  0.00    -0.076 C 
BRANCH  18  23
ATOM     19  N   UNL     1      35.295 -22.655 -18.288  0.00  0.00    -0.336 NA
ATOM     20  N   UNL     1      32.952 -22.380 -18.780  0.00  0.00    -0.317 NA
ATOM     21  N   UNL     1      32.231 -20.743 -20.327  0.00  0.00    -0.334 N 
ATOM     22  N   UNL     1      33.680 -24.001 -17.247  0.00  0.00    -0.283 N 
ATOM     23  C   UNL     1      34.582 -20.982 -19.866  0.00  0.00    +0.179 C 
ATOM     24  C   UNL     1      35.556 -21.657 -19.158  0.00  0.00    +0.120 C 
ATOM     25  C   UNL     1      33.285 -21.391 -19.634  0.00  0.00    +0.186 C 
ATOM     26  C   UNL     1      37.002 -21.311 -19.318  0.00  0.00    +0.064 C 
ATOM     27  C   UNL     1      33.991 -22.961 -18.150  0.00  0.00    +0.196 C 
ATOM     28  H   UNL     1      31.299 -21.020 -20.175  0.00  0.00    +0.144 HD
ATOM     29  H   UNL     1      32.432 -20.015 -20.959  0.00  0.00    +0.144 HD
ATOM     30  H   UNL     1      34.400 -24.460 -16.759  0.00  0.00    +0.156 HD
ATOM     31  H   UNL     1      32.742 -24.266 -17.106  0.00  0.00    +0.156 HD
ENDBRANCH  18  23
ENDBRANCH   1  17
TORSDOF 5
ENDMDL
MODEL 2
REMARK VINA RESULT:     -11.7      4.612      7.337
REMARK  Name = 25195365
REMARK  5 active torsions:
REMARK  status: ('A' for Active; 'I' for Inactive)
REMARK    1  A    between atoms: C_1  and  C_3
REMARK    2  A    between atoms: C_1  and  C_17
REMARK    3  A    between atoms: C_4  and  C_9
REMARK    4  A    between atoms: C_6  and  O_15
REMARK    5  A    between atoms: C_18  and  C_23
REMARK                            x       y       z     vdW  Elec       q    Type
REMARK                         _______ _______ _______ _____ _____    ______ ____
ROOT
ATOM      1  C   UNL     1      33.027 -23.418 -17.401  0.00  0.00    +0.086 C 
ATOM      2  C   UNL     1      31.629 -23.123 -16.825  0.00  0.00    +0.019 C 
ENDROOT
BRANCH   1   3
ATOM      3  C   UNL     1      33.457 -22.416 -18.418  0.00  0.00    -0.007 C 
ATOM      4  C   UNL     1      34.259 -20.541 -20.322  0.00  0.00    +0.034 C 
ATOM      5  C   UNL     1      34.811 -22.252 -18.709  0.00  0.00    +0.034 C 
ATOM      6  C   UNL     1      35.213 -21.315 -19.660  0.00  0.00    +0.138 C 
ATOM      7  C   UNL     1      32.504 -21.641 -19.080  0.00  0.00    -0.003 C 
ATOM      8  C   UNL     1      32.904 -20.704 -20.032  0.00  0.00    +0.003 C 
BRANCH   4   9
ATOM      9  C   UNL     1      34.653 -19.562 -21.312  0.00  0.00    +0.003 C 
ATOM     10  C   UNL     1      34.686 -19.910 -22.663  0.00  0.00    +0.000 C 
ATOM     11  C   UNL     1      35.001 -18.270 -20.917  0.00  0.00    +0.000 C 
ATOM     12  C   UNL     1      35.066 -18.967 -23.617  0.00  0.00    +0.000 C 
ATOM     13  C   UNL     1      35.381 -17.327 -21.872  0.00  0.00    +0.000 C 
ATOM     14  C   UNL     1      35.413 -17.676 -23.221  0.00  0.00    +0.000 C 
ENDBRANCH   4   9
BRANCH   6  15
ATOM     15  O   UNL     1      36.543 -21.177 -19.926  0.00  0.00    -0.471 OA
ATOM     16  C   UNL     1      37.361 -20.658 -18.879  0.00  0.00    +0.252 C 
ENDBRANCH   6  15
ENDBRANCH   1   3
BRANCH   1  17
ATOM     17  C   UNL     1      34.004 -23.546 -16.289  0.00  0.00    -0.087 C 
ATOM     18  C   UNL     1      34.779 -23.661 -15.378  0.00  0.00    -0.076 C 
BRANCH  18  23
ATOM     19  N   UNL     1      37.901 -23.469 -13.380  0.00  0.00    -0.336 NA
ATOM     20  N   UNL     1      36.197 -24.542 -12.056  0.00  0.00    -0.317 NA
ATOM     21  N   UNL     1      34.027 -24.882 -12.933  0.00  0.00    -0.334 N 
ATOM     22  N   UNL     1      38.354 -24.199 -11.196  0.00  0.00    -0.283 N 
ATOM     23  C   UNL     1      35.698 -23.804 -14.291  0.00  0.00    +0.179 C 
ATOM     24  C   UNL     1      37.000 -23.355 -14.378  0.00  0.00    +0.120 C 
ATOM     25  C   UNL     1      35.349 -24.395 -13.095  0.00  0.00    +0.186 C 
ATOM     26  C   UNL     1      37.505 -22.696 -15.621  0.00  0.00    +0.064 C 
ATOM     27  C   UNL     1      37.438 -24.063 -12.263  0.00  0.00    +0.196 C 
ATOM     28  H   UNL     1      33.759 -25.307 -12.086  0.00  0.00    +0.144 HD
ATOM     29  H   UNL     1      33.377 -24.794 -13.668  0.00  0.00    +0.144 HD
ATOM     30  H   UNL     1      39.274 -23.867 -11.293  0.00  0.00    +0.156 HD
ATOM     31  H   UNL     1      38.070 -24.626 -10.356  0.00  0.00    +0.156 HD
ENDBRANCH  18  23
ENDBRANCH   1  17
TORSDOF 5
ENDMDL
MODEL 3
REMARK VINA RESULT:     -11.3      0.556      1.621
REMARK  Name = 25195365
REMARK  5 active torsions:
REMARK  status: ('A' for Active; 'I' for Inactive)
REMARK    1  A    between atoms: C_1  and  C_3
REMARK    2  A    between atoms: C_1  and  C_17
REMARK    3  A    between atoms: C_4  and  C_9
REMARK    4  A    between atoms: C_6  and  O_15
REMARK    5  A    between atoms: C_18  and  C_23
REMARK                            x       y       z     vdW  Elec       q    Type
REMARK                         _______ _______ _______ _____ _____    ______ ____
ROOT
ATOM      1  C   UNL     1      35.513 -17.893 -22.505  0.00  0.00    +0.086 C 
ATOM      2  C   UNL     1      35.249 -18.375 -23.944  0.00  0.00    +0.019 C 
ENDROOT
BRANCH   1   3
ATOM      3  C   UNL     1      34.758 -16.654 -22.162  0.00  0.00    -0.007 C 
ATOM      4  C   UNL     1      33.345 -14.336 -21.518  0.00  0.00    +0.034 C 
ATOM      5  C   UNL     1      34.252 -15.841 -23.176  0.00  0.00    +0.034 C 
ATOM      6  C   UNL     1      33.546 -14.682 -22.855  0.00  0.00    +0.138 C 
ATOM      7  C   UNL     1      34.557 -16.307 -20.826  0.00  0.00    -0.003 C 
ATOM      8  C   UNL     1      33.850 -15.149 -20.504  0.00  0.00    +0.003 C 
BRANCH   4   9
ATOM      9  C   UNL     1      32.616 -13.138 -21.163  0.00  0.00    +0.003 C 
ATOM     10  C   UNL     1      32.536 -12.076 -22.064  0.00  0.00    +0.000 C 
ATOM     11  C   UNL     1      31.991 -13.044 -19.919  0.00  0.00    +0.000 C 
ATOM     12  C   UNL     1      31.833 -10.922 -21.722  0.00  0.00    +0.000 C 
ATOM     13  C   UNL     1      31.288 -11.889 -19.577  0.00  0.00    +0.000 C 
ATOM     14  C   UNL     1      31.209 -10.828 -20.479  0.00  0.00    +0.000 C 
ENDBRANCH   4   9
BRANCH   6  15
ATOM     15  O   UNL     1      33.062 -13.906 -23.866  0.00  0.00    -0.471 OA
ATOM     16  C   UNL     1      33.128 -14.446 -25.184  0.00  0.00    +0.252 C 
ENDBRANCH   6  15
ENDBRANCH   1   3
BRANCH   1  17
ATOM     17  C   UNL     1      35.240 -19.001 -21.553  0.00  0.00    -0.087 C 
ATOM     18  C   UNL     1      34.997 -19.889 -20.781  0.00  0.00    -0.076 C 
BRANCH  18  23
ATOM     19  N   UNL     1      33.080 -22.334 -18.751  0.00  0.00    -0.336 NA
ATOM     20  N   UNL     1      35.431 -22.639 -18.318  0.00  0.00    -0.317 NA
ATOM     21  N   UNL     1      37.040 -21.287 -19.402  0.00  0.00    -0.334 N 
ATOM     22  N   UNL     1      33.824 -23.976 -17.249  0.00  0.00    -0.283 N 
ATOM     23  C   UNL     1      34.702 -20.947 -19.865  0.00  0.00    +0.179 C 
ATOM     24  C   UNL     1      33.405 -21.343 -19.606  0.00  0.00    +0.120 C 
ATOM     25  C   UNL     1      35.683 -21.638 -19.186  0.00  0.00    +0.186 C 
ATOM     26  C   UNL     1      32.249 -20.674 -20.278  0.00  0.00    +0.064 C 
ATOM     27  C   UNL     1      34.127 -22.931 -18.151  0.00  0.00    +0.196 C 
ATOM     28  H   UNL     1      37.755 -21.769 -18.926  0.00  0.00    +0.144 HD
ATOM     29  H   UNL     1      37.267 -20.562 -20.028  0.00  0.00    +0.144 HD
ATOM     30  H   UNL     1      32.888 -24.231 -17.088  0.00  0.00    +0.156 HD
ATOM     31  H   UNL     1      34.551 -24.448 -16.781  0.00  0.00    +0.156 HD
ENDBRANCH  18  23
ENDBRANCH   1  17
TORSDOF 5
ENDMDL
MODEL 4
REMARK VINA RESULT:     -10.6      1.248      2.049
REMARK  Name = 25195365
REMARK  5 active torsions:
REMARK  status: ('A' for Active; 'I' for Inactive)
REMARK    1  A    between atoms: C_1  and  C_3
REMARK    2  A    between atoms: C_1  and  C_17
REMARK    3  A    between atoms: C_4  and  C_9
REMARK    4  A    between atoms: C_6  and  O_15
REMARK    5  A    between atoms: C_18  and  C_23
REMARK                            x       y       z     vdW  Elec       q    Type
REMARK                         _______ _______ _______ _____ _____    ______ ____
ROOT
ATOM      1  C   UNL     1      35.496 -18.797 -23.192  0.00  0.00    +0.086 C 
ATOM      2  C   UNL     1      35.023 -19.515 -24.471  0.00  0.00    +0.019 C 
ENDROOT
BRANCH   1   3
ATOM      3  C   UNL     1      34.979 -17.403 -23.087  0.00  0.00    -0.007 C 
ATOM      4  C   UNL     1      34.013 -14.793 -22.891  0.00  0.00    +0.034 C 
ATOM      5  C   UNL     1      34.801 -16.817 -21.833  0.00  0.00    +0.034 C 
ATOM      6  C   UNL     1      34.317 -15.512 -21.735  0.00  0.00    +0.138 C 
ATOM      7  C   UNL     1      34.674 -16.683 -24.242  0.00  0.00    -0.003 C 
ATOM      8  C   UNL     1      34.191 -15.378 -24.144  0.00  0.00    +0.003 C 
BRANCH   4   9
ATOM      9  C   UNL     1      33.509 -13.439 -22.812  0.00  0.00    +0.003 C 
ATOM     10  C   UNL     1      34.099 -12.429 -23.574  0.00  0.00    +0.000 C 
ATOM     11  C   UNL     1      32.434 -13.142 -21.974  0.00  0.00    +0.000 C 
ATOM     12  C   UNL     1      33.614 -11.124 -23.498  0.00  0.00    +0.000 C 
ATOM     13  C   UNL     1      31.949 -11.836 -21.898  0.00  0.00    +0.000 C 
ATOM     14  C   UNL     1      32.539 -10.828 -22.660  0.00  0.00    +0.000 C 
ENDBRANCH   4   9
BRANCH   6  15
ATOM     15  O   UNL     1      34.153 -14.964 -20.497  0.00  0.00    -0.471 OA
ATOM     16  C   UNL     1      33.014 -15.384 -19.749  0.00  0.00    +0.252 C 
ENDBRANCH   6  15
ENDBRANCH   1   3
BRANCH   1  17
ATOM     17  C   UNL     1      35.146 -19.619 -22.004  0.00  0.00    -0.087 C 
ATOM     18  C   UNL     1      34.872 -20.302 -21.054  0.00  0.00    -0.076 C 
BRANCH  18  23
ATOM     19  N   UNL     1      35.274 -22.508 -18.097  0.00  0.00    -0.336 NA
ATOM     20  N   UNL     1      32.924 -22.113 -18.457  0.00  0.00    -0.317 NA
ATOM     21  N   UNL     1      32.192 -20.751 -20.247  0.00  0.00    -0.334 N 
ATOM     22  N   UNL     1      33.662 -23.462 -16.684  0.00  0.00    -0.283 N 
ATOM     23  C   UNL     1      34.551 -21.118 -19.925  0.00  0.00    +0.179 C 
ATOM     24  C   UNL     1      35.530 -21.730 -19.169  0.00  0.00    +0.120 C 
ATOM     25  C   UNL     1      33.253 -21.348 -19.518  0.00  0.00    +0.186 C 
ATOM     26  C   UNL     1      36.977 -21.562 -19.505  0.00  0.00    +0.064 C 
ATOM     27  C   UNL     1      33.969 -22.654 -17.801  0.00  0.00    +0.196 C 
ATOM     28  H   UNL     1      31.260 -20.904 -19.972  0.00  0.00    +0.144 HD
ATOM     29  H   UNL     1      32.390 -20.186 -21.028  0.00  0.00    +0.144 HD
ATOM     30  H   UNL     1      34.386 -23.882 -16.168  0.00  0.00    +0.156 HD
ATOM     31  H   UNL     1      32.724 -23.603 -16.421  0.00  0.00    +0.156 HD
ENDBRANCH  18  23
ENDBRANCH   1  17
TORSDOF 5
ENDMDL
MODEL 5
REMARK VINA RESULT:     -10.5      4.575      7.955
REMARK  Name = 25195365
REMARK  5 active torsions:
REMARK  status: ('A' for Active; 'I' for Inactive)
REMARK    1  A    between atoms: C_1  and  C_3
REMARK    2  A    between atoms: C_1  and  C_17
REMARK    3  A    between atoms: C_4  and  C_9
REMARK    4  A    between atoms: C_6  and  O_15
REMARK    5  A    between atoms: C_18  and  C_23
REMARK                            x       y       z     vdW  Elec       q    Type
REMARK                         _______ _______ _______ _____ _____    ______ ____
ROOT
ATOM      1  C   UNL     1      31.281 -10.972 -20.318  0.00  0.00    +0.086 C 
ATOM      2  C   UNL     1      31.529 -10.743 -18.815  0.00  0.00    +0.019 C 
ENDROOT
BRANCH   1   3
ATOM      3  C   UNL     1      31.550  -9.758 -21.140  0.00  0.00    -0.007 C 
ATOM      4  C   UNL     1      32.053  -7.486 -22.679  0.00  0.00    +0.034 C 
ATOM      5  C   UNL     1      31.981  -8.581 -20.527  0.00  0.00    +0.034 C 
ATOM      6  C   UNL     1      32.232  -7.445 -21.296  0.00  0.00    +0.138 C 
ATOM      7  C   UNL     1      31.371  -9.798 -22.523  0.00  0.00    -0.003 C 
ATOM      8  C   UNL     1      31.622  -8.663 -23.292  0.00  0.00    +0.003 C 
BRANCH   4   9
ATOM      9  C   UNL     1      32.307  -6.319 -23.496  0.00  0.00    +0.003 C 
ATOM     10  C   UNL     1      33.368  -6.320 -24.403  0.00  0.00    +0.000 C 
ATOM     11  C   UNL     1      31.492  -5.193 -23.378  0.00  0.00    +0.000 C 
ATOM     12  C   UNL     1      33.613  -5.195 -25.190  0.00  0.00    +0.000 C 
ATOM     13  C   UNL     1      31.738  -4.068 -24.165  0.00  0.00    +0.000 C 
ATOM     14  C   UNL     1      32.798  -4.070 -25.071  0.00  0.00    +0.000 C 
ENDBRANCH   4   9
BRANCH   6  15
ATOM     15  O   UNL     1      32.654  -6.309 -20.672  0.00  0.00    -0.471 OA
ATOM     16  C   UNL     1      32.757  -6.352 -19.250  0.00  0.00    +0.252 C 
ENDBRANCH   6  15
ENDBRANCH   1   3
BRANCH   1  17
ATOM     17  C   UNL     1      32.066 -12.148 -20.777  0.00  0.00    -0.087 C 
ATOM     18  C   UNL     1      32.717 -13.084 -21.155  0.00  0.00    -0.076 C 
BRANCH  18  23
ATOM     19  N   UNL     1      34.208 -16.478 -21.328  0.00  0.00    -0.336 NA
ATOM     20  N   UNL     1      35.048 -15.167 -23.168  0.00  0.00    -0.317 NA
ATOM     21  N   UNL     1      34.362 -12.922 -23.457  0.00  0.00    -0.334 N 
ATOM     22  N   UNL     1      35.721 -17.396 -22.870  0.00  0.00    -0.283 N 
ATOM     23  C   UNL     1      33.497 -14.195 -21.605  0.00  0.00    +0.179 C 
ATOM     24  C   UNL     1      33.489 -15.404 -20.941  0.00  0.00    +0.120 C 
ATOM     25  C   UNL     1      34.303 -14.134 -22.723  0.00  0.00    +0.186 C 
ATOM     26  C   UNL     1      32.658 -15.602 -19.714  0.00  0.00    +0.064 C 
ATOM     27  C   UNL     1      34.954 -16.292 -22.434  0.00  0.00    +0.196 C 
ATOM     28  H   UNL     1      34.932 -12.859 -24.257  0.00  0.00    +0.144 HD
ATOM     29  H   UNL     1      33.834 -12.144 -23.165  0.00  0.00    +0.144 HD
ATOM     30  H   UNL     1      35.690 -18.243 -22.372  0.00  0.00    +0.156 HD
ATOM     31  H   UNL     1      36.284 -17.316 -23.673  0.00  0.00    +0.156 HD
ENDBRANCH  18  23
ENDBRANCH   1  17
TORSDOF 5
ENDMDL
MODEL 6
REMARK VINA RESULT:     -10.4      4.977      9.335
REMARK  Name = 25195365
REMARK  5 active torsions:
REMARK  status: ('A' for Active; 'I' for Inactive)
REMARK    1  A    between atoms: C_1  and  C_3
REMARK    2  A    between atoms: C_1  and  C_17
REMARK    3  A    between atoms: C_4  and  C_9
REMARK    4  A    between atoms: C_6  and  O_15
REMARK    5  A    between atoms: C_18  and  C_23
REMARK                            x       y       z     vdW  Elec       q    Type
REMARK                         _______ _______ _______ _____ _____    ______ ____
ROOT
ATOM      1  C   UNL     1      33.422 -14.463 -25.165  0.00  0.00    +0.086 C 
ATOM      2  C   UNL     1      34.144 -14.398 -26.525  0.00  0.00    +0.019 C 
ENDROOT
BRANCH   1   3
ATOM      3  C   UNL     1      33.963 -15.530 -24.275  0.00  0.00    -0.007 C 
ATOM      4  C   UNL     1      34.974 -17.527 -22.610  0.00  0.00    +0.034 C 
ATOM      5  C   UNL     1      34.049 -15.314 -22.900  0.00  0.00    +0.034 C 
ATOM      6  C   UNL     1      34.555 -16.312 -22.067  0.00  0.00    +0.138 C 
ATOM      7  C   UNL     1      34.383 -16.744 -24.817  0.00  0.00    -0.003 C 
ATOM      8  C   UNL     1      34.888 -17.743 -23.985  0.00  0.00    +0.003 C 
BRANCH   4   9
ATOM      9  C   UNL     1      35.503 -18.575 -21.764  0.00  0.00    +0.003 C 
ATOM     10  C   UNL     1      36.861 -18.595 -21.444  0.00  0.00    +0.000 C 
ATOM     11  C   UNL     1      34.655 -19.566 -21.269  0.00  0.00    +0.000 C 
ATOM     12  C   UNL     1      37.370 -19.605 -20.628  0.00  0.00    +0.000 C 
ATOM     13  C   UNL     1      35.166 -20.577 -20.453  0.00  0.00    +0.000 C 
ATOM     14  C   UNL     1      36.523 -20.595 -20.133  0.00  0.00    +0.000 C 
ENDBRANCH   4   9
BRANCH   6  15
ATOM     15  O   UNL     1      34.627 -16.075 -20.726  0.00  0.00    -0.471 OA
ATOM     16  C   UNL     1      33.659 -15.184 -20.174  0.00  0.00    +0.252 C 
ENDBRANCH   6  15
ENDBRANCH   1   3
BRANCH   1  17
ATOM     17  C   UNL     1      33.453 -13.124 -24.523  0.00  0.00    -0.087 C 
ATOM     18  C   UNL     1      33.454 -12.039 -24.006  0.00  0.00    -0.076 C 
BRANCH  18  23
ATOM     19  N   UNL     1      34.398  -8.546 -23.179  0.00  0.00    -0.336 NA
ATOM     20  N   UNL     1      32.515  -9.185 -21.817  0.00  0.00    -0.317 NA
ATOM     21  N   UNL     1      31.569 -11.344 -22.007  0.00  0.00    -0.334 N 
ATOM     22  N   UNL     1      33.462  -7.044 -21.638  0.00  0.00    -0.283 N 
ATOM     23  C   UNL     1      33.450 -10.749 -23.388  0.00  0.00    +0.179 C 
ATOM     24  C   UNL     1      34.364  -9.776 -23.734  0.00  0.00    +0.120 C 
ATOM     25  C   UNL     1      32.540 -10.394 -22.415  0.00  0.00    +0.186 C 
ATOM     26  C   UNL     1      35.405 -10.034 -24.776  0.00  0.00    +0.064 C 
ATOM     27  C   UNL     1      33.458  -8.322 -22.242  0.00  0.00    +0.196 C 
ATOM     28  H   UNL     1      30.912 -11.109 -21.313  0.00  0.00    +0.144 HD
ATOM     29  H   UNL     1      31.554 -12.238 -22.418  0.00  0.00    +0.144 HD
ATOM     30  H   UNL     1      34.129  -6.375 -21.910  0.00  0.00    +0.156 HD
ATOM     31  H   UNL     1      32.796  -6.825 -20.947  0.00  0.00    +0.156 HD
ENDBRANCH  18  23
ENDBRANCH   1  17
TORSDOF 5
ENDMDL
MODEL 7
REMARK VINA RESULT:     -10.4      5.332      9.911
REMARK  Name = 25195365
REMARK  5 active torsions:
REMARK  status: ('A' for Active; 'I' for Inactive)
REMARK    1  A    between atoms: C_1  and  C_3
REMARK    2  A    between atoms: C_1  and  C_17
REMARK    3  A    between atoms: C_4  and  C_9
REMARK    4  A    between atoms: C_6  and  O_15
REMARK    5  A    between atoms: C_18  and  C_23
REMARK                            x       y       z     vdW  Elec       q    Type
REMARK                         _______ _______ _______ _____ _____    ______ ____
ROOT
ATOM      1  C   UNL     1      36.454 -22.359 -17.624  0.00  0.00    +0.086 C 
ATOM      2  C   UNL     1      37.384 -21.658 -16.615  0.00  0.00    +0.019 C 
ENDROOT
BRANCH   1   3
ATOM      3  C   UNL     1      35.176 -22.820 -17.009  0.00  0.00    -0.007 C 
ATOM      4  C   UNL     1      32.785 -23.682 -15.859  0.00  0.00    +0.034 C 
ATOM      5  C   UNL     1      35.132 -23.148 -15.654  0.00  0.00    +0.034 C 
ATOM      6  C   UNL     1      33.937 -23.580 -15.078  0.00  0.00    +0.138 C 
ATOM      7  C   UNL     1      34.024 -22.923 -17.788  0.00  0.00    -0.003 C 
ATOM      8  C   UNL     1      32.829 -23.354 -17.214  0.00  0.00    +0.003 C 
BRANCH   4   9
ATOM      9  C   UNL     1      31.535 -24.128 -15.283  0.00  0.00    +0.003 C 
ATOM     10  C   UNL     1      30.350 -23.452 -15.578  0.00  0.00    +0.000 C 
ATOM     11  C   UNL     1      31.513 -25.234 -14.433  0.00  0.00    +0.000 C 
ATOM     12  C   UNL     1      29.145 -23.882 -15.023  0.00  0.00    +0.000 C 
ATOM     13  C   UNL     1      30.308 -25.664 -13.878  0.00  0.00    +0.000 C 
ATOM     14  C   UNL     1      29.125 -24.988 -14.173  0.00  0.00    +0.000 C 
ENDBRANCH   4   9
BRANCH   6  15
ATOM     15  O   UNL     1      33.922 -23.892 -13.752  0.00  0.00    -0.471 OA
ATOM     16  C   UNL     1      35.064 -24.573 -13.234  0.00  0.00    +0.252 C 
ENDBRANCH   6  15
ENDBRANCH   1   3
BRANCH   1  17
ATOM     17  C   UNL     1      36.227 -21.468 -18.792  0.00  0.00    -0.087 C 
ATOM     18  C   UNL     1      36.023 -20.744 -19.728  0.00  0.00    -0.076 C 
BRANCH  18  23
ATOM     19  N   UNL     1      34.240 -18.952 -22.446  0.00  0.00    -0.336 NA
ATOM     20  N   UNL     1      36.557 -18.289 -22.468  0.00  0.00    -0.317 NA
ATOM     21  N   UNL     1      38.082 -19.187 -20.899  0.00  0.00    -0.334 N 
ATOM     22  N   UNL     1      35.035 -17.405 -24.021  0.00  0.00    -0.283 N 
ATOM     23  C   UNL     1      35.775 -19.878 -20.839  0.00  0.00    +0.179 C 
ATOM     24  C   UNL     1      34.520 -19.755 -21.399  0.00  0.00    +0.120 C 
ATOM     25  C   UNL     1      36.765 -19.113 -21.421  0.00  0.00    +0.186 C 
ATOM     26  C   UNL     1      33.360 -20.531 -20.862  0.00  0.00    +0.064 C 
ATOM     27  C   UNL     1      35.290 -18.257 -22.924  0.00  0.00    +0.196 C 
ATOM     28  H   UNL     1      38.801 -18.649 -21.301  0.00  0.00    +0.144 HD
ATOM     29  H   UNL     1      38.275 -19.777 -20.135  0.00  0.00    +0.144 HD
ATOM     30  H   UNL     1      34.127 -17.342 -24.394  0.00  0.00    +0.156 HD
ATOM     31  H   UNL     1      35.766 -16.872 -24.411  0.00  0.00    +0.156 HD
ENDBRANCH  18  23
ENDBRANCH   1  17
TORSDOF 5
ENDMDL
MODEL 8
REMARK VINA RESULT:     -10.4      1.516      2.674
REMARK  Name = 25195365
REMARK  5 active torsions:
REMARK  status: ('A' for Active; 'I' for Inactive)
REMARK    1  A    between atoms: C_1  and  C_3
REMARK    2  A    between atoms: C_1  and  C_17
REMARK    3  A    between atoms: C_4  and  C_9
REMARK    4  A    between atoms: C_6  and  O_15
REMARK    5  A    between atoms: C_18  and  C_23
REMARK                            x       y       z     vdW  Elec       q    Type
REMARK                         _______ _______ _______ _____ _____    ______ ____
ROOT
ATOM      1  C   UNL     1      34.974 -17.489 -23.897  0.00  0.00    +0.086 C 
ATOM      2  C   UNL     1      34.228 -18.147 -25.074  0.00  0.00    +0.019 C 
ENDROOT
BRANCH   1   3
ATOM      3  C   UNL     1      34.369 -16.191 -23.482  0.00  0.00    -0.007 C 
ATOM      4  C   UNL     1      33.238 -13.761 -22.708  0.00  0.00    +0.034 C 
ATOM      5  C   UNL     1      34.260 -15.872 -22.129  0.00  0.00    +0.034 C 
ATOM      6  C   UNL     1      33.693 -14.657 -21.741  0.00  0.00    +0.138 C 
ATOM      7  C   UNL     1      33.912 -15.294 -24.448  0.00  0.00    -0.003 C 
ATOM      8  C   UNL     1      33.347 -14.080 -24.062  0.00  0.00    +0.003 C 
BRANCH   4   9
ATOM      9  C   UNL     1      32.647 -12.496 -22.328  0.00  0.00    +0.003 C 
ATOM     10  C   UNL     1      33.138 -11.307 -22.867  0.00  0.00    +0.000 C 
ATOM     11  C   UNL     1      31.586 -12.465 -21.423  0.00  0.00    +0.000 C 
ATOM     12  C   UNL     1      32.568 -10.088 -22.502  0.00  0.00    +0.000 C 
ATOM     13  C   UNL     1      31.016 -11.246 -21.057  0.00  0.00    +0.000 C 
ATOM     14  C   UNL     1      31.508 -10.057 -21.597  0.00  0.00    +0.000 C 
ENDBRANCH   4   9
BRANCH   6  15
ATOM     15  O   UNL     1      33.600 -14.371 -20.411  0.00  0.00    -0.471 OA
ATOM     16  C   UNL     1      32.610 -15.076 -19.666  0.00  0.00    +0.252 C 
ENDBRANCH   6  15
ENDBRANCH   1   3
BRANCH   1  17
ATOM     17  C   UNL     1      35.068 -18.452 -22.769  0.00  0.00    -0.087 C 
ATOM     18  C   UNL     1      35.157 -19.215 -21.845  0.00  0.00    -0.076 C 
BRANCH  18  23
ATOM     19  N   UNL     1      34.207 -21.613 -19.176  0.00  0.00    -0.336 NA
ATOM     20  N   UNL     1      36.589 -21.258 -19.089  0.00  0.00    -0.317 NA
ATOM     21  N   UNL     1      37.644 -19.793 -20.617  0.00  0.00    -0.334 N 
ATOM     22  N   UNL     1      35.530 -22.710 -17.579  0.00  0.00    -0.283 N 
ATOM     23  C   UNL     1      35.261 -20.118 -20.741  0.00  0.00    +0.179 C 
ATOM     24  C   UNL     1      34.156 -20.755 -20.216  0.00  0.00    +0.120 C 
ATOM     25  C   UNL     1      36.464 -20.411 -20.131  0.00  0.00    +0.186 C 
ATOM     26  C   UNL     1      32.792 -20.523 -20.785  0.00  0.00    +0.064 C 
ATOM     27  C   UNL     1      35.438 -21.816 -18.669  0.00  0.00    +0.196 C 
ATOM     28  H   UNL     1      38.512 -19.990 -20.195  0.00  0.00    +0.144 HD
ATOM     29  H   UNL     1      37.596 -19.168 -21.376  0.00  0.00    +0.144 HD
ATOM     30  H   UNL     1      34.721 -23.147 -17.231  0.00  0.00    +0.156 HD
ATOM     31  H   UNL     1      36.406 -22.897 -17.169  0.00  0.00    +0.156 HD
ENDBRANCH  18  23
ENDBRANCH   1  17
TORSDOF 5
ENDMDL
MODEL 9
REMARK VINA RESULT:     -10.1      4.513      8.030
REMARK  Name = 25195365
REMARK  5 active torsions:
REMARK  status: ('A' for Active; 'I' for Inactive)
REMARK    1  A    between atoms: C_1  and  C_3
REMARK    2  A    between atoms: C_1  and  C_17
REMARK    3  A    between atoms: C_4  and  C_9
REMARK    4  A    between atoms: C_6  and  O_15
REMARK    5  A    between atoms: C_18  and  C_23
REMARK                            x       y       z     vdW  Elec       q    Type
REMARK                         _______ _______ _______ _____ _____    ______ ____
ROOT
ATOM      1  C   UNL     1      31.363 -10.812 -20.669  0.00  0.00    +0.086 C 
ATOM      2  C   UNL     1      31.540 -10.546 -19.161  0.00  0.00    +0.019 C 
ENDROOT
BRANCH   1   3
ATOM      3  C   UNL     1      31.730  -9.637 -21.510  0.00  0.00    -0.007 C 
ATOM      4  C   UNL     1      32.418  -7.440 -23.085  0.00  0.00    +0.034 C 
ATOM      5  C   UNL     1      31.562  -8.344 -21.015  0.00  0.00    +0.034 C 
ATOM      6  C   UNL     1      31.906  -7.245 -21.802  0.00  0.00    +0.138 C 
ATOM      7  C   UNL     1      32.242  -9.831 -22.793  0.00  0.00    -0.003 C 
ATOM      8  C   UNL     1      32.586  -8.733 -23.580  0.00  0.00    +0.003 C 
BRANCH   4   9
ATOM      9  C   UNL     1      32.781  -6.314 -23.919  0.00  0.00    +0.003 C 
ATOM     10  C   UNL     1      31.919  -5.222 -24.030  0.00  0.00    +0.000 C 
ATOM     11  C   UNL     1      33.991  -6.319 -24.612  0.00  0.00    +0.000 C 
ATOM     12  C   UNL     1      32.268  -4.137 -24.832  0.00  0.00    +0.000 C 
ATOM     13  C   UNL     1      34.340  -5.234 -25.415  0.00  0.00    +0.000 C 
ATOM     14  C   UNL     1      33.479  -4.143 -25.525  0.00  0.00    +0.000 C 
ENDBRANCH   4   9
BRANCH   6  15
ATOM     15  O   UNL     1      31.733  -5.992 -21.293  0.00  0.00    -0.471 OA
ATOM     16  C   UNL     1      30.393  -5.579 -21.031  0.00  0.00    +0.252 C 
ENDBRANCH   6  15
ENDBRANCH   1   3
BRANCH   1  17
ATOM     17  C   UNL     1      32.116 -12.035 -21.049  0.00  0.00    -0.087 C 
ATOM     18  C   UNL     1      32.746 -13.012 -21.354  0.00  0.00    -0.076 C 
BRANCH  18  23
ATOM     19  N   UNL     1      34.936 -15.313 -23.273  0.00  0.00    -0.336 NA
ATOM     20  N   UNL     1      34.269 -16.400 -21.227  0.00  0.00    -0.317 NA
ATOM     21  N   UNL     1      32.859 -15.297 -19.682  0.00  0.00    -0.334 N 
ATOM     22  N   UNL     1      35.670 -17.484 -22.768  0.00  0.00    -0.283 N 
ATOM     23  C   UNL     1      33.499 -14.173 -21.713  0.00  0.00    +0.179 C 
ATOM     24  C   UNL     1      34.212 -14.240 -22.893  0.00  0.00    +0.120 C 
ATOM     25  C   UNL     1      33.566 -15.294 -20.912  0.00  0.00    +0.186 C 
ATOM     26  C   UNL     1      34.222 -13.092 -23.852  0.00  0.00    +0.064 C 
ATOM     27  C   UNL     1      34.921 -16.343 -22.405  0.00  0.00    +0.196 C 
ATOM     28  H   UNL     1      32.894 -16.088 -19.097  0.00  0.00    +0.144 HD
ATOM     29  H   UNL     1      32.333 -14.509 -19.416  0.00  0.00    +0.144 HD
ATOM     30  H   UNL     1      36.165 -17.497 -23.618  0.00  0.00    +0.156 HD
ATOM     31  H   UNL     1      35.695 -18.267 -22.171  0.00  0.00    +0.156 HD
ENDBRANCH  18  23
ENDBRANCH   1  17
TORSDOF 5
ENDMDL
