MODEL 1
REMARK VINA RESULT:     -11.7      0.000      0.000
REMARK  Name = 46937091
REMARK  8 active torsions:
REMARK  status: ('A' for Active; 'I' for Inactive)
REMARK    1  A    between atoms: C_1  and  C_4
REMARK    2  A    between atoms: C_1  and  C_18
REMARK    3  A    between atoms: C_10  and  C_12
REMARK    4  A    between atoms: C_18  and  C_19
REMARK    5  A    between atoms: C_19  and  N_20
REMARK    6  A    between atoms: C_19  and  C_30
REMARK    7  A    between atoms: C_24  and  C_27
REMARK    8  A    between atoms: C_30  and  O_32
REMARK                            x       y       z     vdW  Elec       q    Type
REMARK                         _______ _______ _______ _____ _____    ______ ____
ROOT
ATOM      1  C   UNL     1      34.736 -24.884 -14.159  0.00  0.00    +0.031 C 
ENDROOT
BRANCH   1   4
ATOM      2  O   UNL     1      33.794 -23.296 -16.596  0.00  0.00    -0.425 OA
ATOM      3  N   UNL     1      31.663 -22.863 -17.233  0.00  0.00    -0.368 NA
ATOM      4  C   UNL     1      33.309 -24.612 -14.561  0.00  0.00    +0.014 C 
ATOM      5  C   UNL     1      32.957 -23.877 -15.687  0.00  0.00    +0.170 C 
ATOM      6  C   UNL     1      32.243 -25.097 -13.797  0.00  0.00    -0.005 C 
ATOM      7  C   UNL     1      31.653 -23.611 -16.081  0.00  0.00    +0.151 C 
ATOM      8  C   UNL     1      30.913 -24.850 -14.158  0.00  0.00    -0.019 C 
ATOM      9  C   UNL     1      30.596 -24.105 -15.304  0.00  0.00    +0.088 C 
ATOM     10  C   UNL     1      32.944 -22.712 -17.485  0.00  0.00    +0.282 C 
BRANCH  10  12
ATOM     11 CL   UNL     1      35.577 -19.826 -21.970  0.00  0.00    -0.082 Cl
ATOM     12  C   UNL     1      33.581 -22.015 -18.569  0.00  0.00    +0.066 C 
ATOM     13  C   UNL     1      32.827 -21.197 -19.410  0.00  0.00    +0.007 C 
ATOM     14  C   UNL     1      34.952 -22.155 -18.779  0.00  0.00    +0.007 C 
ATOM     15  C   UNL     1      33.444 -20.520 -20.462  0.00  0.00    +0.012 C 
ATOM     16  C   UNL     1      35.569 -21.478 -19.831  0.00  0.00    +0.012 C 
ATOM     17  C   UNL     1      34.815 -20.661 -20.672  0.00  0.00    +0.058 C 
ENDBRANCH  10  12
ENDBRANCH   1   4
BRANCH   1  18
ATOM     18  C   UNL     1      35.034 -24.642 -12.669  0.00  0.00    +0.023 C 
BRANCH  18  19
ATOM     19  C   UNL     1      36.369 -23.907 -12.375  0.00  0.00    +0.087 C 
BRANCH  19  20
ATOM     20  N   UNL     1      37.486 -24.311 -13.329  0.00  0.00    -0.246 NA
ATOM     21  N   UNL     1      38.837 -24.260 -15.091  0.00  0.00    -0.251 NA
ATOM     22  C   UNL     1      38.326 -25.377 -13.186  0.00  0.00    +0.125 C 
ATOM     23  C   UNL     1      37.830 -23.669 -14.486  0.00  0.00    +0.201 C 
ATOM     24  C   UNL     1      39.152 -25.326 -14.285  0.00  0.00    +0.124 C 
BRANCH  24  27
ATOM     25  O   UNL     1      40.620 -26.421 -15.764  0.00  0.00    -0.269 OA
ATOM     26  N   UNL     1      40.819 -26.937 -13.539  0.00  0.00    -0.324 N 
ATOM     27  C   UNL     1      40.209 -26.238 -14.591  0.00  0.00    +0.257 C 
ATOM     28  H   UNL     1      41.550 -27.571 -13.726  0.00  0.00    +0.145 HD
ATOM     29  H   UNL     1      40.517 -26.795 -12.614  0.00  0.00    +0.145 HD
ENDBRANCH  24  27
ENDBRANCH  19  20
BRANCH  19  30
ATOM     30  C   UNL     1      36.761 -24.068 -10.881  0.00  0.00    +0.125 C 
ATOM     31  C   UNL     1      35.637 -24.611 -10.005  0.00  0.00    +0.033 C 
BRANCH  30  32
ATOM     32  O   UNL     1      37.222 -22.831 -10.343  0.00  0.00    -0.383 OA
ATOM     33  H   UNL     1      36.878 -22.723  -9.442  0.00  0.00    +0.210 HD
ENDBRANCH  30  32
ENDBRANCH  19  30
ENDBRANCH  18  19
ENDBRANCH   1  18
TORSDOF 8
ENDMDL
MODEL 2
REMARK VINA RESULT:     -11.0      3.617      7.482
REMARK  Name = 46937091
REMARK  8 active torsions:
REMARK  status: ('A' for Active; 'I' for Inactive)
REMARK    1  A    between atoms: C_1  and  C_4
REMARK    2  A    between atoms: C_1  and  C_18
REMARK    3  A    between atoms: C_10  and  C_12
REMARK    4  A    between atoms: C_18  and  C_19
REMARK    5  A    between atoms: C_19  and  N_20
REMARK    6  A    between atoms: C_19  and  C_30
REMARK    7  A    between atoms: C_24  and  C_27
REMARK    8  A    between atoms: C_30  and  O_32
REMARK                            x       y       z     vdW  Elec       q    Type
REMARK                         _______ _______ _______ _____ _____    ______ ____
ROOT
ATOM      1  C   UNL     1      32.959 -23.739 -16.854  0.00  0.00    +0.031 C 
ENDROOT
BRANCH   1   4
ATOM      2  O   UNL     1      34.738 -21.938 -18.570  0.00  0.00    -0.425 OA
ATOM      3  N   UNL     1      36.930 -21.450 -18.263  0.00  0.00    -0.368 NA
ATOM      4  C   UNL     1      34.417 -23.429 -16.626  0.00  0.00    +0.014 C 
ATOM      5  C   UNL     1      35.163 -22.598 -17.453  0.00  0.00    +0.170 C 
ATOM      6  C   UNL     1      35.106 -23.981 -15.541  0.00  0.00    -0.005 C 
ATOM      7  C   UNL     1      36.505 -22.297 -17.267  0.00  0.00    +0.151 C 
ATOM      8  C   UNL     1      36.460 -23.702 -15.318  0.00  0.00    -0.019 C 
ATOM      9  C   UNL     1      37.181 -22.857 -16.175  0.00  0.00    +0.088 C 
ATOM     10  C   UNL     1      35.851 -21.276 -18.994  0.00  0.00    +0.282 C 
BRANCH  10  12
ATOM     11 CL   UNL     1      35.126 -18.005 -23.907  0.00  0.00    -0.082 Cl
ATOM     12  C   UNL     1      35.675 -20.486 -20.181  0.00  0.00    +0.066 C 
ATOM     13  C   UNL     1      36.735 -19.725 -20.675  0.00  0.00    +0.007 C 
ATOM     14  C   UNL     1      34.446 -20.480 -20.840  0.00  0.00    +0.007 C 
ATOM     15  C   UNL     1      36.565 -18.958 -21.827  0.00  0.00    +0.012 C 
ATOM     16  C   UNL     1      34.276 -19.712 -21.992  0.00  0.00    +0.012 C 
ATOM     17  C   UNL     1      35.336 -18.952 -22.486  0.00  0.00    +0.058 C 
ENDBRANCH  10  12
ENDBRANCH   1   4
BRANCH   1  18
ATOM     18  C   UNL     1      32.013 -23.167 -15.784  0.00  0.00    +0.023 C 
BRANCH  18  19
ATOM     19  C   UNL     1      30.990 -24.179 -15.202  0.00  0.00    +0.087 C 
BRANCH  19  20
ATOM     20  N   UNL     1      29.582 -23.973 -15.747  0.00  0.00    -0.246 NA
ATOM     21  N   UNL     1      27.718 -24.354 -16.891  0.00  0.00    -0.251 NA
ATOM     22  C   UNL     1      28.753 -22.924 -15.468  0.00  0.00    +0.125 C 
ATOM     23  C   UNL     1      28.919 -24.805 -16.604  0.00  0.00    +0.201 C 
ATOM     24  C   UNL     1      27.607 -23.181 -16.185  0.00  0.00    +0.124 C 
BRANCH  24  27
ATOM     25  O   UNL     1      25.569 -22.387 -15.313  0.00  0.00    -0.269 OA
ATOM     26  N   UNL     1      26.254 -21.499 -17.312  0.00  0.00    -0.324 N 
ATOM     27  C   UNL     1      26.434 -22.366 -16.224  0.00  0.00    +0.257 C 
ATOM     28  H   UNL     1      25.453 -20.927 -17.361  0.00  0.00    +0.145 HD
ATOM     29  H   UNL     1      26.928 -21.461 -18.028  0.00  0.00    +0.145 HD
ENDBRANCH  24  27
ENDBRANCH  19  20
BRANCH  19  30
ATOM     30  C   UNL     1      31.045 -24.176 -13.650  0.00  0.00    +0.125 C 
ATOM     31  C   UNL     1      32.457 -24.061 -13.084  0.00  0.00    +0.033 C 
BRANCH  30  32
ATOM     32  O   UNL     1      30.418 -25.341 -13.119  0.00  0.00    -0.383 OA
ATOM     33  H   UNL     1      29.558 -25.469 -13.548  0.00  0.00    +0.210 HD
ENDBRANCH  30  32
ENDBRANCH  19  30
ENDBRANCH  18  19
ENDBRANCH   1  18
TORSDOF 8
ENDMDL
MODEL 3
REMARK VINA RESULT:     -10.7     11.098     14.958
REMARK  Name = 46937091
REMARK  8 active torsions:
REMARK  status: ('A' for Active; 'I' for Inactive)
REMARK    1  A    between atoms: C_1  and  C_4
REMARK    2  A    between atoms: C_1  and  C_18
REMARK    3  A    between atoms: C_10  and  C_12
REMARK    4  A    between atoms: C_18  and  C_19
REMARK    5  A    between atoms: C_19  and  N_20
REMARK    6  A    between atoms: C_19  and  C_30
REMARK    7  A    between atoms: C_24  and  C_27
REMARK    8  A    between atoms: C_30  and  O_32
REMARK                            x       y       z     vdW  Elec       q    Type
REMARK                         _______ _______ _______ _____ _____    ______ ____
ROOT
ATOM      1  C   UNL     1      31.838 -12.631 -22.031  0.00  0.00    +0.031 C 
ENDROOT
BRANCH   1   4
ATOM      2  O   UNL     1      32.139  -9.588 -22.042  0.00  0.00    -0.425 OA
ATOM      3  N   UNL     1      32.008  -8.171 -20.278  0.00  0.00    -0.368 NA
ATOM      4  C   UNL     1      31.745 -11.711 -20.841  0.00  0.00    +0.014 C 
ATOM      5  C   UNL     1      31.894 -10.331 -20.924  0.00  0.00    +0.170 C 
ATOM      6  C   UNL     1      31.498 -12.216 -19.560  0.00  0.00    -0.005 C 
ATOM      7  C   UNL     1      31.813  -9.461 -19.846  0.00  0.00    +0.151 C 
ATOM      8  C   UNL     1      31.410 -11.373 -18.446  0.00  0.00    -0.019 C 
ATOM      9  C   UNL     1      31.565  -9.984 -18.569  0.00  0.00    +0.088 C 
ATOM     10  C   UNL     1      32.193  -8.311 -21.572  0.00  0.00    +0.282 C 
BRANCH  10  12
ATOM     11 CL   UNL     1      33.241  -4.150 -25.690  0.00  0.00    -0.082 Cl
ATOM     12  C   UNL     1      32.445  -7.305 -22.567  0.00  0.00    +0.066 C 
ATOM     13  C   UNL     1      33.603  -7.367 -23.343  0.00  0.00    +0.007 C 
ATOM     14  C   UNL     1      31.534  -6.267 -22.758  0.00  0.00    +0.007 C 
ATOM     15  C   UNL     1      33.849  -6.391 -24.308  0.00  0.00    +0.012 C 
ATOM     16  C   UNL     1      31.780  -5.291 -23.724  0.00  0.00    +0.012 C 
ATOM     17  C   UNL     1      32.937  -5.354 -24.499  0.00  0.00    +0.058 C 
ENDBRANCH  10  12
ENDBRANCH   1   4
BRANCH   1  18
ATOM     18  C   UNL     1      33.269 -13.078 -22.378  0.00  0.00    +0.023 C 
BRANCH  18  19
ATOM     19  C   UNL     1      33.414 -13.834 -23.726  0.00  0.00    +0.087 C 
BRANCH  19  20
ATOM     20  N   UNL     1      34.094 -15.188 -23.571  0.00  0.00    -0.246 NA
ATOM     21  N   UNL     1      34.932 -17.170 -24.121  0.00  0.00    -0.251 NA
ATOM     22  C   UNL     1      34.582 -15.722 -22.413  0.00  0.00    +0.125 C 
ATOM     23  C   UNL     1      34.326 -16.092 -24.570  0.00  0.00    +0.201 C 
ATOM     24  C   UNL     1      35.095 -16.945 -22.777  0.00  0.00    +0.124 C 
BRANCH  24  27
ATOM     25  O   UNL     1      35.336 -18.077 -20.726  0.00  0.00    -0.269 OA
ATOM     26  N   UNL     1      36.794 -18.649 -22.401  0.00  0.00    -0.324 N 
ATOM     27  C   UNL     1      35.722 -17.891 -21.907  0.00  0.00    +0.257 C 
ATOM     28  H   UNL     1      37.241 -19.307 -21.820  0.00  0.00    +0.145 HD
ATOM     29  H   UNL     1      37.099 -18.523 -23.328  0.00  0.00    +0.145 HD
ENDBRANCH  24  27
ENDBRANCH  19  20
BRANCH  19  30
ATOM     30  C   UNL     1      34.101 -12.929 -24.784  0.00  0.00    +0.125 C 
ATOM     31  C   UNL     1      34.186 -11.461 -24.378  0.00  0.00    +0.033 C 
BRANCH  30  32
ATOM     32  O   UNL     1      33.440 -13.031 -26.043  0.00  0.00    -0.383 OA
ATOM     33  H   UNL     1      34.082 -13.285 -26.725  0.00  0.00    +0.210 HD
ENDBRANCH  30  32
ENDBRANCH  19  30
ENDBRANCH  18  19
ENDBRANCH   1  18
TORSDOF 8
ENDMDL
MODEL 4
REMARK VINA RESULT:     -10.4     10.300     14.133
REMARK  Name = 46937091
REMARK  8 active torsions:
REMARK  status: ('A' for Active; 'I' for Inactive)
REMARK    1  A    between atoms: C_1  and  C_4
REMARK    2  A    between atoms: C_1  and  C_18
REMARK    3  A    between atoms: C_10  and  C_12
REMARK    4  A    between atoms: C_18  and  C_19
REMARK    5  A    between atoms: C_19  and  N_20
REMARK    6  A    between atoms: C_19  and  C_30
REMARK    7  A    between atoms: C_24  and  C_27
REMARK    8  A    between atoms: C_30  and  O_32
REMARK                            x       y       z     vdW  Elec       q    Type
REMARK                         _______ _______ _______ _____ _____    ______ ____
ROOT
ATOM      1  C   UNL     1      33.072 -12.966 -23.465  0.00  0.00    +0.031 C 
ENDROOT
BRANCH   1   4
ATOM      2  O   UNL     1      32.450 -10.069 -22.711  0.00  0.00    -0.425 OA
ATOM      3  N   UNL     1      31.656  -9.286 -20.738  0.00  0.00    -0.368 NA
ATOM      4  C   UNL     1      32.543 -12.472 -22.143  0.00  0.00    +0.014 C 
ATOM      5  C   UNL     1      32.284 -11.133 -21.873  0.00  0.00    +0.170 C 
ATOM      6  C   UNL     1      32.282 -13.362 -21.096  0.00  0.00    -0.005 C 
ATOM      7  C   UNL     1      31.798 -10.651 -20.666  0.00  0.00    +0.151 C 
ATOM      8  C   UNL     1      31.791 -12.916 -19.863  0.00  0.00    -0.019 C 
ATOM      9  C   UNL     1      31.541 -11.556 -19.628  0.00  0.00    +0.088 C 
ATOM     10  C   UNL     1      32.054  -9.004 -21.959  0.00  0.00    +0.282 C 
BRANCH  10  12
ATOM     11 CL   UNL     1      32.371  -3.729 -24.686  0.00  0.00    -0.082 Cl
ATOM     12  C   UNL     1      32.131  -7.730 -22.618  0.00  0.00    +0.066 C 
ATOM     13  C   UNL     1      31.082  -6.818 -22.498  0.00  0.00    +0.007 C 
ATOM     14  C   UNL     1      33.254  -7.404 -23.378  0.00  0.00    +0.007 C 
ATOM     15  C   UNL     1      31.156  -5.581 -23.138  0.00  0.00    +0.012 C 
ATOM     16  C   UNL     1      33.328  -6.166 -24.017  0.00  0.00    +0.012 C 
ATOM     17  C   UNL     1      32.279  -5.255 -23.897  0.00  0.00    +0.058 C 
ENDBRANCH  10  12
ENDBRANCH   1   4
BRANCH   1  18
ATOM     18  C   UNL     1      34.272 -13.923 -23.352  0.00  0.00    +0.023 C 
BRANCH  18  19
ATOM     19  C   UNL     1      33.938 -15.424 -23.561  0.00  0.00    +0.087 C 
BRANCH  19  20
ATOM     20  N   UNL     1      34.574 -16.322 -22.507  0.00  0.00    -0.246 NA
ATOM     21  N   UNL     1      35.099 -17.133 -20.508  0.00  0.00    -0.251 NA
ATOM     22  C   UNL     1      35.401 -17.383 -22.741  0.00  0.00    +0.125 C 
ATOM     23  C   UNL     1      34.422 -16.210 -21.153  0.00  0.00    +0.201 C 
ATOM     24  C   UNL     1      35.712 -17.869 -21.492  0.00  0.00    +0.124 C 
BRANCH  24  27
ATOM     25  O   UNL     1      37.769 -19.015 -21.537  0.00  0.00    -0.269 OA
ATOM     26  N   UNL     1      36.013 -20.080 -20.516  0.00  0.00    -0.324 N 
ATOM     27  C   UNL     1      36.557 -18.987 -21.206  0.00  0.00    +0.257 C 
ATOM     28  H   UNL     1      36.576 -20.861 -20.308  0.00  0.00    +0.145 HD
ATOM     29  H   UNL     1      35.069 -20.067 -20.239  0.00  0.00    +0.145 HD
ENDBRANCH  24  27
ENDBRANCH  19  20
BRANCH  19  30
ATOM     30  C   UNL     1      34.278 -15.860 -25.012  0.00  0.00    +0.125 C 
ATOM     31  C   UNL     1      33.619 -14.998 -26.084  0.00  0.00    +0.033 C 
BRANCH  30  32
ATOM     32  O   UNL     1      33.928 -17.225 -25.226  0.00  0.00    -0.383 OA
ATOM     33  H   UNL     1      34.583 -17.639 -25.811  0.00  0.00    +0.210 HD
ENDBRANCH  30  32
ENDBRANCH  19  30
ENDBRANCH  18  19
ENDBRANCH   1  18
TORSDOF 8
ENDMDL
MODEL 5
REMARK VINA RESULT:     -10.4     11.027     14.826
REMARK  Name = 46937091
REMARK  8 active torsions:
REMARK  status: ('A' for Active; 'I' for Inactive)
REMARK    1  A    between atoms: C_1  and  C_4
REMARK    2  A    between atoms: C_1  and  C_18
REMARK    3  A    between atoms: C_10  and  C_12
REMARK    4  A    between atoms: C_18  and  C_19
REMARK    5  A    between atoms: C_19  and  N_20
REMARK    6  A    between atoms: C_19  and  C_30
REMARK    7  A    between atoms: C_24  and  C_27
REMARK    8  A    between atoms: C_30  and  O_32
REMARK                            x       y       z     vdW  Elec       q    Type
REMARK                         _______ _______ _______ _____ _____    ______ ____
ROOT
ATOM      1  C   UNL     1      31.915 -12.440 -22.375  0.00  0.00    +0.031 C 
ENDROOT
BRANCH   1   4
ATOM      2  O   UNL     1      32.123  -9.394 -22.201  0.00  0.00    -0.425 OA
ATOM      3  N   UNL     1      31.986  -8.095 -20.350  0.00  0.00    -0.368 NA
ATOM      4  C   UNL     1      31.818 -11.599 -21.128  0.00  0.00    +0.014 C 
ATOM      5  C   UNL     1      31.924 -10.213 -21.127  0.00  0.00    +0.170 C 
ATOM      6  C   UNL     1      31.614 -12.191 -19.877  0.00  0.00    -0.005 C 
ATOM      7  C   UNL     1      31.840  -9.415 -19.996  0.00  0.00    +0.151 C 
ATOM      8  C   UNL     1      31.524 -11.421 -18.710  0.00  0.00    -0.019 C 
ATOM      9  C   UNL     1      31.634 -10.024 -18.750  0.00  0.00    +0.088 C 
ATOM     10  C   UNL     1      32.148  -8.148 -21.653  0.00  0.00    +0.282 C 
BRANCH  10  12
ATOM     11 CL   UNL     1      32.978  -3.706 -25.520  0.00  0.00    -0.082 Cl
ATOM     12  C   UNL     1      32.349  -7.075 -22.588  0.00  0.00    +0.066 C 
ATOM     13  C   UNL     1      31.462  -5.999 -22.615  0.00  0.00    +0.007 C 
ATOM     14  C   UNL     1      33.431  -7.108 -23.467  0.00  0.00    +0.007 C 
ATOM     15  C   UNL     1      31.656  -4.957 -23.522  0.00  0.00    +0.012 C 
ATOM     16  C   UNL     1      33.625  -6.067 -24.374  0.00  0.00    +0.012 C 
ATOM     17  C   UNL     1      32.738  -4.991 -24.401  0.00  0.00    +0.058 C 
ENDBRANCH  10  12
ENDBRANCH   1   4
BRANCH   1  18
ATOM     18  C   UNL     1      33.278 -13.124 -22.577  0.00  0.00    +0.023 C 
BRANCH  18  19
ATOM     19  C   UNL     1      33.236 -14.452 -23.379  0.00  0.00    +0.087 C 
BRANCH  19  20
ATOM     20  N   UNL     1      34.032 -15.567 -22.714  0.00  0.00    -0.246 NA
ATOM     21  N   UNL     1      35.018 -16.750 -21.114  0.00  0.00    -0.251 NA
ATOM     22  C   UNL     1      34.599 -16.641 -23.339  0.00  0.00    +0.125 C 
ATOM     23  C   UNL     1      34.309 -15.675 -21.380  0.00  0.00    +0.201 C 
ATOM     24  C   UNL     1      35.202 -17.357 -22.332  0.00  0.00    +0.124 C 
BRANCH  24  27
ATOM     25  O   UNL     1      35.423 -19.611 -22.980  0.00  0.00    -0.269 OA
ATOM     26  N   UNL     1      37.276 -18.608 -22.076  0.00  0.00    -0.324 N 
ATOM     27  C   UNL     1      35.934 -18.576 -22.483  0.00  0.00    +0.257 C 
ATOM     28  H   UNL     1      37.801 -19.436 -22.170  0.00  0.00    +0.145 HD
ATOM     29  H   UNL     1      37.695 -17.802 -21.696  0.00  0.00    +0.145 HD
ENDBRANCH  24  27
ENDBRANCH  19  20
BRANCH  19  30
ATOM     30  C   UNL     1      33.653 -14.208 -24.855  0.00  0.00    +0.125 C 
ATOM     31  C   UNL     1      33.824 -12.736 -25.212  0.00  0.00    +0.033 C 
BRANCH  30  32
ATOM     32  O   UNL     1      32.716 -14.803 -25.750  0.00  0.00    -0.383 OA
ATOM     33  H   UNL     1      31.946 -15.118 -25.250  0.00  0.00    +0.210 HD
ENDBRANCH  30  32
ENDBRANCH  19  30
ENDBRANCH  18  19
ENDBRANCH   1  18
TORSDOF 8
ENDMDL
MODEL 6
REMARK VINA RESULT:      -9.9      1.639      3.342
REMARK  Name = 46937091
REMARK  8 active torsions:
REMARK  status: ('A' for Active; 'I' for Inactive)
REMARK    1  A    between atoms: C_1  and  C_4
REMARK    2  A    between atoms: C_1  and  C_18
REMARK    3  A    between atoms: C_10  and  C_12
REMARK    4  A    between atoms: C_18  and  C_19
REMARK    5  A    between atoms: C_19  and  N_20
REMARK    6  A    between atoms: C_19  and  C_30
REMARK    7  A    between atoms: C_24  and  C_27
REMARK    8  A    between atoms: C_30  and  O_32
REMARK                            x       y       z     vdW  Elec       q    Type
REMARK                         _______ _______ _______ _____ _____    ______ ____
ROOT
ATOM      1  C   UNL     1      34.176 -25.031 -14.659  0.00  0.00    +0.031 C 
ENDROOT
BRANCH   1   4
ATOM      2  O   UNL     1      33.544 -23.161 -16.994  0.00  0.00    -0.425 OA
ATOM      3  N   UNL     1      31.520 -22.363 -17.628  0.00  0.00    -0.368 NA
ATOM      4  C   UNL     1      32.817 -24.516 -15.060  0.00  0.00    +0.014 C 
ATOM      5  C   UNL     1      32.607 -23.664 -16.138  0.00  0.00    +0.170 C 
ATOM      6  C   UNL     1      31.671 -24.880 -14.344  0.00  0.00    -0.005 C 
ATOM      7  C   UNL     1      31.370 -23.175 -16.529  0.00  0.00    +0.151 C 
ATOM      8  C   UNL     1      30.404 -24.408 -14.705  0.00  0.00    -0.019 C 
ATOM      9  C   UNL     1      30.231 -23.549 -15.802  0.00  0.00    +0.088 C 
ATOM     10  C   UNL     1      32.815 -22.395 -17.852  0.00  0.00    +0.282 C 
BRANCH  10  12
ATOM     11 CL   UNL     1      35.961 -19.664 -22.096  0.00  0.00    -0.082 Cl
ATOM     12  C   UNL     1      33.576 -21.736 -18.878  0.00  0.00    +0.066 C 
ATOM     13  C   UNL     1      32.940 -20.874 -19.772  0.00  0.00    +0.007 C 
ATOM     14  C   UNL     1      34.949 -21.956 -18.979  0.00  0.00    +0.007 C 
ATOM     15  C   UNL     1      33.678 -20.234 -20.767  0.00  0.00    +0.012 C 
ATOM     16  C   UNL     1      35.687 -21.315 -19.974  0.00  0.00    +0.012 C 
ATOM     17  C   UNL     1      35.051 -20.454 -20.868  0.00  0.00    +0.058 C 
ENDBRANCH  10  12
ENDBRANCH   1   4
BRANCH   1  18
ATOM     18  C   UNL     1      35.343 -24.451 -15.476  0.00  0.00    +0.023 C 
BRANCH  18  19
ATOM     19  C   UNL     1      36.749 -24.657 -14.854  0.00  0.00    +0.087 C 
BRANCH  19  20
ATOM     20  N   UNL     1      36.693 -24.995 -13.370  0.00  0.00    -0.246 NA
ATOM     21  N   UNL     1      36.897 -26.166 -11.494  0.00  0.00    -0.251 NA
ATOM     22  C   UNL     1      36.268 -24.172 -12.368  0.00  0.00    +0.125 C 
ATOM     23  C   UNL     1      37.061 -26.182 -12.799  0.00  0.00    +0.201 C 
ATOM     24  C   UNL     1      36.403 -24.915 -11.219  0.00  0.00    +0.124 C 
BRANCH  24  27
ATOM     25  O   UNL     1      35.307 -25.135  -9.146  0.00  0.00    -0.269 OA
ATOM     26  N   UNL     1      36.673 -23.312  -9.405  0.00  0.00    -0.324 N 
ATOM     27  C   UNL     1      36.083 -24.487  -9.893  0.00  0.00    +0.257 C 
ATOM     28  H   UNL     1      36.468 -22.998  -8.495  0.00  0.00    +0.145 HD
ATOM     29  H   UNL     1      37.293 -22.800  -9.974  0.00  0.00    +0.145 HD
ENDBRANCH  24  27
ENDBRANCH  19  20
BRANCH  19  30
ATOM     30  C   UNL     1      37.664 -23.442 -15.164  0.00  0.00    +0.125 C 
ATOM     31  C   UNL     1      37.051 -22.441 -16.137  0.00  0.00    +0.033 C 
BRANCH  30  32
ATOM     32  O   UNL     1      38.927 -23.873 -15.667  0.00  0.00    -0.383 OA
ATOM     33  H   UNL     1      38.801 -24.305 -16.527  0.00  0.00    +0.210 HD
ENDBRANCH  30  32
ENDBRANCH  19  30
ENDBRANCH  18  19
ENDBRANCH   1  18
TORSDOF 8
ENDMDL
MODEL 7
REMARK VINA RESULT:      -9.8      3.696      8.761
REMARK  Name = 46937091
REMARK  8 active torsions:
REMARK  status: ('A' for Active; 'I' for Inactive)
REMARK    1  A    between atoms: C_1  and  C_4
REMARK    2  A    between atoms: C_1  and  C_18
REMARK    3  A    between atoms: C_10  and  C_12
REMARK    4  A    between atoms: C_18  and  C_19
REMARK    5  A    between atoms: C_19  and  N_20
REMARK    6  A    between atoms: C_19  and  C_30
REMARK    7  A    between atoms: C_24  and  C_27
REMARK    8  A    between atoms: C_30  and  O_32
REMARK                            x       y       z     vdW  Elec       q    Type
REMARK                         _______ _______ _______ _____ _____    ______ ____
ROOT
ATOM      1  C   UNL     1      32.940 -23.373 -17.839  0.00  0.00    +0.031 C 
ENDROOT
BRANCH   1   4
ATOM      2  O   UNL     1      34.853 -23.410 -15.454  0.00  0.00    -0.425 OA
ATOM      3  N   UNL     1      36.991 -22.660 -15.375  0.00  0.00    -0.368 NA
ATOM      4  C   UNL     1      34.360 -22.868 -17.814  0.00  0.00    +0.014 C 
ATOM      5  C   UNL     1      35.172 -22.917 -16.687  0.00  0.00    +0.170 C 
ATOM      6  C   UNL     1      34.944 -22.308 -18.956  0.00  0.00    -0.005 C 
ATOM      7  C   UNL     1      36.481 -22.460 -16.635  0.00  0.00    +0.151 C 
ATOM      8  C   UNL     1      36.261 -21.834 -18.946  0.00  0.00    -0.019 C 
ATOM      9  C   UNL     1      37.051 -21.902 -17.788  0.00  0.00    +0.088 C 
ATOM     10  C   UNL     1      35.991 -23.219 -14.730  0.00  0.00    +0.282 C 
BRANCH  10  12
ATOM     11 CL   UNL     1      35.713 -25.045  -9.076  0.00  0.00    -0.082 Cl
ATOM     12  C   UNL     1      35.924 -23.660 -13.363  0.00  0.00    +0.066 C 
ATOM     13  C   UNL     1      34.881 -24.487 -12.948  0.00  0.00    +0.007 C 
ATOM     14  C   UNL     1      36.903 -23.262 -12.453  0.00  0.00    +0.007 C 
ATOM     15  C   UNL     1      34.816 -24.915 -11.622  0.00  0.00    +0.012 C 
ATOM     16  C   UNL     1      36.837 -23.690 -11.127  0.00  0.00    +0.012 C 
ATOM     17  C   UNL     1      35.794 -24.517 -10.712  0.00  0.00    +0.058 C 
ENDBRANCH  10  12
ENDBRANCH   1   4
BRANCH   1  18
ATOM     18  C   UNL     1      32.058 -22.845 -16.695  0.00  0.00    +0.023 C 
BRANCH  18  19
ATOM     19  C   UNL     1      31.275 -23.933 -15.912  0.00  0.00    +0.087 C 
BRANCH  19  20
ATOM     20  N   UNL     1      29.772 -23.864 -16.150  0.00  0.00    -0.246 NA
ATOM     21  N   UNL     1      27.717 -24.519 -16.678  0.00  0.00    -0.251 NA
ATOM     22  C   UNL     1      28.977 -22.766 -15.988  0.00  0.00    +0.125 C 
ATOM     23  C   UNL     1      28.973 -24.892 -16.564  0.00  0.00    +0.201 C 
ATOM     24  C   UNL     1      27.713 -23.194 -16.319  0.00  0.00    +0.124 C 
BRANCH  24  27
ATOM     25  O   UNL     1      25.695 -22.444 -15.364  0.00  0.00    -0.269 OA
ATOM     26  N   UNL     1      26.282 -21.536 -17.386  0.00  0.00    -0.324 N 
ATOM     27  C   UNL     1      26.522 -22.402 -16.309  0.00  0.00    +0.257 C 
ATOM     28  H   UNL     1      25.469 -20.981 -17.401  0.00  0.00    +0.145 HD
ATOM     29  H   UNL     1      26.927 -21.483 -18.128  0.00  0.00    +0.145 HD
ENDBRANCH  24  27
ENDBRANCH  19  20
BRANCH  19  30
ATOM     30  C   UNL     1      31.652 -23.895 -14.406  0.00  0.00    +0.125 C 
ATOM     31  C   UNL     1      30.653 -24.609 -13.502  0.00  0.00    +0.033 C 
BRANCH  30  32
ATOM     32  O   UNL     1      31.814 -22.550 -13.959  0.00  0.00    -0.383 OA
ATOM     33  H   UNL     1      31.053 -22.021 -14.244  0.00  0.00    +0.210 HD
ENDBRANCH  30  32
ENDBRANCH  19  30
ENDBRANCH  18  19
ENDBRANCH   1  18
TORSDOF 8
ENDMDL
MODEL 8
REMARK VINA RESULT:      -9.8      1.588      2.310
REMARK  Name = 46937091
REMARK  8 active torsions:
REMARK  status: ('A' for Active; 'I' for Inactive)
REMARK    1  A    between atoms: C_1  and  C_4
REMARK    2  A    between atoms: C_1  and  C_18
REMARK    3  A    between atoms: C_10  and  C_12
REMARK    4  A    between atoms: C_18  and  C_19
REMARK    5  A    between atoms: C_19  and  N_20
REMARK    6  A    between atoms: C_19  and  C_30
REMARK    7  A    between atoms: C_24  and  C_27
REMARK    8  A    between atoms: C_30  and  O_32
REMARK                            x       y       z     vdW  Elec       q    Type
REMARK                         _______ _______ _______ _____ _____    ______ ____
ROOT
ATOM      1  C   UNL     1      34.510 -24.964 -14.030  0.00  0.00    +0.031 C 
ENDROOT
BRANCH   1   4
ATOM      2  O   UNL     1      33.533 -23.371 -16.451  0.00  0.00    -0.425 OA
ATOM      3  N   UNL     1      31.395 -22.899 -17.033  0.00  0.00    -0.368 NA
ATOM      4  C   UNL     1      33.079 -24.665 -14.395  0.00  0.00    +0.014 C 
ATOM      5  C   UNL     1      32.710 -23.930 -15.516  0.00  0.00    +0.170 C 
ATOM      6  C   UNL     1      32.024 -25.123 -13.599  0.00  0.00    -0.005 C 
ATOM      7  C   UNL     1      31.402 -23.639 -15.875  0.00  0.00    +0.151 C 
ATOM      8  C   UNL     1      30.690 -24.852 -13.926  0.00  0.00    -0.019 C 
ATOM      9  C   UNL     1      30.357 -24.107 -15.067  0.00  0.00    +0.088 C 
ATOM     10  C   UNL     1      32.672 -22.775 -17.321  0.00  0.00    +0.282 C 
BRANCH  10  12
ATOM     11 CL   UNL     1      35.238 -19.971 -21.895  0.00  0.00    -0.082 Cl
ATOM     12  C   UNL     1      33.292 -22.097 -18.426  0.00  0.00    +0.066 C 
ATOM     13  C   UNL     1      32.543 -21.230 -19.221  0.00  0.00    +0.007 C 
ATOM     14  C   UNL     1      34.643 -22.306 -18.703  0.00  0.00    +0.007 C 
ATOM     15  C   UNL     1      33.145 -20.573 -20.294  0.00  0.00    +0.012 C 
ATOM     16  C   UNL     1      35.244 -21.649 -19.776  0.00  0.00    +0.012 C 
ATOM     17  C   UNL     1      34.495 -20.782 -20.571  0.00  0.00    +0.058 C 
ENDBRANCH  10  12
ENDBRANCH   1   4
BRANCH   1  18
ATOM     18  C   UNL     1      34.871 -24.655 -12.567  0.00  0.00    +0.023 C 
BRANCH  18  19
ATOM     19  C   UNL     1      36.228 -23.931 -12.362  0.00  0.00    +0.087 C 
BRANCH  19  20
ATOM     20  N   UNL     1      36.929 -23.610 -13.676  0.00  0.00    -0.246 NA
ATOM     21  N   UNL     1      38.376 -23.764 -15.354  0.00  0.00    -0.251 NA
ATOM     22  C   UNL     1      36.608 -22.603 -14.540  0.00  0.00    +0.125 C 
ATOM     23  C   UNL     1      37.996 -24.281 -14.206  0.00  0.00    +0.201 C 
ATOM     24  C   UNL     1      37.514 -22.717 -15.568  0.00  0.00    +0.124 C 
BRANCH  24  27
ATOM     25  O   UNL     1      37.512 -22.341 -17.893  0.00  0.00    -0.269 OA
ATOM     26  N   UNL     1      37.735 -20.498 -16.547  0.00  0.00    -0.324 N 
ATOM     27  C   UNL     1      37.589 -21.882 -16.726  0.00  0.00    +0.257 C 
ATOM     28  H   UNL     1      37.789 -19.903 -17.330  0.00  0.00    +0.145 HD
ATOM     29  H   UNL     1      37.784 -20.122 -15.639  0.00  0.00    +0.145 HD
ENDBRANCH  24  27
ENDBRANCH  19  20
BRANCH  19  30
ATOM     30  C   UNL     1      37.126 -24.727 -11.376  0.00  0.00    +0.125 C 
ATOM     31  C   UNL     1      37.142 -26.230 -11.634  0.00  0.00    +0.033 C 
BRANCH  30  32
ATOM     32  O   UNL     1      36.734 -24.486 -10.027  0.00  0.00    -0.383 OA
ATOM     33  H   UNL     1      37.458 -24.045  -9.555  0.00  0.00    +0.210 HD
ENDBRANCH  30  32
ENDBRANCH  19  30
ENDBRANCH  18  19
ENDBRANCH   1  18
TORSDOF 8
ENDMDL
MODEL 9
REMARK VINA RESULT:      -9.7      8.033     13.147
REMARK  Name = 46937091
REMARK  8 active torsions:
REMARK  status: ('A' for Active; 'I' for Inactive)
REMARK    1  A    between atoms: C_1  and  C_4
REMARK    2  A    between atoms: C_1  and  C_18
REMARK    3  A    between atoms: C_10  and  C_12
REMARK    4  A    between atoms: C_18  and  C_19
REMARK    5  A    between atoms: C_19  and  N_20
REMARK    6  A    between atoms: C_19  and  C_30
REMARK    7  A    between atoms: C_24  and  C_27
REMARK    8  A    between atoms: C_30  and  O_32
REMARK                            x       y       z     vdW  Elec       q    Type
REMARK                         _______ _______ _______ _____ _____    ______ ____
ROOT
ATOM      1  C   UNL     1      34.569 -15.294 -21.196  0.00  0.00    +0.031 C 
ENDROOT
BRANCH   1   4
ATOM      2  O   UNL     1      34.617 -18.347 -21.020  0.00  0.00    -0.425 OA
ATOM      3  N   UNL     1      34.788 -19.834 -22.720  0.00  0.00    -0.368 NA
ATOM      4  C   UNL     1      34.683 -16.262 -22.345  0.00  0.00    +0.014 C 
ATOM      5  C   UNL     1      34.698 -17.643 -22.187  0.00  0.00    +0.170 C 
ATOM      6  C   UNL     1      34.782 -15.804 -23.663  0.00  0.00    -0.005 C 
ATOM      7  C   UNL     1      34.802 -18.557 -23.226  0.00  0.00    +0.151 C 
ATOM      8  C   UNL     1      34.889 -16.692 -24.740  0.00  0.00    -0.019 C 
ATOM      9  C   UNL     1      34.901 -18.080 -24.540  0.00  0.00    +0.088 C 
ATOM     10  C   UNL     1      34.677 -19.646 -21.424  0.00  0.00    +0.282 C 
BRANCH  10  12
ATOM     11 CL   UNL     1      34.403 -23.666 -17.050  0.00  0.00    -0.082 Cl
ATOM     12  C   UNL     1      34.610 -20.617 -20.367  0.00  0.00    +0.066 C 
ATOM     13  C   UNL     1      35.785 -21.139 -19.826  0.00  0.00    +0.007 C 
ATOM     14  C   UNL     1      33.372 -21.037 -19.883  0.00  0.00    +0.007 C 
ATOM     15  C   UNL     1      35.720 -22.082 -18.800  0.00  0.00    +0.012 C 
ATOM     16  C   UNL     1      33.308 -21.980 -18.857  0.00  0.00    +0.012 C 
ATOM     17  C   UNL     1      34.482 -22.503 -18.315  0.00  0.00    +0.058 C 
ENDBRANCH  10  12
ENDBRANCH   1   4
BRANCH   1  18
ATOM     18  C   UNL     1      34.420 -13.822 -21.616  0.00  0.00    +0.023 C 
BRANCH  18  19
ATOM     19  C   UNL     1      32.980 -13.391 -22.004  0.00  0.00    +0.087 C 
BRANCH  19  20
ATOM     20  N   UNL     1      32.906 -11.945 -22.478  0.00  0.00    -0.246 NA
ATOM     21  N   UNL     1      33.399 -10.098 -23.610  0.00  0.00    -0.251 NA
ATOM     22  C   UNL     1      32.027 -10.995 -22.043  0.00  0.00    +0.125 C 
ATOM     23  C   UNL     1      33.710 -11.361 -23.418  0.00  0.00    +0.201 C 
ATOM     24  C   UNL     1      32.350  -9.863 -22.756  0.00  0.00    +0.124 C 
BRANCH  24  27
ATOM     25  O   UNL     1      31.196  -8.014 -23.648  0.00  0.00    -0.269 OA
ATOM     26  N   UNL     1      31.635  -7.972 -21.398  0.00  0.00    -0.324 N 
ATOM     27  C   UNL     1      31.708  -8.589 -22.655  0.00  0.00    +0.257 C 
ATOM     28  H   UNL     1      31.198  -7.094 -21.304  0.00  0.00    +0.145 HD
ATOM     29  H   UNL     1      32.021  -8.416 -20.609  0.00  0.00    +0.145 HD
ENDBRANCH  24  27
ENDBRANCH  19  20
BRANCH  19  30
ATOM     30  C   UNL     1      31.990 -13.700 -20.849  0.00  0.00    +0.125 C 
ATOM     31  C   UNL     1      32.254 -12.897 -19.580  0.00  0.00    +0.033 C 
BRANCH  30  32
ATOM     32  O   UNL     1      31.998 -15.091 -20.535  0.00  0.00    -0.383 OA
ATOM     33  H   UNL     1      32.906 -15.375 -20.349  0.00  0.00    +0.210 HD
ENDBRANCH  30  32
ENDBRANCH  19  30
ENDBRANCH  18  19
ENDBRANCH   1  18
TORSDOF 8
ENDMDL
