MODEL 1
REMARK VINA RESULT:     -11.4      0.000      0.000
REMARK  Name = 11574606
REMARK  6 active torsions:
REMARK  status: ('A' for Active; 'I' for Inactive)
REMARK    1  A    between atoms: C_5  and  O_24
REMARK    2  A    between atoms: C_7  and  N_10
REMARK    3  A    between atoms: N_10  and  C_12
REMARK    4  A    between atoms: C_15  and  S_18
REMARK    5  A    between atoms: S_18  and  N_21
REMARK    6  A    between atoms: O_24  and  C_25
REMARK                            x       y       z     vdW  Elec       q    Type
REMARK                         _______ _______ _______ _____ _____    ______ ____
ROOT
ATOM      1  N   UNL     1      32.908 -23.655 -14.121  0.00  0.00    -0.299 NA
ATOM      2  N   UNL     1      31.867 -23.265 -16.253  0.00  0.00    -0.106 N 
ATOM      3  N   UNL     1      30.613 -23.096 -16.749  0.00  0.00    -0.139 NA
ATOM      4  N   UNL     1      30.523 -23.412 -14.496  0.00  0.00    -0.145 NA
ATOM      5  C   UNL     1      34.024 -23.648 -14.777  0.00  0.00    +0.291 C 
ATOM      6  C   UNL     1      34.218 -23.455 -16.231  0.00  0.00    +0.105 C 
ATOM      7  C   UNL     1      33.091 -23.264 -16.938  0.00  0.00    +0.142 C 
ATOM      8  C   UNL     1      31.786 -23.458 -14.869  0.00  0.00    +0.178 C 
ATOM      9  C   UNL     1      29.859 -23.192 -15.658  0.00  0.00    +0.230 C 
ENDROOT
BRANCH   7  10
ATOM     10  N   UNL     1      33.060 -23.068 -18.289  0.00  0.00    -0.299 N 
ATOM     11  H   UNL     1      32.465 -23.666 -18.796  0.00  0.00    +0.153 HD
BRANCH  10  12
ATOM     12  C   UNL     1      33.767 -22.127 -19.046  0.00  0.00    +0.049 C 
ATOM     13  C   UNL     1      35.166 -22.155 -19.087  0.00  0.00    +0.016 C 
ATOM     14  C   UNL     1      33.082 -21.144 -19.774  0.00  0.00    +0.016 C 
ATOM     15  C   UNL     1      35.180 -20.241 -20.562  0.00  0.00    +0.122 C 
ATOM     16  C   UNL     1      35.870 -21.217 -19.842  0.00  0.00    +0.021 C 
ATOM     17  C   UNL     1      33.786 -20.205 -20.527  0.00  0.00    +0.021 C 
BRANCH  15  18
ATOM     18  S   UNL     1      36.060 -19.066 -21.506  0.00  0.00    +0.057 S 
ATOM     19  O   UNL     1      37.466 -19.133 -21.128  0.00  0.00    -0.153 OA
ATOM     20  O   UNL     1      35.680 -19.215 -22.903  0.00  0.00    -0.153 OA
BRANCH  18  21
ATOM     21  N   UNL     1      35.399 -17.608 -20.910  0.00  0.00    -0.203 NA
ATOM     22  H   UNL     1      36.101 -17.117 -20.355  0.00  0.00    +0.144 HD
ATOM     23  H   UNL     1      34.589 -17.816 -20.325  0.00  0.00    +0.144 HD
ENDBRANCH  18  21
ENDBRANCH  15  18
ENDBRANCH  10  12
ENDBRANCH   7  10
BRANCH   5  24
ATOM     24  O   UNL     1      35.196 -23.836 -14.123  0.00  0.00    -0.455 OA
BRANCH  24  25
ATOM     25  C   UNL     1      35.315 -25.168 -13.626  0.00  0.00    +0.169 C 
ATOM     26  C   UNL     1      36.330 -25.944 -14.467  0.00  0.00    +0.044 C 
ATOM     27  C   UNL     1      35.729 -25.108 -12.156  0.00  0.00    +0.044 C 
ATOM     28  C   UNL     1      37.753 -25.412 -14.287  0.00  0.00    +0.004 C 
ATOM     29  C   UNL     1      37.153 -24.580 -11.979  0.00  0.00    +0.004 C 
ATOM     30  C   UNL     1      38.155 -25.371 -12.815  0.00  0.00    +0.000 C 
ENDBRANCH  24  25
ENDBRANCH   5  24
TORSDOF 6
ENDMDL
MODEL 2
REMARK VINA RESULT:     -10.8      1.161      1.405
REMARK  Name = 11574606
REMARK  6 active torsions:
REMARK  status: ('A' for Active; 'I' for Inactive)
REMARK    1  A    between atoms: C_5  and  O_24
REMARK    2  A    between atoms: C_7  and  N_10
REMARK    3  A    between atoms: N_10  and  C_12
REMARK    4  A    between atoms: C_15  and  S_18
REMARK    5  A    between atoms: S_18  and  N_21
REMARK    6  A    between atoms: O_24  and  C_25
REMARK                            x       y       z     vdW  Elec       q    Type
REMARK                         _______ _______ _______ _____ _____    ______ ____
ROOT
ATOM      1  N   UNL     1      33.402 -23.903 -13.694  0.00  0.00    -0.299 NA
ATOM      2  N   UNL     1      32.193 -23.398 -15.711  0.00  0.00    -0.106 N 
ATOM      3  N   UNL     1      30.925 -23.068 -16.072  0.00  0.00    -0.139 NA
ATOM      4  N   UNL     1      31.043 -23.347 -13.815  0.00  0.00    -0.145 NA
ATOM      5  C   UNL     1      34.431 -24.051 -14.466  0.00  0.00    +0.291 C 
ATOM      6  C   UNL     1      34.487 -23.900 -15.937  0.00  0.00    +0.105 C 
ATOM      7  C   UNL     1      33.324 -23.567 -16.523  0.00  0.00    +0.142 C 
ATOM      8  C   UNL     1      32.240 -23.565 -14.321  0.00  0.00    +0.178 C 
ATOM      9  C   UNL     1      30.290 -23.052 -14.905  0.00  0.00    +0.230 C 
ENDROOT
BRANCH   7  10
ATOM     10  N   UNL     1      33.171 -23.381 -17.867  0.00  0.00    -0.299 N 
ATOM     11  H   UNL     1      32.574 -24.017 -18.323  0.00  0.00    +0.153 HD
BRANCH  10  12
ATOM     12  C   UNL     1      33.755 -22.403 -18.680  0.00  0.00    +0.049 C 
ATOM     13  C   UNL     1      35.147 -22.260 -18.730  0.00  0.00    +0.016 C 
ATOM     14  C   UNL     1      32.953 -21.556 -19.457  0.00  0.00    +0.016 C 
ATOM     15  C   UNL     1      34.923 -20.446 -20.309  0.00  0.00    +0.122 C 
ATOM     16  C   UNL     1      35.729 -21.286 -19.541  0.00  0.00    +0.021 C 
ATOM     17  C   UNL     1      33.535 -20.581 -20.267  0.00  0.00    +0.021 C 
BRANCH  15  18
ATOM     18  S   UNL     1      35.650 -19.225 -21.324  0.00  0.00    +0.057 S 
ATOM     19  O   UNL     1      35.650 -19.711 -22.698  0.00  0.00    -0.153 OA
ATOM     20  O   UNL     1      35.041 -17.940 -21.011  0.00  0.00    -0.153 OA
BRANCH  18  21
ATOM     21  N   UNL     1      37.255 -19.229 -20.738  0.00  0.00    -0.203 NA
ATOM     22  H   UNL     1      37.755 -18.422 -21.113  0.00  0.00    +0.144 HD
ATOM     23  H   UNL     1      37.722 -20.086 -21.033  0.00  0.00    +0.144 HD
ENDBRANCH  18  21
ENDBRANCH  15  18
ENDBRANCH  10  12
ENDBRANCH   7  10
BRANCH   5  24
ATOM     24  O   UNL     1      35.632 -24.387 -13.938  0.00  0.00    -0.455 OA
BRANCH  24  25
ATOM     25  C   UNL     1      36.516 -24.909 -14.927  0.00  0.00    +0.169 C 
ATOM     26  C   UNL     1      37.906 -24.294 -14.756  0.00  0.00    +0.044 C 
ATOM     27  C   UNL     1      36.554 -26.432 -14.798  0.00  0.00    +0.044 C 
ATOM     28  C   UNL     1      38.580 -24.748 -13.460  0.00  0.00    +0.004 C 
ATOM     29  C   UNL     1      37.233 -26.883 -13.504  0.00  0.00    +0.004 C 
ATOM     30  C   UNL     1      38.621 -26.270 -13.352  0.00  0.00    +0.000 C 
ENDBRANCH  24  25
ENDBRANCH   5  24
TORSDOF 6
ENDMDL
MODEL 3
REMARK VINA RESULT:     -10.1      1.908      5.112
REMARK  Name = 11574606
REMARK  6 active torsions:
REMARK  status: ('A' for Active; 'I' for Inactive)
REMARK    1  A    between atoms: C_5  and  O_24
REMARK    2  A    between atoms: C_7  and  N_10
REMARK    3  A    between atoms: N_10  and  C_12
REMARK    4  A    between atoms: C_15  and  S_18
REMARK    5  A    between atoms: S_18  and  N_21
REMARK    6  A    between atoms: O_24  and  C_25
REMARK                            x       y       z     vdW  Elec       q    Type
REMARK                         _______ _______ _______ _____ _____    ______ ____
ROOT
ATOM      1  N   UNL     1      32.204 -23.792 -14.967  0.00  0.00    -0.299 NA
ATOM      2  N   UNL     1      34.449 -23.759 -15.829  0.00  0.00    -0.106 N 
ATOM      3  N   UNL     1      35.704 -24.038 -15.389  0.00  0.00    -0.139 NA
ATOM      4  N   UNL     1      34.194 -24.412 -13.725  0.00  0.00    -0.145 NA
ATOM      5  C   UNL     1      31.853 -23.375 -16.141  0.00  0.00    +0.291 C 
ATOM      6  C   UNL     1      32.728 -23.095 -17.300  0.00  0.00    +0.105 C 
ATOM      7  C   UNL     1      34.039 -23.306 -17.092  0.00  0.00    +0.142 C 
ATOM      8  C   UNL     1      33.540 -23.996 -14.790  0.00  0.00    +0.178 C 
ATOM      9  C   UNL     1      35.488 -24.421 -14.134  0.00  0.00    +0.230 C 
ENDROOT
BRANCH   7  10
ATOM     10  N   UNL     1      35.006 -23.107 -18.036  0.00  0.00    -0.299 N 
ATOM     11  H   UNL     1      35.718 -23.786 -18.071  0.00  0.00    +0.153 HD
BRANCH  10  12
ATOM     12  C   UNL     1      35.116 -22.061 -18.958  0.00  0.00    +0.049 C 
ATOM     13  C   UNL     1      33.970 -21.500 -19.535  0.00  0.00    +0.016 C 
ATOM     14  C   UNL     1      36.375 -21.560 -19.316  0.00  0.00    +0.016 C 
ATOM     15  C   UNL     1      35.337 -19.965 -20.805  0.00  0.00    +0.122 C 
ATOM     16  C   UNL     1      34.079 -20.456 -20.455  0.00  0.00    +0.021 C 
ATOM     17  C   UNL     1      36.484 -20.518 -20.236  0.00  0.00    +0.021 C 
BRANCH  15  18
ATOM     18  S   UNL     1      35.476 -18.661 -21.956  0.00  0.00    +0.057 S 
ATOM     19  O   UNL     1      34.784 -19.051 -23.178  0.00  0.00    -0.153 OA
ATOM     20  O   UNL     1      35.119 -17.416 -21.291  0.00  0.00    -0.153 OA
BRANCH  18  21
ATOM     21  N   UNL     1      37.158 -18.663 -22.251  0.00  0.00    -0.203 NA
ATOM     22  H   UNL     1      37.636 -19.148 -21.490  0.00  0.00    +0.144 HD
ATOM     23  H   UNL     1      37.496 -17.702 -22.306  0.00  0.00    +0.144 HD
ENDBRANCH  18  21
ENDBRANCH  15  18
ENDBRANCH  10  12
ENDBRANCH   7  10
BRANCH   5  24
ATOM     24  O   UNL     1      30.547 -23.143 -16.415  0.00  0.00    -0.455 OA
BRANCH  24  25
ATOM     25  C   UNL     1      29.697 -24.095 -15.778  0.00  0.00    +0.169 C 
ATOM     26  C   UNL     1      29.198 -23.534 -14.446  0.00  0.00    +0.044 C 
ATOM     27  C   UNL     1      28.539 -24.425 -16.719  0.00  0.00    +0.044 C 
ATOM     28  C   UNL     1      28.253 -22.347 -14.639  0.00  0.00    +0.004 C 
ATOM     29  C   UNL     1      27.593 -23.239 -16.907  0.00  0.00    +0.004 C 
ATOM     30  C   UNL     1      27.095 -22.697 -15.570  0.00  0.00    +0.000 C 
ENDBRANCH  24  25
ENDBRANCH   5  24
TORSDOF 6
ENDMDL
MODEL 4
REMARK VINA RESULT:     -10.0      3.691      7.389
REMARK  Name = 11574606
REMARK  6 active torsions:
REMARK  status: ('A' for Active; 'I' for Inactive)
REMARK    1  A    between atoms: C_5  and  O_24
REMARK    2  A    between atoms: C_7  and  N_10
REMARK    3  A    between atoms: N_10  and  C_12
REMARK    4  A    between atoms: C_15  and  S_18
REMARK    5  A    between atoms: S_18  and  N_21
REMARK    6  A    between atoms: O_24  and  C_25
REMARK                            x       y       z     vdW  Elec       q    Type
REMARK                         _______ _______ _______ _____ _____    ______ ____
ROOT
ATOM      1  N   UNL     1      37.489 -22.785 -16.335  0.00  0.00    -0.299 NA
ATOM      2  N   UNL     1      36.287 -24.061 -14.688  0.00  0.00    -0.106 N 
ATOM      3  N   UNL     1      36.569 -24.891 -13.650  0.00  0.00    -0.139 NA
ATOM      4  N   UNL     1      38.501 -24.169 -14.618  0.00  0.00    -0.145 NA
ATOM      5  C   UNL     1      36.321 -22.421 -16.760  0.00  0.00    +0.291 C 
ATOM      6  C   UNL     1      35.000 -22.815 -16.224  0.00  0.00    +0.105 C 
ATOM      7  C   UNL     1      35.036 -23.649 -15.171  0.00  0.00    +0.142 C 
ATOM      8  C   UNL     1      37.487 -23.631 -15.266  0.00  0.00    +0.178 C 
ATOM      9  C   UNL     1      37.899 -24.915 -13.657  0.00  0.00    +0.230 C 
ENDROOT
BRANCH   7  10
ATOM     10  N   UNL     1      33.925 -24.126 -14.534  0.00  0.00    -0.299 N 
ATOM     11  H   UNL     1      34.091 -24.676 -13.735  0.00  0.00    +0.153 HD
BRANCH  10  12
ATOM     12  C   UNL     1      32.581 -23.935 -14.873  0.00  0.00    +0.049 C 
ATOM     13  C   UNL     1      32.228 -23.500 -16.157  0.00  0.00    +0.016 C 
ATOM     14  C   UNL     1      31.571 -24.176 -13.932  0.00  0.00    +0.016 C 
ATOM     15  C   UNL     1      29.889 -23.552 -15.551  0.00  0.00    +0.122 C 
ATOM     16  C   UNL     1      30.888 -23.309 -16.495  0.00  0.00    +0.021 C 
ATOM     17  C   UNL     1      30.232 -23.985 -14.270  0.00  0.00    +0.021 C 
BRANCH  15  18
ATOM     18  S   UNL     1      28.213 -23.312 -15.972  0.00  0.00    +0.057 S 
ATOM     19  O   UNL     1      27.420 -23.367 -14.751  0.00  0.00    -0.153 OA
ATOM     20  O   UNL     1      28.115 -22.151 -16.846  0.00  0.00    -0.153 OA
BRANCH  18  21
ATOM     21  N   UNL     1      27.904 -24.718 -16.893  0.00  0.00    -0.203 NA
ATOM     22  H   UNL     1      27.282 -24.488 -17.668  0.00  0.00    +0.144 HD
ATOM     23  H   UNL     1      27.463 -25.422 -16.301  0.00  0.00    +0.144 HD
ENDBRANCH  18  21
ENDBRANCH  15  18
ENDBRANCH  10  12
ENDBRANCH   7  10
BRANCH   5  24
ATOM     24  O   UNL     1      36.217 -21.582 -17.818  0.00  0.00    -0.455 OA
BRANCH  24  25
ATOM     25  C   UNL     1      35.973 -22.291 -19.031  0.00  0.00    +0.169 C 
ATOM     26  C   UNL     1      34.497 -22.681 -19.115  0.00  0.00    +0.044 C 
ATOM     27  C   UNL     1      36.390 -21.408 -20.208  0.00  0.00    +0.044 C 
ATOM     28  C   UNL     1      33.588 -21.461 -19.275  0.00  0.00    +0.004 C 
ATOM     29  C   UNL     1      35.477 -20.192 -20.368  0.00  0.00    +0.004 C 
ATOM     30  C   UNL     1      34.010 -20.598 -20.461  0.00  0.00    +0.000 C 
ENDBRANCH  24  25
ENDBRANCH   5  24
TORSDOF 6
ENDMDL
MODEL 5
REMARK VINA RESULT:      -9.9      3.875      7.628
REMARK  Name = 11574606
REMARK  6 active torsions:
REMARK  status: ('A' for Active; 'I' for Inactive)
REMARK    1  A    between atoms: C_5  and  O_24
REMARK    2  A    between atoms: C_7  and  N_10
REMARK    3  A    between atoms: N_10  and  C_12
REMARK    4  A    between atoms: C_15  and  S_18
REMARK    5  A    between atoms: S_18  and  N_21
REMARK    6  A    between atoms: O_24  and  C_25
REMARK                            x       y       z     vdW  Elec       q    Type
REMARK                         _______ _______ _______ _____ _____    ______ ____
ROOT
ATOM      1  N   UNL     1      32.694 -22.260 -18.760  0.00  0.00    -0.299 NA
ATOM      2  N   UNL     1      35.063 -22.111 -18.372  0.00  0.00    -0.106 N 
ATOM      3  N   UNL     1      36.144 -21.519 -18.944  0.00  0.00    -0.139 NA
ATOM      4  N   UNL     1      34.265 -21.019 -20.130  0.00  0.00    -0.145 NA
ATOM      5  C   UNL     1      32.669 -23.006 -17.702  0.00  0.00    +0.291 C 
ATOM      6  C   UNL     1      33.809 -23.404 -16.848  0.00  0.00    +0.105 C 
ATOM      7  C   UNL     1      35.005 -22.923 -17.230  0.00  0.00    +0.142 C 
ATOM      8  C   UNL     1      33.922 -21.790 -19.118  0.00  0.00    +0.178 C 
ATOM      9  C   UNL     1      35.608 -20.884 -19.981  0.00  0.00    +0.230 C 
ENDROOT
BRANCH   7  10
ATOM     10  N   UNL     1      36.176 -23.175 -16.573  0.00  0.00    -0.299 N 
ATOM     11  H   UNL     1      36.999 -22.926 -17.053  0.00  0.00    +0.153 HD
BRANCH  10  12
ATOM     12  C   UNL     1      36.357 -23.744 -15.308  0.00  0.00    +0.049 C 
ATOM     13  C   UNL     1      35.895 -25.038 -15.039  0.00  0.00    +0.016 C 
ATOM     14  C   UNL     1      37.004 -23.025 -14.294  0.00  0.00    +0.016 C 
ATOM     15  C   UNL     1      36.720 -24.881 -12.773  0.00  0.00    +0.122 C 
ATOM     16  C   UNL     1      36.076 -25.605 -13.777  0.00  0.00    +0.021 C 
ATOM     17  C   UNL     1      37.183 -23.591 -13.032  0.00  0.00    +0.021 C 
BRANCH  15  18
ATOM     18  S   UNL     1      36.945 -25.589 -11.194  0.00  0.00    +0.057 S 
ATOM     19  O   UNL     1      37.234 -27.007 -11.363  0.00  0.00    -0.153 OA
ATOM     20  O   UNL     1      37.863 -24.750 -10.437  0.00  0.00    -0.153 OA
BRANCH  18  21
ATOM     21  N   UNL     1      35.378 -25.421 -10.535  0.00  0.00    -0.203 NA
ATOM     22  H   UNL     1      35.404 -24.758  -9.759  0.00  0.00    +0.144 HD
ATOM     23  H   UNL     1      35.052 -26.326 -10.197  0.00  0.00    +0.144 HD
ENDBRANCH  18  21
ENDBRANCH  15  18
ENDBRANCH  10  12
ENDBRANCH   7  10
BRANCH   5  24
ATOM     24  O   UNL     1      31.495 -23.522 -17.265  0.00  0.00    -0.455 OA
BRANCH  24  25
ATOM     25  C   UNL     1      31.002 -22.821 -16.125  0.00  0.00    +0.169 C 
ATOM     26  C   UNL     1      29.473 -22.826 -16.135  0.00  0.00    +0.044 C 
ATOM     27  C   UNL     1      31.559 -23.481 -14.864  0.00  0.00    +0.044 C 
ATOM     28  C   UNL     1      28.901 -24.227 -15.914  0.00  0.00    +0.004 C 
ATOM     29  C   UNL     1      30.982 -24.880 -14.643  0.00  0.00    +0.004 C 
ATOM     30  C   UNL     1      29.457 -24.867 -14.645  0.00  0.00    +0.000 C 
ENDBRANCH  24  25
ENDBRANCH   5  24
TORSDOF 6
ENDMDL
MODEL 6
REMARK VINA RESULT:      -9.9      7.651     11.176
REMARK  Name = 11574606
REMARK  6 active torsions:
REMARK  status: ('A' for Active; 'I' for Inactive)
REMARK    1  A    between atoms: C_5  and  O_24
REMARK    2  A    between atoms: C_7  and  N_10
REMARK    3  A    between atoms: N_10  and  C_12
REMARK    4  A    between atoms: C_15  and  S_18
REMARK    5  A    between atoms: S_18  and  N_21
REMARK    6  A    between atoms: O_24  and  C_25
REMARK                            x       y       z     vdW  Elec       q    Type
REMARK                         _______ _______ _______ _____ _____    ______ ____
ROOT
ATOM      1  N   UNL     1      35.047 -16.517 -23.966  0.00  0.00    -0.299 NA
ATOM      2  N   UNL     1      33.319 -14.851 -24.121  0.00  0.00    -0.106 N 
ATOM      3  N   UNL     1      32.660 -14.166 -25.093  0.00  0.00    -0.139 NA
ATOM      4  N   UNL     1      34.181 -15.579 -26.030  0.00  0.00    -0.145 NA
ATOM      5  C   UNL     1      34.882 -16.425 -22.685  0.00  0.00    +0.291 C 
ATOM      6  C   UNL     1      33.935 -15.554 -21.955  0.00  0.00    +0.105 C 
ATOM      7  C   UNL     1      33.163 -14.773 -22.729  0.00  0.00    +0.142 C 
ATOM      8  C   UNL     1      34.247 -15.711 -24.720  0.00  0.00    +0.178 C 
ATOM      9  C   UNL     1      33.215 -14.642 -26.203  0.00  0.00    +0.230 C 
ENDROOT
BRANCH   7  10
ATOM     10  N   UNL     1      32.228 -13.901 -22.245  0.00  0.00    -0.299 N 
ATOM     11  H   UNL     1      31.360 -14.295 -22.001  0.00  0.00    +0.153 HD
BRANCH  10  12
ATOM     12  C   UNL     1      32.346 -12.520 -22.054  0.00  0.00    +0.049 C 
ATOM     13  C   UNL     1      33.083 -11.740 -22.953  0.00  0.00    +0.016 C 
ATOM     14  C   UNL     1      31.727 -11.901 -20.960  0.00  0.00    +0.016 C 
ATOM     15  C   UNL     1      32.581  -9.755 -21.670  0.00  0.00    +0.122 C 
ATOM     16  C   UNL     1      33.200 -10.363 -22.762  0.00  0.00    +0.021 C 
ATOM     17  C   UNL     1      31.844 -10.525 -20.769  0.00  0.00    +0.021 C 
BRANCH  15  18
ATOM     18  S   UNL     1      32.728  -8.032 -21.430  0.00  0.00    +0.057 S 
ATOM     19  O   UNL     1      33.883  -7.561 -22.182  0.00  0.00    -0.153 OA
ATOM     20  O   UNL     1      31.424  -7.421 -21.648  0.00  0.00    -0.153 OA
BRANCH  18  21
ATOM     21  N   UNL     1      33.092  -7.966 -19.762  0.00  0.00    -0.203 NA
ATOM     22  H   UNL     1      33.832  -8.637 -19.548  0.00  0.00    +0.144 HD
ATOM     23  H   UNL     1      32.258  -8.197 -19.222  0.00  0.00    +0.144 HD
ENDBRANCH  18  21
ENDBRANCH  15  18
ENDBRANCH  10  12
ENDBRANCH   7  10
BRANCH   5  24
ATOM     24  O   UNL     1      35.629 -17.186 -21.849  0.00  0.00    -0.455 OA
BRANCH  24  25
ATOM     25  C   UNL     1      36.073 -18.384 -22.482  0.00  0.00    +0.169 C 
ATOM     26  C   UNL     1      37.354 -18.881 -21.810  0.00  0.00    +0.044 C 
ATOM     27  C   UNL     1      34.955 -19.424 -22.403  0.00  0.00    +0.044 C 
ATOM     28  C   UNL     1      37.104 -19.355 -20.377  0.00  0.00    +0.004 C 
ATOM     29  C   UNL     1      34.711 -19.899 -20.971  0.00  0.00    +0.004 C 
ATOM     30  C   UNL     1      35.995 -20.402 -20.317  0.00  0.00    +0.000 C 
ENDBRANCH  24  25
ENDBRANCH   5  24
TORSDOF 6
ENDMDL
MODEL 7
REMARK VINA RESULT:      -9.9      3.397      7.126
REMARK  Name = 11574606
REMARK  6 active torsions:
REMARK  status: ('A' for Active; 'I' for Inactive)
REMARK    1  A    between atoms: C_5  and  O_24
REMARK    2  A    between atoms: C_7  and  N_10
REMARK    3  A    between atoms: N_10  and  C_12
REMARK    4  A    between atoms: C_15  and  S_18
REMARK    5  A    between atoms: S_18  and  N_21
REMARK    6  A    between atoms: O_24  and  C_25
REMARK                            x       y       z     vdW  Elec       q    Type
REMARK                         _______ _______ _______ _____ _____    ______ ____
ROOT
ATOM      1  N   UNL     1      31.750 -23.260 -16.455  0.00  0.00    -0.299 NA
ATOM      2  N   UNL     1      32.284 -24.695 -14.601  0.00  0.00    -0.106 N 
ATOM      3  N   UNL     1      31.630 -25.514 -13.736  0.00  0.00    -0.139 NA
ATOM      4  N   UNL     1      30.149 -24.570 -15.186  0.00  0.00    -0.145 NA
ATOM      5  C   UNL     1      33.019 -23.012 -16.500  0.00  0.00    +0.291 C 
ATOM      6  C   UNL     1      34.079 -23.555 -15.623  0.00  0.00    +0.105 C 
ATOM      7  C   UNL     1      33.655 -24.406 -14.673  0.00  0.00    +0.142 C 
ATOM      8  C   UNL     1      31.355 -24.127 -15.481  0.00  0.00    +0.178 C 
ATOM      9  C   UNL     1      30.367 -25.399 -14.134  0.00  0.00    +0.230 C 
ENDROOT
BRANCH   7  10
ATOM     10  N   UNL     1      34.478 -25.014 -13.767  0.00  0.00    -0.299 N 
ATOM     11  H   UNL     1      34.047 -25.330 -12.941  0.00  0.00    +0.153 HD
BRANCH  10  12
ATOM     12  C   UNL     1      35.854 -25.243 -13.863  0.00  0.00    +0.049 C 
ATOM     13  C   UNL     1      36.764 -24.354 -13.279  0.00  0.00    +0.016 C 
ATOM     14  C   UNL     1      36.340 -26.368 -14.543  0.00  0.00    +0.016 C 
ATOM     15  C   UNL     1      38.611 -25.705 -14.054  0.00  0.00    +0.122 C 
ATOM     16  C   UNL     1      38.137 -24.583 -13.374  0.00  0.00    +0.021 C 
ATOM     17  C   UNL     1      37.712 -26.597 -14.639  0.00  0.00    +0.021 C 
BRANCH  15  18
ATOM     18  S   UNL     1      40.329 -25.993 -14.174  0.00  0.00    +0.057 S 
ATOM     19  O   UNL     1      41.025 -24.746 -13.882  0.00  0.00    -0.153 OA
ATOM     20  O   UNL     1      40.651 -27.195 -13.419  0.00  0.00    -0.153 OA
BRANCH  18  21
ATOM     21  N   UNL     1      40.486 -26.333 -15.841  0.00  0.00    -0.203 NA
ATOM     22  H   UNL     1      41.472 -26.307 -16.102  0.00  0.00    +0.144 HD
ATOM     23  H   UNL     1      39.973 -25.636 -16.381  0.00  0.00    +0.144 HD
ENDBRANCH  18  21
ENDBRANCH  15  18
ENDBRANCH  10  12
ENDBRANCH   7  10
BRANCH   5  24
ATOM     24  O   UNL     1      33.511 -22.162 -17.434  0.00  0.00    -0.455 OA
BRANCH  24  25
ATOM     25  C   UNL     1      33.555 -22.765 -18.726  0.00  0.00    +0.169 C 
ATOM     26  C   UNL     1      32.783 -21.903 -19.726  0.00  0.00    +0.044 C 
ATOM     27  C   UNL     1      35.017 -22.935 -19.138  0.00  0.00    +0.044 C 
ATOM     28  C   UNL     1      33.473 -20.562 -19.981  0.00  0.00    +0.004 C 
ATOM     29  C   UNL     1      35.702 -21.594 -19.397  0.00  0.00    +0.004 C 
ATOM     30  C   UNL     1      34.927 -20.750 -20.405  0.00  0.00    +0.000 C 
ENDBRANCH  24  25
ENDBRANCH   5  24
TORSDOF 6
ENDMDL
MODEL 8
REMARK VINA RESULT:      -9.3      1.968      4.587
REMARK  Name = 11574606
REMARK  6 active torsions:
REMARK  status: ('A' for Active; 'I' for Inactive)
REMARK    1  A    between atoms: C_5  and  O_24
REMARK    2  A    between atoms: C_7  and  N_10
REMARK    3  A    between atoms: N_10  and  C_12
REMARK    4  A    between atoms: C_15  and  S_18
REMARK    5  A    between atoms: S_18  and  N_21
REMARK    6  A    between atoms: O_24  and  C_25
REMARK                            x       y       z     vdW  Elec       q    Type
REMARK                         _______ _______ _______ _____ _____    ______ ____
ROOT
ATOM      1  N   UNL     1      33.859 -24.033 -13.993  0.00  0.00    -0.299 NA
ATOM      2  N   UNL     1      35.998 -23.462 -14.932  0.00  0.00    -0.106 N 
ATOM      3  N   UNL     1      37.285 -23.338 -14.512  0.00  0.00    -0.139 NA
ATOM      4  N   UNL     1      35.953 -23.953 -12.770  0.00  0.00    -0.145 NA
ATOM      5  C   UNL     1      33.396 -23.845 -15.187  0.00  0.00    +0.291 C 
ATOM      6  C   UNL     1      34.149 -23.447 -16.397  0.00  0.00    +0.105 C 
ATOM      7  C   UNL     1      35.468 -23.265 -16.216  0.00  0.00    +0.142 C 
ATOM      8  C   UNL     1      35.200 -23.840 -13.846  0.00  0.00    +0.178 C 
ATOM      9  C   UNL     1      37.195 -23.642 -13.222  0.00  0.00    +0.230 C 
ENDROOT
BRANCH   7  10
ATOM     10  N   UNL     1      36.333 -22.897 -17.207  0.00  0.00    -0.299 N 
ATOM     11  H   UNL     1      37.238 -23.281 -17.151  0.00  0.00    +0.153 HD
BRANCH  10  12
ATOM     12  C   UNL     1      36.099 -22.045 -18.291  0.00  0.00    +0.049 C 
ATOM     13  C   UNL     1      37.119 -21.217 -18.776  0.00  0.00    +0.016 C 
ATOM     14  C   UNL     1      34.840 -22.010 -18.907  0.00  0.00    +0.016 C 
ATOM     15  C   UNL     1      35.628 -20.338 -20.463  0.00  0.00    +0.122 C 
ATOM     16  C   UNL     1      36.885 -20.367 -19.858  0.00  0.00    +0.021 C 
ATOM     17  C   UNL     1      34.606 -21.160 -19.987  0.00  0.00    +0.021 C 
BRANCH  15  18
ATOM     18  S   UNL     1      35.335 -19.274 -21.815  0.00  0.00    +0.057 S 
ATOM     19  O   UNL     1      36.601 -19.038 -22.497  0.00  0.00    -0.153 OA
ATOM     20  O   UNL     1      34.194 -19.781 -22.565  0.00  0.00    -0.153 OA
BRANCH  18  21
ATOM     21  N   UNL     1      34.868 -17.843 -21.008  0.00  0.00    -0.203 NA
ATOM     22  H   UNL     1      34.983 -17.967 -20.001  0.00  0.00    +0.144 HD
ATOM     23  H   UNL     1      33.890 -17.638 -21.216  0.00  0.00    +0.144 HD
ENDBRANCH  18  21
ENDBRANCH  15  18
ENDBRANCH  10  12
ENDBRANCH   7  10
BRANCH   5  24
ATOM     24  O   UNL     1      32.075 -24.012 -15.436  0.00  0.00    -0.455 OA
BRANCH  24  25
ATOM     25  C   UNL     1      31.308 -24.015 -14.233  0.00  0.00    +0.169 C 
ATOM     26  C   UNL     1      30.215 -22.948 -14.312  0.00  0.00    +0.044 C 
ATOM     27  C   UNL     1      30.719 -25.411 -14.030  0.00  0.00    +0.044 C 
ATOM     28  C   UNL     1      29.156 -23.288 -15.362  0.00  0.00    +0.004 C 
ATOM     29  C   UNL     1      29.658 -25.746 -15.078  0.00  0.00    +0.004 C 
ATOM     30  C   UNL     1      28.569 -24.679 -15.138  0.00  0.00    +0.000 C 
ENDBRANCH  24  25
ENDBRANCH   5  24
TORSDOF 6
ENDMDL
MODEL 9
REMARK VINA RESULT:      -9.2      3.361      8.422
REMARK  Name = 11574606
REMARK  6 active torsions:
REMARK  status: ('A' for Active; 'I' for Inactive)
REMARK    1  A    between atoms: C_5  and  O_24
REMARK    2  A    between atoms: C_7  and  N_10
REMARK    3  A    between atoms: N_10  and  C_12
REMARK    4  A    between atoms: C_15  and  S_18
REMARK    5  A    between atoms: S_18  and  N_21
REMARK    6  A    between atoms: O_24  and  C_25
REMARK                            x       y       z     vdW  Elec       q    Type
REMARK                         _______ _______ _______ _____ _____    ______ ____
ROOT
ATOM      1  N   UNL     1      34.063 -21.679 -19.359  0.00  0.00    -0.299 NA
ATOM      2  N   UNL     1      34.834 -22.901 -17.436  0.00  0.00    -0.106 N 
ATOM      3  N   UNL     1      34.307 -23.687 -16.461  0.00  0.00    -0.139 NA
ATOM      4  N   UNL     1      32.662 -22.989 -17.873  0.00  0.00    -0.145 NA
ATOM      5  C   UNL     1      35.303 -21.341 -19.517  0.00  0.00    +0.291 C 
ATOM      6  C   UNL     1      36.459 -21.724 -18.678  0.00  0.00    +0.105 C 
ATOM      7  C   UNL     1      36.170 -22.518 -17.633  0.00  0.00    +0.142 C 
ATOM      8  C   UNL     1      33.806 -22.485 -18.290  0.00  0.00    +0.178 C 
ATOM      9  C   UNL     1      33.016 -23.703 -16.774  0.00  0.00    +0.230 C 
ENDROOT
BRANCH   7  10
ATOM     10  N   UNL     1      37.097 -22.979 -16.742  0.00  0.00    -0.299 N 
ATOM     11  H   UNL     1      38.035 -22.936 -17.038  0.00  0.00    +0.153 HD
BRANCH  10  12
ATOM     12  C   UNL     1      36.886 -23.508 -15.464  0.00  0.00    +0.049 C 
ATOM     13  C   UNL     1      36.896 -24.893 -15.258  0.00  0.00    +0.016 C 
ATOM     14  C   UNL     1      36.663 -22.657 -14.373  0.00  0.00    +0.016 C 
ATOM     15  C   UNL     1      36.463 -24.565 -12.904  0.00  0.00    +0.122 C 
ATOM     16  C   UNL     1      36.686 -25.419 -13.984  0.00  0.00    +0.021 C 
ATOM     17  C   UNL     1      36.452 -23.183 -13.100  0.00  0.00    +0.021 C 
BRANCH  15  18
ATOM     18  S   UNL     1      36.199 -25.222 -11.309  0.00  0.00    +0.057 S 
ATOM     19  O   UNL     1      37.022 -24.480 -10.364  0.00  0.00    -0.153 OA
ATOM     20  O   UNL     1      34.764 -25.334 -11.086  0.00  0.00    -0.153 OA
BRANCH  18  21
ATOM     21  N   UNL     1      36.849 -26.791 -11.492  0.00  0.00    -0.203 NA
ATOM     22  H   UNL     1      37.733 -26.854 -10.986  0.00  0.00    +0.144 HD
ATOM     23  H   UNL     1      37.010 -26.980 -12.482  0.00  0.00    +0.144 HD
ENDBRANCH  18  21
ENDBRANCH  15  18
ENDBRANCH  10  12
ENDBRANCH   7  10
BRANCH   5  24
ATOM     24  O   UNL     1      35.661 -20.542 -20.551  0.00  0.00    -0.455 OA
BRANCH  24  25
ATOM     25  C   UNL     1      34.522 -20.028 -21.239  0.00  0.00    +0.169 C 
ATOM     26  C   UNL     1      34.171 -18.642 -20.696  0.00  0.00    +0.044 C 
ATOM     27  C   UNL     1      34.831 -19.985 -22.735  0.00  0.00    +0.044 C 
ATOM     28  C   UNL     1      35.240 -17.603 -21.037  0.00  0.00    +0.004 C 
ATOM     29  C   UNL     1      35.896 -18.943 -23.074  0.00  0.00    +0.004 C 
ATOM     30  C   UNL     1      35.527 -17.564 -22.536  0.00  0.00    +0.000 C 
ENDBRANCH  24  25
ENDBRANCH   5  24
TORSDOF 6
ENDMDL
