MODEL 1
REMARK VINA RESULT:     -11.6      0.000      0.000
REMARK  Name = 42642648
REMARK  5 active torsions:
REMARK  status: ('A' for Active; 'I' for Inactive)
REMARK    1  A    between atoms: N_1  and  C_22
REMARK    2  A    between atoms: C_4  and  N_15
REMARK    3  A    between atoms: C_25  and  O_28
REMARK    4  A    between atoms: O_28  and  C_29
REMARK    5  A    between atoms: C_29  and  C_32
REMARK                            x       y       z     vdW  Elec       q    Type
REMARK                         _______ _______ _______ _____ _____    ______ ____
ROOT
ATOM      1  N   UNL     1      33.484 -23.098 -17.771  0.00  0.00    -0.301 N 
ATOM      2  N   UNL     1      30.320 -23.291 -15.110  0.00  0.00    -0.248 NA
ATOM      3  N   UNL     1      31.256 -22.584 -17.214  0.00  0.00    -0.233 NA
ATOM      4  C   UNL     1      33.928 -25.092 -14.053  0.00  0.00    +0.048 C 
ATOM      5  C   UNL     1      32.594 -23.836 -15.638  0.00  0.00    +0.117 C 
ATOM      6  C   UNL     1      33.810 -24.445 -15.279  0.00  0.00    +0.001 C 
ATOM      7  C   UNL     1      31.487 -23.869 -14.776  0.00  0.00    +0.067 C 
ATOM      8  C   UNL     1      32.411 -23.174 -16.848  0.00  0.00    +0.115 C 
ATOM      9  C   UNL     1      32.838 -25.131 -13.190  0.00  0.00    +0.016 C 
ATOM     10  C   UNL     1      31.634 -24.523 -13.554  0.00  0.00    +0.016 C 
ATOM     11  C   UNL     1      30.268 -22.680 -16.310  0.00  0.00    +0.251 C 
ATOM     12  H   UNL     1      34.099 -23.866 -17.727  0.00  0.00    +0.153 HD
ENDROOT
BRANCH   4  15
ATOM     13  O   UNL     1      37.172 -26.050 -12.697  0.00  0.00    -0.448 OA
ATOM     14  N   UNL     1      36.092 -24.105 -12.181  0.00  0.00    -0.222 NA
ATOM     15  N   UNL     1      35.143 -25.703 -13.687  0.00  0.00    -0.269 N 
ATOM     16  C   UNL     1      37.318 -24.168 -11.370  0.00  0.00    +0.151 C 
ATOM     17  C   UNL     1      38.139 -25.269 -12.007  0.00  0.00    +0.233 C 
ATOM     18  C   UNL     1      36.094 -25.225 -12.837  0.00  0.00    +0.284 C 
ATOM     19  C   UNL     1      38.020 -22.824 -11.367  0.00  0.00    +0.030 C 
ATOM     20  H   UNL     1      35.327 -26.582 -14.094  0.00  0.00    +0.157 HD
ENDBRANCH   4  15
BRANCH   1  22
ATOM     21 CL   UNL     1      37.205 -20.554 -20.188  0.00  0.00    -0.079 Cl
ATOM     22  C   UNL     1      33.839 -22.141 -18.735  0.00  0.00    +0.050 C 
ATOM     23  C   UNL     1      35.183 -21.848 -18.965  0.00  0.00    +0.029 C 
ATOM     24  C   UNL     1      32.847 -21.484 -19.461  0.00  0.00    +0.018 C 
ATOM     25  C   UNL     1      34.543 -20.240 -20.651  0.00  0.00    +0.150 C 
ATOM     26  C   UNL     1      35.535 -20.898 -19.923  0.00  0.00    +0.093 C 
ATOM     27  C   UNL     1      33.199 -20.533 -20.419  0.00  0.00    +0.039 C 
BRANCH  25  28
ATOM     28  O   UNL     1      34.858 -19.306 -21.593  0.00  0.00    -0.468 OA
BRANCH  28  29
ATOM     29  C   UNL     1      35.090 -17.976 -21.132  0.00  0.00    +0.257 C 
BRANCH  29  32
ATOM     30  S   UNL     1      34.401 -15.407 -21.924  0.00  0.00    -0.067 S 
ATOM     31  N   UNL     1      35.027 -17.327 -23.538  0.00  0.00    -0.237 NA
ATOM     32  C   UNL     1      34.876 -17.020 -22.269  0.00  0.00    +0.132 C 
ATOM     33  C   UNL     1      34.393 -15.077 -23.606  0.00  0.00    +0.057 C 
ATOM     34  C   UNL     1      34.749 -16.212 -24.304  0.00  0.00    +0.106 C 
ENDBRANCH  29  32
ENDBRANCH  28  29
ENDBRANCH  25  28
ENDBRANCH   1  22
TORSDOF 5
ENDMDL
MODEL 2
REMARK VINA RESULT:     -11.0      5.272      9.718
REMARK  Name = 42642648
REMARK  5 active torsions:
REMARK  status: ('A' for Active; 'I' for Inactive)
REMARK    1  A    between atoms: N_1  and  C_22
REMARK    2  A    between atoms: C_4  and  N_15
REMARK    3  A    between atoms: C_25  and  O_28
REMARK    4  A    between atoms: O_28  and  C_29
REMARK    5  A    between atoms: C_29  and  C_32
REMARK                            x       y       z     vdW  Elec       q    Type
REMARK                         _______ _______ _______ _____ _____    ______ ____
ROOT
ATOM      1  N   UNL     1      34.422 -14.999 -22.232  0.00  0.00    -0.301 N 
ATOM      2  N   UNL     1      34.097 -17.666 -25.380  0.00  0.00    -0.248 NA
ATOM      3  N   UNL     1      33.775 -15.469 -24.445  0.00  0.00    -0.233 NA
ATOM      4  C   UNL     1      35.768 -18.998 -21.802  0.00  0.00    +0.048 C 
ATOM      5  C   UNL     1      34.771 -17.229 -23.121  0.00  0.00    +0.117 C 
ATOM      6  C   UNL     1      35.335 -17.682 -21.915  0.00  0.00    +0.001 C 
ATOM      7  C   UNL     1      34.635 -18.089 -24.223  0.00  0.00    +0.067 C 
ATOM      8  C   UNL     1      34.318 -15.925 -23.300  0.00  0.00    +0.115 C 
ATOM      9  C   UNL     1      35.638 -19.860 -22.885  0.00  0.00    +0.016 C 
ATOM     10  C   UNL     1      35.075 -19.403 -24.080  0.00  0.00    +0.016 C 
ATOM     11  C   UNL     1      33.696 -16.380 -25.429  0.00  0.00    +0.251 C 
ATOM     12  H   UNL     1      35.184 -15.170 -21.632  0.00  0.00    +0.153 HD
ENDROOT
BRANCH   4  15
ATOM     13  O   UNL     1      36.746 -20.756 -18.763  0.00  0.00    -0.448 OA
ATOM     14  N   UNL     1      35.152 -21.504 -20.218  0.00  0.00    -0.222 NA
ATOM     15  N   UNL     1      36.334 -19.458 -20.596  0.00  0.00    -0.269 N 
ATOM     16  C   UNL     1      35.324 -22.527 -19.174  0.00  0.00    +0.151 C 
ATOM     17  C   UNL     1      36.106 -21.827 -18.082  0.00  0.00    +0.233 C 
ATOM     18  C   UNL     1      36.028 -20.596 -19.912  0.00  0.00    +0.284 C 
ATOM     19  C   UNL     1      33.975 -23.039 -18.710  0.00  0.00    +0.030 C 
ATOM     20  H   UNL     1      37.034 -18.889 -20.200  0.00  0.00    +0.157 HD
ENDBRANCH   4  15
BRANCH   1  22
ATOM     21 CL   UNL     1      32.926 -10.223 -23.287  0.00  0.00    -0.079 Cl
ATOM     22  C   UNL     1      33.649 -13.886 -21.865  0.00  0.00    +0.050 C 
ATOM     23  C   UNL     1      33.661 -12.738 -22.656  0.00  0.00    +0.029 C 
ATOM     24  C   UNL     1      32.870 -13.929 -20.710  0.00  0.00    +0.018 C 
ATOM     25  C   UNL     1      32.112 -11.675 -21.135  0.00  0.00    +0.150 C 
ATOM     26  C   UNL     1      32.892 -11.632 -22.292  0.00  0.00    +0.093 C 
ATOM     27  C   UNL     1      32.101 -12.824 -20.345  0.00  0.00    +0.039 C 
BRANCH  25  28
ATOM     28  O   UNL     1      31.352 -10.610 -20.754  0.00  0.00    -0.468 OA
BRANCH  28  29
ATOM     29  C   UNL     1      31.800  -9.868 -19.621  0.00  0.00    +0.257 C 
BRANCH  29  32
ATOM     30  S   UNL     1      31.467  -7.877 -21.526  0.00  0.00    -0.067 S 
ATOM     31  N   UNL     1      32.860  -7.627 -19.363  0.00  0.00    -0.237 NA
ATOM     32  C   UNL     1      32.113  -8.464 -20.048  0.00  0.00    +0.132 C 
ATOM     33  C   UNL     1      32.244  -6.376 -21.240  0.00  0.00    +0.057 C 
ATOM     34  C   UNL     1      32.935  -6.430 -20.048  0.00  0.00    +0.106 C 
ENDBRANCH  29  32
ENDBRANCH  28  29
ENDBRANCH  25  28
ENDBRANCH   1  22
TORSDOF 5
ENDMDL
MODEL 3
REMARK VINA RESULT:     -11.0      6.149     11.024
REMARK  Name = 42642648
REMARK  5 active torsions:
REMARK  status: ('A' for Active; 'I' for Inactive)
REMARK    1  A    between atoms: N_1  and  C_22
REMARK    2  A    between atoms: C_4  and  N_15
REMARK    3  A    between atoms: C_25  and  O_28
REMARK    4  A    between atoms: O_28  and  C_29
REMARK    5  A    between atoms: C_29  and  C_32
REMARK                            x       y       z     vdW  Elec       q    Type
REMARK                         _______ _______ _______ _____ _____    ______ ____
ROOT
ATOM      1  N   UNL     1      34.114 -13.682 -23.255  0.00  0.00    -0.301 N 
ATOM      2  N   UNL     1      33.084 -16.495 -26.112  0.00  0.00    -0.248 NA
ATOM      3  N   UNL     1      32.989 -14.250 -25.243  0.00  0.00    -0.233 NA
ATOM      4  C   UNL     1      35.502 -17.677 -22.928  0.00  0.00    +0.048 C 
ATOM      5  C   UNL     1      34.245 -15.958 -24.084  0.00  0.00    +0.117 C 
ATOM      6  C   UNL     1      35.061 -16.360 -23.011  0.00  0.00    +0.001 C 
ATOM      7  C   UNL     1      33.863 -16.869 -25.082  0.00  0.00    +0.067 C 
ATOM      8  C   UNL     1      33.770 -14.658 -24.225  0.00  0.00    +0.115 C 
ATOM      9  C   UNL     1      35.130 -18.588 -23.911  0.00  0.00    +0.016 C 
ATOM     10  C   UNL     1      34.319 -18.181 -24.973  0.00  0.00    +0.016 C 
ATOM     11  C   UNL     1      32.689 -15.207 -26.136  0.00  0.00    +0.251 C 
ATOM     12  H   UNL     1      34.988 -13.835 -22.831  0.00  0.00    +0.153 HD
ENDROOT
BRANCH   4  15
ATOM     13  O   UNL     1      37.138 -19.313 -20.113  0.00  0.00    -0.448 OA
ATOM     14  N   UNL     1      35.290 -20.135 -21.175  0.00  0.00    -0.222 NA
ATOM     15  N   UNL     1      36.320 -18.086 -21.856  0.00  0.00    -0.269 N 
ATOM     16  C   UNL     1      35.702 -21.119 -20.160  0.00  0.00    +0.151 C 
ATOM     17  C   UNL     1      36.679 -20.370 -19.280  0.00  0.00    +0.233 C 
ATOM     18  C   UNL     1      36.191 -19.204 -21.089  0.00  0.00    +0.284 C 
ATOM     19  C   UNL     1      34.492 -21.636 -19.406  0.00  0.00    +0.030 C 
ATOM     20  H   UNL     1      37.074 -17.492 -21.635  0.00  0.00    +0.157 HD
ENDBRANCH   4  15
BRANCH   1  22
ATOM     21 CL   UNL     1      30.752 -11.674 -19.965  0.00  0.00    -0.079 Cl
ATOM     22  C   UNL     1      33.447 -12.540 -22.784  0.00  0.00    +0.050 C 
ATOM     23  C   UNL     1      32.536 -12.648 -21.734  0.00  0.00    +0.029 C 
ATOM     24  C   UNL     1      33.695 -11.298 -23.367  0.00  0.00    +0.018 C 
ATOM     25  C   UNL     1      32.123 -10.269 -21.849  0.00  0.00    +0.150 C 
ATOM     26  C   UNL     1      31.874 -11.513 -21.265  0.00  0.00    +0.093 C 
ATOM     27  C   UNL     1      33.034 -10.163 -22.900  0.00  0.00    +0.039 C 
BRANCH  25  28
ATOM     28  O   UNL     1      31.491  -9.144 -21.412  0.00  0.00    -0.468 OA
BRANCH  28  29
ATOM     29  C   UNL     1      32.317  -8.046 -21.028  0.00  0.00    +0.257 C 
BRANCH  29  32
ATOM     30  S   UNL     1      32.796  -6.284 -23.118  0.00  0.00    -0.067 S 
ATOM     31  N   UNL     1      30.818  -6.103 -21.464  0.00  0.00    -0.237 NA
ATOM     32  C   UNL     1      31.877  -6.818 -21.771  0.00  0.00    +0.132 C 
ATOM     33  C   UNL     1      31.696  -4.984 -23.321  0.00  0.00    +0.057 C 
ATOM     34  C   UNL     1      30.716  -5.051 -22.353  0.00  0.00    +0.106 C 
ENDBRANCH  29  32
ENDBRANCH  28  29
ENDBRANCH  25  28
ENDBRANCH   1  22
TORSDOF 5
ENDMDL
MODEL 4
REMARK VINA RESULT:     -10.9      1.742      2.281
REMARK  Name = 42642648
REMARK  5 active torsions:
REMARK  status: ('A' for Active; 'I' for Inactive)
REMARK    1  A    between atoms: N_1  and  C_22
REMARK    2  A    between atoms: C_4  and  N_15
REMARK    3  A    between atoms: C_25  and  O_28
REMARK    4  A    between atoms: O_28  and  C_29
REMARK    5  A    between atoms: C_29  and  C_32
REMARK                            x       y       z     vdW  Elec       q    Type
REMARK                         _______ _______ _______ _____ _____    ______ ____
ROOT
ATOM      1  N   UNL     1      34.945 -23.139 -17.283  0.00  0.00    -0.301 N 
ATOM      2  N   UNL     1      31.711 -24.179 -14.917  0.00  0.00    -0.248 NA
ATOM      3  N   UNL     1      32.628 -23.464 -17.028  0.00  0.00    -0.233 NA
ATOM      4  C   UNL     1      35.523 -24.259 -13.233  0.00  0.00    +0.048 C 
ATOM      5  C   UNL     1      34.077 -23.860 -15.135  0.00  0.00    +0.117 C 
ATOM      6  C   UNL     1      35.362 -23.889 -14.564  0.00  0.00    +0.001 C 
ATOM      7  C   UNL     1      32.943 -24.202 -14.381  0.00  0.00    +0.067 C 
ATOM      8  C   UNL     1      33.848 -23.498 -16.459  0.00  0.00    +0.115 C 
ATOM      9  C   UNL     1      34.407 -24.600 -12.476  0.00  0.00    +0.016 C 
ATOM     10  C   UNL     1      33.134 -24.568 -13.050  0.00  0.00    +0.016 C 
ATOM     11  C   UNL     1      31.620 -23.811 -16.211  0.00  0.00    +0.251 C 
ATOM     12  H   UNL     1      35.785 -23.591 -17.042  0.00  0.00    +0.153 HD
ENDROOT
BRANCH   4  15
ATOM     13  O   UNL     1      39.055 -24.609 -12.406  0.00  0.00    -0.448 OA
ATOM     14  N   UNL     1      38.161 -25.111 -14.448  0.00  0.00    -0.222 NA
ATOM     15  N   UNL     1      36.807 -24.290 -12.654  0.00  0.00    -0.269 N 
ATOM     16  C   UNL     1      39.619 -25.295 -14.536  0.00  0.00    +0.151 C 
ATOM     17  C   UNL     1      40.089 -25.296 -13.097  0.00  0.00    +0.233 C 
ATOM     18  C   UNL     1      37.975 -24.681 -13.237  0.00  0.00    +0.284 C 
ATOM     19  C   UNL     1      39.945 -26.579 -15.273  0.00  0.00    +0.030 C 
ATOM     20  H   UNL     1      36.868 -23.993 -11.717  0.00  0.00    +0.157 HD
ENDBRANCH   4  15
BRANCH   1  22
ATOM     21 CL   UNL     1      32.603 -20.357 -20.879  0.00  0.00    -0.079 Cl
ATOM     22  C   UNL     1      35.062 -22.265 -18.375  0.00  0.00    +0.050 C 
ATOM     23  C   UNL     1      33.918 -21.793 -19.017  0.00  0.00    +0.029 C 
ATOM     24  C   UNL     1      36.324 -21.868 -18.817  0.00  0.00    +0.018 C 
ATOM     25  C   UNL     1      35.298 -20.527 -20.544  0.00  0.00    +0.150 C 
ATOM     26  C   UNL     1      34.035 -20.924 -20.102  0.00  0.00    +0.093 C 
ATOM     27  C   UNL     1      36.441 -20.999 -19.901  0.00  0.00    +0.039 C 
BRANCH  25  28
ATOM     28  O   UNL     1      35.442 -19.679 -21.602  0.00  0.00    -0.468 OA
BRANCH  28  29
ATOM     29  C   UNL     1      35.534 -18.286 -21.306  0.00  0.00    +0.257 C 
BRANCH  29  32
ATOM     30  S   UNL     1      34.699 -15.845 -22.329  0.00  0.00    -0.067 S 
ATOM     31  N   UNL     1      35.039 -17.990 -23.730  0.00  0.00    -0.237 NA
ATOM     32  C   UNL     1      35.115 -17.500 -22.513  0.00  0.00    +0.132 C 
ATOM     33  C   UNL     1      34.390 -15.761 -24.013  0.00  0.00    +0.057 C 
ATOM     34  C   UNL     1      34.623 -16.992 -24.589  0.00  0.00    +0.106 C 
ENDBRANCH  29  32
ENDBRANCH  28  29
ENDBRANCH  25  28
ENDBRANCH   1  22
TORSDOF 5
ENDMDL
MODEL 5
REMARK VINA RESULT:     -10.2      8.456     16.826
REMARK  Name = 42642648
REMARK  5 active torsions:
REMARK  status: ('A' for Active; 'I' for Inactive)
REMARK    1  A    between atoms: N_1  and  C_22
REMARK    2  A    between atoms: C_4  and  N_15
REMARK    3  A    between atoms: C_25  and  O_28
REMARK    4  A    between atoms: O_28  and  C_29
REMARK    5  A    between atoms: C_29  and  C_32
REMARK                            x       y       z     vdW  Elec       q    Type
REMARK                         _______ _______ _______ _____ _____    ______ ____
ROOT
ATOM      1  N   UNL     1      33.536  -9.128 -23.182  0.00  0.00    -0.301 N 
ATOM      2  N   UNL     1      31.719  -6.274 -20.797  0.00  0.00    -0.248 NA
ATOM      3  N   UNL     1      32.623  -8.486 -21.110  0.00  0.00    -0.233 NA
ATOM      4  C   UNL     1      32.653  -5.282 -24.736  0.00  0.00    +0.048 C 
ATOM      5  C   UNL     1      32.640  -6.889 -22.924  0.00  0.00    +0.117 C 
ATOM      6  C   UNL     1      32.954  -6.550 -24.252  0.00  0.00    +0.001 C 
ATOM      7  C   UNL     1      32.023  -5.961 -22.069  0.00  0.00    +0.067 C 
ATOM      8  C   UNL     1      32.914  -8.139 -22.379  0.00  0.00    +0.115 C 
ATOM      9  C   UNL     1      32.041  -4.355 -23.899  0.00  0.00    +0.016 C 
ATOM     10  C   UNL     1      31.732  -4.699 -22.581  0.00  0.00    +0.016 C 
ATOM     11  C   UNL     1      32.035  -7.519 -20.387  0.00  0.00    +0.251 C 
ATOM     12  H   UNL     1      34.132  -8.760 -23.873  0.00  0.00    +0.153 HD
ENDROOT
BRANCH   4  15
ATOM     13  O   UNL     1      34.170  -4.510 -27.959  0.00  0.00    -0.448 OA
ATOM     14  N   UNL     1      35.345  -5.171 -26.116  0.00  0.00    -0.222 NA
ATOM     15  N   UNL     1      32.965  -4.937 -26.066  0.00  0.00    -0.269 N 
ATOM     16  C   UNL     1      36.294  -5.047 -27.234  0.00  0.00    +0.151 C 
ATOM     17  C   UNL     1      35.531  -4.281 -28.294  0.00  0.00    +0.233 C 
ATOM     18  C   UNL     1      34.194  -4.899 -26.651  0.00  0.00    +0.284 C 
ATOM     19  C   UNL     1      37.557  -4.342 -26.779  0.00  0.00    +0.030 C 
ATOM     20  H   UNL     1      32.203  -4.693 -26.642  0.00  0.00    +0.157 HD
ENDBRANCH   4  15
BRANCH   1  22
ATOM     21 CL   UNL     1      31.826 -13.381 -20.913  0.00  0.00    -0.079 Cl
ATOM     22  C   UNL     1      33.467 -10.530 -23.180  0.00  0.00    +0.050 C 
ATOM     23  C   UNL     1      32.767 -11.193 -22.173  0.00  0.00    +0.029 C 
ATOM     24  C   UNL     1      34.098 -11.260 -24.187  0.00  0.00    +0.018 C 
ATOM     25  C   UNL     1      33.329 -13.317 -23.180  0.00  0.00    +0.150 C 
ATOM     26  C   UNL     1      32.697 -12.586 -22.172  0.00  0.00    +0.093 C 
ATOM     27  C   UNL     1      34.029 -12.653 -24.187  0.00  0.00    +0.039 C 
BRANCH  25  28
ATOM     28  O   UNL     1      33.278 -14.678 -23.204  0.00  0.00    -0.468 OA
BRANCH  28  29
ATOM     29  C   UNL     1      34.363 -15.355 -23.837  0.00  0.00    +0.257 C 
BRANCH  29  32
ATOM     30  S   UNL     1      34.696 -16.385 -21.282  0.00  0.00    -0.067 S 
ATOM     31  N   UNL     1      35.195 -17.675 -23.465  0.00  0.00    -0.237 NA
ATOM     32  C   UNL     1      34.772 -16.524 -22.991  0.00  0.00    +0.132 C 
ATOM     33  C   UNL     1      35.274 -17.994 -21.150  0.00  0.00    +0.057 C 
ATOM     34  C   UNL     1      35.483 -18.516 -22.409  0.00  0.00    +0.106 C 
ENDBRANCH  29  32
ENDBRANCH  28  29
ENDBRANCH  25  28
ENDBRANCH   1  22
TORSDOF 5
ENDMDL
MODEL 6
REMARK VINA RESULT:      -9.8      9.530     17.502
REMARK  Name = 42642648
REMARK  5 active torsions:
REMARK  status: ('A' for Active; 'I' for Inactive)
REMARK    1  A    between atoms: N_1  and  C_22
REMARK    2  A    between atoms: C_4  and  N_15
REMARK    3  A    between atoms: C_25  and  O_28
REMARK    4  A    between atoms: O_28  and  C_29
REMARK    5  A    between atoms: C_29  and  C_32
REMARK                            x       y       z     vdW  Elec       q    Type
REMARK                         _______ _______ _______ _____ _____    ______ ____
ROOT
ATOM      1  N   UNL     1      33.237  -8.277 -23.243  0.00  0.00    -0.301 N 
ATOM      2  N   UNL     1      31.152  -4.921 -22.009  0.00  0.00    -0.248 NA
ATOM      3  N   UNL     1      31.923  -7.173 -21.633  0.00  0.00    -0.233 NA
ATOM      4  C   UNL     1      33.054  -4.838 -25.718  0.00  0.00    +0.048 C 
ATOM      5  C   UNL     1      32.490  -6.010 -23.675  0.00  0.00    +0.117 C 
ATOM      6  C   UNL     1      33.130  -5.978 -24.926  0.00  0.00    +0.001 C 
ATOM      7  C   UNL     1      31.768  -4.901 -23.205  0.00  0.00    +0.067 C 
ATOM      8  C   UNL     1      32.527  -7.120 -22.836  0.00  0.00    +0.115 C 
ATOM      9  C   UNL     1      32.341  -3.733 -25.263  0.00  0.00    +0.016 C 
ATOM     10  C   UNL     1      31.707  -3.773 -24.019  0.00  0.00    +0.016 C 
ATOM     11  C   UNL     1      31.262  -6.055 -21.289  0.00  0.00    +0.251 C 
ATOM     12  H   UNL     1      34.005  -8.086 -23.828  0.00  0.00    +0.153 HD
ENDROOT
BRANCH   4  15
ATOM     13  O   UNL     1      35.338  -4.721 -28.555  0.00  0.00    -0.448 OA
ATOM     14  N   UNL     1      36.008  -4.765 -26.372  0.00  0.00    -0.222 NA
ATOM     15  N   UNL     1      33.693  -4.800 -26.973  0.00  0.00    -0.269 N 
ATOM     16  C   UNL     1      37.214  -4.814 -27.214  0.00  0.00    +0.151 C 
ATOM     17  C   UNL     1      36.728  -4.427 -28.595  0.00  0.00    +0.233 C 
ATOM     18  C   UNL     1      35.031  -4.768 -27.226  0.00  0.00    +0.284 C 
ATOM     19  C   UNL     1      38.276  -3.878 -26.670  0.00  0.00    +0.030 C 
ATOM     20  H   UNL     1      33.102  -4.795 -27.761  0.00  0.00    +0.157 HD
ENDBRANCH   4  15
BRANCH   1  22
ATOM     21 CL   UNL     1      30.725 -11.881 -20.623  0.00  0.00    -0.079 Cl
ATOM     22  C   UNL     1      33.056  -9.643 -22.972  0.00  0.00    +0.050 C 
ATOM     23  C   UNL     1      32.097 -10.049 -22.044  0.00  0.00    +0.029 C 
ATOM     24  C   UNL     1      33.835 -10.593 -23.632  0.00  0.00    +0.018 C 
ATOM     25  C   UNL     1      32.697 -12.357 -22.436  0.00  0.00    +0.150 C 
ATOM     26  C   UNL     1      31.917 -11.406 -21.776  0.00  0.00    +0.093 C 
ATOM     27  C   UNL     1      33.655 -11.950 -23.364  0.00  0.00    +0.039 C 
BRANCH  25  28
ATOM     28  O   UNL     1      32.543 -13.689 -22.194  0.00  0.00    -0.468 OA
BRANCH  28  29
ATOM     29  C   UNL     1      33.496 -14.303 -21.327  0.00  0.00    +0.257 C 
BRANCH  29  32
ATOM     30  S   UNL     1      34.798 -16.747 -21.148  0.00  0.00    -0.067 S 
ATOM     31  N   UNL     1      34.294 -15.507 -23.359  0.00  0.00    -0.237 NA
ATOM     32  C   UNL     1      34.159 -15.436 -22.053  0.00  0.00    +0.132 C 
ATOM     33  C   UNL     1      35.300 -17.482 -22.613  0.00  0.00    +0.057 C 
ATOM     34  C   UNL     1      34.949 -16.680 -23.678  0.00  0.00    +0.106 C 
ENDBRANCH  29  32
ENDBRANCH  28  29
ENDBRANCH  25  28
ENDBRANCH   1  22
TORSDOF 5
ENDMDL
MODEL 7
REMARK VINA RESULT:      -9.7      2.424      4.645
REMARK  Name = 42642648
REMARK  5 active torsions:
REMARK  status: ('A' for Active; 'I' for Inactive)
REMARK    1  A    between atoms: N_1  and  C_22
REMARK    2  A    between atoms: C_4  and  N_15
REMARK    3  A    between atoms: C_25  and  O_28
REMARK    4  A    between atoms: O_28  and  C_29
REMARK    5  A    between atoms: C_29  and  C_32
REMARK                            x       y       z     vdW  Elec       q    Type
REMARK                         _______ _______ _______ _____ _____    ______ ____
ROOT
ATOM      1  N   UNL     1      35.842 -22.424 -16.435  0.00  0.00    -0.301 N 
ATOM      2  N   UNL     1      38.905 -24.587 -14.683  0.00  0.00    -0.248 NA
ATOM      3  N   UNL     1      38.126 -22.973 -16.293  0.00  0.00    -0.233 NA
ATOM      4  C   UNL     1      35.017 -25.145 -13.288  0.00  0.00    +0.048 C 
ATOM      5  C   UNL     1      36.570 -24.056 -14.794  0.00  0.00    +0.117 C 
ATOM      6  C   UNL     1      35.259 -24.246 -14.321  0.00  0.00    +0.001 C 
ATOM      7  C   UNL     1      37.649 -24.762 -14.238  0.00  0.00    +0.067 C 
ATOM      8  C   UNL     1      36.879 -23.173 -15.824  0.00  0.00    +0.115 C 
ATOM      9  C   UNL     1      36.077 -25.851 -12.730  0.00  0.00    +0.016 C 
ATOM     10  C   UNL     1      37.377 -25.657 -13.206  0.00  0.00    +0.016 C 
ATOM     11  C   UNL     1      39.076 -23.703 -15.686  0.00  0.00    +0.251 C 
ATOM     12  H   UNL     1      35.092 -22.221 -15.832  0.00  0.00    +0.153 HD
ENDROOT
BRANCH   4  15
ATOM     13  O   UNL     1      31.425 -25.355 -12.711  0.00  0.00    -0.448 OA
ATOM     14  N   UNL     1      32.370 -24.562 -14.634  0.00  0.00    -0.222 NA
ATOM     15  N   UNL     1      33.706 -25.341 -12.809  0.00  0.00    -0.269 N 
ATOM     16  C   UNL     1      30.910 -24.572 -14.820  0.00  0.00    +0.151 C 
ATOM     17  C   UNL     1      30.351 -24.759 -13.425  0.00  0.00    +0.233 C 
ATOM     18  C   UNL     1      32.536 -25.064 -13.448  0.00  0.00    +0.284 C 
ATOM     19  C   UNL     1      30.453 -23.286 -15.480  0.00  0.00    +0.030 C 
ATOM     20  H   UNL     1      33.627 -25.723 -11.904  0.00  0.00    +0.157 HD
ENDBRANCH   4  15
BRANCH   1  22
ATOM     21 CL   UNL     1      32.656 -21.233 -20.255  0.00  0.00    -0.079 Cl
ATOM     22  C   UNL     1      35.679 -21.917 -17.734  0.00  0.00    +0.050 C 
ATOM     23  C   UNL     1      34.405 -21.832 -18.295  0.00  0.00    +0.029 C 
ATOM     24  C   UNL     1      36.792 -21.499 -18.463  0.00  0.00    +0.018 C 
ATOM     25  C   UNL     1      35.357 -20.908 -20.315  0.00  0.00    +0.150 C 
ATOM     26  C   UNL     1      34.243 -21.327 -19.585  0.00  0.00    +0.093 C 
ATOM     27  C   UNL     1      36.630 -20.995 -19.754  0.00  0.00    +0.039 C 
BRANCH  25  28
ATOM     28  O   UNL     1      35.229 -20.412 -21.578  0.00  0.00    -0.468 OA
BRANCH  28  29
ATOM     29  C   UNL     1      36.157 -19.403 -21.973  0.00  0.00    +0.257 C 
BRANCH  29  32
ATOM     30  S   UNL     1      35.143 -17.176 -23.282  0.00  0.00    -0.067 S 
ATOM     31  N   UNL     1      35.169 -17.491 -20.716  0.00  0.00    -0.237 NA
ATOM     32  C   UNL     1      35.500 -18.059 -21.854  0.00  0.00    +0.132 C 
ATOM     33  C   UNL     1      34.488 -15.923 -22.312  0.00  0.00    +0.057 C 
ATOM     34  C   UNL     1      34.589 -16.266 -20.981  0.00  0.00    +0.106 C 
ENDBRANCH  29  32
ENDBRANCH  28  29
ENDBRANCH  25  28
ENDBRANCH   1  22
TORSDOF 5
ENDMDL
MODEL 8
REMARK VINA RESULT:      -9.5      8.780     17.219
REMARK  Name = 42642648
REMARK  5 active torsions:
REMARK  status: ('A' for Active; 'I' for Inactive)
REMARK    1  A    between atoms: N_1  and  C_22
REMARK    2  A    between atoms: C_4  and  N_15
REMARK    3  A    between atoms: C_25  and  O_28
REMARK    4  A    between atoms: O_28  and  C_29
REMARK    5  A    between atoms: C_29  and  C_32
REMARK                            x       y       z     vdW  Elec       q    Type
REMARK                         _______ _______ _______ _____ _____    ______ ____
ROOT
ATOM      1  N   UNL     1      33.643  -9.387 -23.219  0.00  0.00    -0.301 N 
ATOM      2  N   UNL     1      31.522  -6.773 -20.811  0.00  0.00    -0.248 NA
ATOM      3  N   UNL     1      32.462  -8.952 -21.231  0.00  0.00    -0.233 NA
ATOM      4  C   UNL     1      32.971  -5.389 -24.466  0.00  0.00    +0.048 C 
ATOM      5  C   UNL     1      32.718  -7.175 -22.849  0.00  0.00    +0.117 C 
ATOM      6  C   UNL     1      33.206  -6.705 -24.082  0.00  0.00    +0.001 C 
ATOM      7  C   UNL     1      31.992  -6.334 -21.992  0.00  0.00    +0.067 C 
ATOM      8  C   UNL     1      32.919  -8.479 -22.406  0.00  0.00    +0.115 C 
ATOM      9  C   UNL     1      32.252  -4.547 -23.625  0.00  0.00    +0.016 C 
ATOM     10  C   UNL     1      31.770  -5.022 -22.403  0.00  0.00    +0.016 C 
ATOM     11  C   UNL     1      31.782  -8.058 -20.495  0.00  0.00    +0.251 C 
ATOM     12  H   UNL     1      34.325  -8.957 -23.783  0.00  0.00    +0.153 HD
ENDROOT
BRANCH   4  15
ATOM     13  O   UNL     1      33.612  -3.722 -27.643  0.00  0.00    -0.448 OA
ATOM     14  N   UNL     1      31.821  -3.271 -26.298  0.00  0.00    -0.222 NA
ATOM     15  N   UNL     1      33.457  -4.912 -25.700  0.00  0.00    -0.269 N 
ATOM     16  C   UNL     1      31.779  -2.336 -27.433  0.00  0.00    +0.151 C 
ATOM     17  C   UNL     1      32.756  -2.912 -28.437  0.00  0.00    +0.233 C 
ATOM     18  C   UNL     1      32.908  -3.954 -26.497  0.00  0.00    +0.284 C 
ATOM     19  C   UNL     1      30.366  -2.223 -27.972  0.00  0.00    +0.030 C 
ATOM     20  H   UNL     1      34.292  -5.320 -26.024  0.00  0.00    +0.157 HD
ENDBRANCH   4  15
BRANCH   1  22
ATOM     21 CL   UNL     1      32.188 -13.896 -21.293  0.00  0.00    -0.079 Cl
ATOM     22  C   UNL     1      33.576 -10.781 -23.374  0.00  0.00    +0.050 C 
ATOM     23  C   UNL     1      32.988 -11.565 -22.382  0.00  0.00    +0.029 C 
ATOM     24  C   UNL     1      34.097 -11.381 -24.519  0.00  0.00    +0.018 C 
ATOM     25  C   UNL     1      33.442 -13.550 -23.683  0.00  0.00    +0.150 C 
ATOM     26  C   UNL     1      32.920 -12.950 -22.536  0.00  0.00    +0.093 C 
ATOM     27  C   UNL     1      34.030 -12.765 -24.674  0.00  0.00    +0.039 C 
BRANCH  25  28
ATOM     28  O   UNL     1      33.390 -14.901 -23.859  0.00  0.00    -0.468 OA
BRANCH  28  29
ATOM     29  C   UNL     1      34.634 -15.578 -24.033  0.00  0.00    +0.257 C 
BRANCH  29  32
ATOM     30  S   UNL     1      35.215 -18.162 -23.204  0.00  0.00    -0.067 S 
ATOM     31  N   UNL     1      34.767 -16.172 -21.616  0.00  0.00    -0.237 NA
ATOM     32  C   UNL     1      34.845 -16.517 -22.882  0.00  0.00    +0.132 C 
ATOM     33  C   UNL     1      35.280 -18.452 -21.516  0.00  0.00    +0.057 C 
ATOM     34  C   UNL     1      35.016 -17.283 -20.834  0.00  0.00    +0.106 C 
ENDBRANCH  29  32
ENDBRANCH  28  29
ENDBRANCH  25  28
ENDBRANCH   1  22
TORSDOF 5
ENDMDL
MODEL 9
REMARK VINA RESULT:      -9.5      9.855     14.405
REMARK  Name = 42642648
REMARK  5 active torsions:
REMARK  status: ('A' for Active; 'I' for Inactive)
REMARK    1  A    between atoms: N_1  and  C_22
REMARK    2  A    between atoms: C_4  and  N_15
REMARK    3  A    between atoms: C_25  and  O_28
REMARK    4  A    between atoms: O_28  and  C_29
REMARK    5  A    between atoms: C_29  and  C_32
REMARK                            x       y       z     vdW  Elec       q    Type
REMARK                         _______ _______ _______ _____ _____    ______ ____
ROOT
ATOM      1  N   UNL     1      31.533  -9.487 -22.352  0.00  0.00    -0.301 N 
ATOM      2  N   UNL     1      31.614 -11.656 -18.828  0.00  0.00    -0.248 NA
ATOM      3  N   UNL     1      31.181  -9.613 -20.029  0.00  0.00    -0.233 NA
ATOM      4  C   UNL     1      32.789 -13.538 -22.357  0.00  0.00    +0.048 C 
ATOM      5  C   UNL     1      31.984 -11.571 -21.195  0.00  0.00    +0.117 C 
ATOM      6  C   UNL     1      32.381 -12.209 -22.384  0.00  0.00    +0.001 C 
ATOM      7  C   UNL     1      31.992 -12.257 -19.970  0.00  0.00    +0.067 C 
ATOM      8  C   UNL     1      31.566 -10.244 -21.154  0.00  0.00    +0.115 C 
ATOM      9  C   UNL     1      32.801 -14.228 -21.150  0.00  0.00    +0.016 C 
ATOM     10  C   UNL     1      32.406 -13.587 -19.972  0.00  0.00    +0.016 C 
ATOM     11  C   UNL     1      31.230 -10.368 -18.919  0.00  0.00    +0.251 C 
ATOM     12  H   UNL     1      31.357 -10.026 -23.157  0.00  0.00    +0.153 HD
ENDROOT
BRANCH   4  15
ATOM     13  O   UNL     1      34.089 -15.732 -24.961  0.00  0.00    -0.448 OA
ATOM     14  N   UNL     1      34.198 -16.192 -22.726  0.00  0.00    -0.222 NA
ATOM     15  N   UNL     1      33.188 -14.183 -23.545  0.00  0.00    -0.269 N 
ATOM     16  C   UNL     1      34.741 -17.351 -23.452  0.00  0.00    +0.151 C 
ATOM     17  C   UNL     1      34.966 -16.845 -24.862  0.00  0.00    +0.233 C 
ATOM     18  C   UNL     1      33.822 -15.382 -23.669  0.00  0.00    +0.284 C 
ATOM     19  C   UNL     1      36.010 -17.845 -22.785  0.00  0.00    +0.030 C 
ATOM     20  H   UNL     1      32.985 -13.711 -24.385  0.00  0.00    +0.157 HD
ENDBRANCH   4  15
BRANCH   1  22
ATOM     21 CL   UNL     1      34.259  -5.813 -24.639  0.00  0.00    -0.079 Cl
ATOM     22  C   UNL     1      31.701  -8.118 -22.612  0.00  0.00    +0.050 C 
ATOM     23  C   UNL     1      32.766  -7.684 -23.401  0.00  0.00    +0.029 C 
ATOM     24  C   UNL     1      30.804  -7.192 -22.080  0.00  0.00    +0.018 C 
ATOM     25  C   UNL     1      32.035  -5.397 -23.128  0.00  0.00    +0.150 C 
ATOM     26  C   UNL     1      32.933  -6.323 -23.660  0.00  0.00    +0.093 C 
ATOM     27  C   UNL     1      30.971  -5.832 -22.338  0.00  0.00    +0.039 C 
BRANCH  25  28
ATOM     28  O   UNL     1      32.174  -4.061 -23.363  0.00  0.00    -0.468 OA
BRANCH  28  29
ATOM     29  C   UNL     1      31.005  -3.255 -23.227  0.00  0.00    +0.257 C 
BRANCH  29  32
ATOM     30  S   UNL     1      31.683  -2.776 -25.875  0.00  0.00    -0.067 S 
ATOM     31  N   UNL     1      29.318  -2.461 -24.881  0.00  0.00    -0.237 NA
ATOM     32  C   UNL     1      30.548  -2.820 -24.588  0.00  0.00    +0.132 C 
ATOM     33  C   UNL     1      30.439  -2.233 -26.921  0.00  0.00    +0.057 C 
ATOM     34  C   UNL     1      29.257  -2.124 -26.219  0.00  0.00    +0.106 C 
ENDBRANCH  29  32
ENDBRANCH  28  29
ENDBRANCH  25  28
ENDBRANCH   1  22
TORSDOF 5
ENDMDL
