MODEL 1
REMARK VINA RESULT:     -11.2      0.000      0.000
REMARK  Name = 9887812
REMARK  11 active torsions:
REMARK  status: ('A' for Active; 'I' for Inactive)
REMARK    1  A    between atoms: N_1  and  C_3
REMARK    2  A    between atoms: N_1  and  C_19
REMARK    3  A    between atoms: C_4  and  C_9
REMARK    4  A    between atoms: C_12  and  C_16
REMARK    5  A    between atoms: C_16  and  O_17
REMARK    6  A    between atoms: C_19  and  C_20
REMARK    7  A    between atoms: C_20  and  N_21
REMARK    8  A    between atoms: N_21  and  C_24
REMARK    9  A    between atoms: C_24  and  C_25
REMARK   10  A    between atoms: C_25  and  C_27
REMARK   11  A    between atoms: C_25  and  O_33
REMARK                            x       y       z     vdW  Elec       q    Type
REMARK                         _______ _______ _______ _____ _____    ______ ____
ROOT
ATOM      1  N   UNL     1      34.872 -22.906 -18.801  0.00  0.00    -0.335 N 
ATOM      2  H   UNL     1      35.164 -23.690 -19.320  0.00  0.00    +0.147 HD
ENDROOT
BRANCH   1   3
ATOM      3  C   UNL     1      34.504 -23.091 -17.452  0.00  0.00    +0.045 C 
ATOM      4  C   UNL     1      32.825 -23.603 -15.792  0.00  0.00    +0.001 C 
ATOM      5  C   UNL     1      33.189 -23.421 -17.127  0.00  0.00    +0.014 C 
ATOM      6  C   UNL     1      35.456 -22.942 -16.443  0.00  0.00    +0.014 C 
ATOM      7  C   UNL     1      33.777 -23.454 -14.783  0.00  0.00    +0.000 C 
ATOM      8  C   UNL     1      35.092 -23.123 -15.109  0.00  0.00    +0.001 C 
BRANCH   4   9
ATOM      9  C   UNL     1      31.461 -23.946 -15.455  0.00  0.00    +0.000 C 
ATOM     10  C   UNL     1      30.403 -23.387 -16.173  0.00  0.00    +0.006 C 
ATOM     11  C   UNL     1      31.203 -24.835 -14.412  0.00  0.00    +0.000 C 
ATOM     12  C   UNL     1      29.088 -23.717 -15.847  0.00  0.00    +0.075 C 
ATOM     13  C   UNL     1      29.887 -25.165 -14.085  0.00  0.00    +0.000 C 
ATOM     14  C   UNL     1      28.829 -24.606 -14.803  0.00  0.00    +0.006 C 
BRANCH  12  16
ATOM     15  O   UNL     1      27.586 -21.971 -16.495  0.00  0.00    -0.245 OA
ATOM     16  C   UNL     1      27.985 -23.136 -16.595  0.00  0.00    +0.338 C 
BRANCH  16  17
ATOM     17  O   UNL     1      27.408 -24.027 -17.449  0.00  0.00    -0.477 OA
ATOM     18  H   UNL     1      27.861 -24.813 -17.681  0.00  0.00    +0.295 HD
ENDBRANCH  16  17
ENDBRANCH  12  16
ENDBRANCH   4   9
ENDBRANCH   1   3
BRANCH   1  19
ATOM     19  C   UNL     1      34.843 -21.630 -19.447  0.00  0.00    +0.064 C 
BRANCH  19  20
ATOM     20  C   UNL     1      36.267 -21.165 -19.724  0.00  0.00    -0.060 C 
BRANCH  20  21
ATOM     21  N   UNL     1      36.264 -19.801 -20.239  0.00  0.00    +0.387 N 
ATOM     22  H   UNL     1      36.042 -19.158 -19.479  0.00  0.00    -0.084 HD
ATOM     23  H   UNL     1      37.186 -19.595 -20.621  0.00  0.00    -0.084 HD
BRANCH  21  24
ATOM     24  C   UNL     1      35.276 -19.648 -21.298  0.00  0.00    -0.047 C 
BRANCH  24  25
ATOM     25  C   UNL     1      35.891 -18.957 -22.521  0.00  0.00    +0.112 C 
BRANCH  25  27
ATOM     26 CL   UNL     1      34.171 -14.444 -20.595  0.00  0.00    -0.082 Cl
ATOM     27  C   UNL     1      35.264 -17.602 -22.765  0.00  0.00    +0.003 C 
ATOM     28  C   UNL     1      35.038 -16.759 -21.691  0.00  0.00    +0.009 C 
ATOM     29  C   UNL     1      34.933 -17.233 -24.057  0.00  0.00    -0.002 C 
ATOM     30  C   UNL     1      34.461 -15.508 -21.916  0.00  0.00    +0.057 C 
ATOM     31  C   UNL     1      34.356 -15.983 -24.282  0.00  0.00    +0.001 C 
ATOM     32  C   UNL     1      34.121 -15.121 -23.212  0.00  0.00    +0.011 C 
ENDBRANCH  25  27
BRANCH  25  33
ATOM     33  O   UNL     1      37.292 -18.773 -22.332  0.00  0.00    -0.382 OA
ATOM     34  H   UNL     1      37.444 -18.232 -21.541  0.00  0.00    +0.211 HD
ENDBRANCH  25  33
ENDBRANCH  24  25
ENDBRANCH  21  24
ENDBRANCH  20  21
ENDBRANCH  19  20
ENDBRANCH   1  19
TORSDOF 11
ENDMDL
MODEL 2
REMARK VINA RESULT:     -11.0      3.913      9.661
REMARK  Name = 9887812
REMARK  11 active torsions:
REMARK  status: ('A' for Active; 'I' for Inactive)
REMARK    1  A    between atoms: N_1  and  C_3
REMARK    2  A    between atoms: N_1  and  C_19
REMARK    3  A    between atoms: C_4  and  C_9
REMARK    4  A    between atoms: C_12  and  C_16
REMARK    5  A    between atoms: C_16  and  O_17
REMARK    6  A    between atoms: C_19  and  C_20
REMARK    7  A    between atoms: C_20  and  N_21
REMARK    8  A    between atoms: N_21  and  C_24
REMARK    9  A    between atoms: C_24  and  C_25
REMARK   10  A    between atoms: C_25  and  C_27
REMARK   11  A    between atoms: C_25  and  O_33
REMARK                            x       y       z     vdW  Elec       q    Type
REMARK                         _______ _______ _______ _____ _____    ______ ____
ROOT
ATOM      1  N   UNL     1      32.803 -22.491 -18.406  0.00  0.00    -0.335 N 
ATOM      2  H   UNL     1      31.936 -22.213 -18.779  0.00  0.00    +0.147 HD
ENDROOT
BRANCH   1   3
ATOM      3  C   UNL     1      33.979 -21.933 -18.948  0.00  0.00    +0.045 C 
ATOM      4  C   UNL     1      35.060 -20.426 -20.497  0.00  0.00    +0.001 C 
ATOM      5  C   UNL     1      33.896 -20.978 -19.961  0.00  0.00    +0.014 C 
ATOM      6  C   UNL     1      35.227 -22.336 -18.471  0.00  0.00    +0.014 C 
ATOM      7  C   UNL     1      36.308 -20.830 -20.020  0.00  0.00    +0.000 C 
ATOM      8  C   UNL     1      36.390 -21.786 -19.007  0.00  0.00    +0.001 C 
BRANCH   4   9
ATOM      9  C   UNL     1      34.974 -19.437 -21.548  0.00  0.00    +0.000 C 
ATOM     10  C   UNL     1      34.924 -18.079 -21.227  0.00  0.00    +0.006 C 
ATOM     11  C   UNL     1      34.939 -19.839 -22.883  0.00  0.00    +0.000 C 
ATOM     12  C   UNL     1      34.840 -17.126 -22.242  0.00  0.00    +0.075 C 
ATOM     13  C   UNL     1      34.854 -18.885 -23.898  0.00  0.00    +0.000 C 
ATOM     14  C   UNL     1      34.805 -17.528 -23.577  0.00  0.00    +0.006 C 
BRANCH  12  16
ATOM     15  O   UNL     1      34.584 -15.248 -20.781  0.00  0.00    -0.245 OA
ATOM     16  C   UNL     1      34.790 -15.711 -21.908  0.00  0.00    +0.338 C 
BRANCH  16  17
ATOM     17  O   UNL     1      34.998 -14.913 -22.992  0.00  0.00    -0.477 OA
ATOM     18  H   UNL     1      34.967 -15.277 -23.854  0.00  0.00    +0.295 HD
ENDBRANCH  16  17
ENDBRANCH  12  16
ENDBRANCH   4   9
ENDBRANCH   1   3
BRANCH   1  19
ATOM     19  C   UNL     1      32.815 -23.441 -17.337  0.00  0.00    +0.064 C 
BRANCH  19  20
ATOM     20  C   UNL     1      31.642 -23.175 -16.403  0.00  0.00    -0.060 C 
BRANCH  20  21
ATOM     21  N   UNL     1      31.698 -24.066 -15.250  0.00  0.00    +0.387 N 
ATOM     22  H   UNL     1      30.797 -24.050 -14.772  0.00  0.00    -0.084 HD
ATOM     23  H   UNL     1      31.910 -25.008 -15.577  0.00  0.00    -0.084 HD
BRANCH  21  24
ATOM     24  C   UNL     1      32.739 -23.649 -14.321  0.00  0.00    -0.047 C 
BRANCH  24  25
ATOM     25  C   UNL     1      33.671 -24.821 -13.986  0.00  0.00    +0.112 C 
BRANCH  25  27
ATOM     26 CL   UNL     1      38.621 -26.383 -14.295  0.00  0.00    -0.082 Cl
ATOM     27  C   UNL     1      35.108 -24.503 -14.336  0.00  0.00    +0.003 C 
ATOM     28  C   UNL     1      36.076 -25.478 -14.170  0.00  0.00    +0.009 C 
ATOM     29  C   UNL     1      35.424 -23.244 -14.817  0.00  0.00    -0.002 C 
ATOM     30  C   UNL     1      37.401 -25.185 -14.494  0.00  0.00    +0.057 C 
ATOM     31  C   UNL     1      36.748 -22.951 -15.141  0.00  0.00    +0.001 C 
ATOM     32  C   UNL     1      37.737 -23.921 -14.980  0.00  0.00    +0.011 C 
ENDBRANCH  25  27
BRANCH  25  33
ATOM     33  O   UNL     1      33.607 -25.120 -12.593  0.00  0.00    -0.382 OA
ATOM     34  H   UNL     1      34.167 -25.888 -12.400  0.00  0.00    +0.211 HD
ENDBRANCH  25  33
ENDBRANCH  24  25
ENDBRANCH  21  24
ENDBRANCH  20  21
ENDBRANCH  19  20
ENDBRANCH   1  19
TORSDOF 11
ENDMDL
MODEL 3
REMARK VINA RESULT:     -10.9      3.529      4.868
REMARK  Name = 9887812
REMARK  11 active torsions:
REMARK  status: ('A' for Active; 'I' for Inactive)
REMARK    1  A    between atoms: N_1  and  C_3
REMARK    2  A    between atoms: N_1  and  C_19
REMARK    3  A    between atoms: C_4  and  C_9
REMARK    4  A    between atoms: C_12  and  C_16
REMARK    5  A    between atoms: C_16  and  O_17
REMARK    6  A    between atoms: C_19  and  C_20
REMARK    7  A    between atoms: C_20  and  N_21
REMARK    8  A    between atoms: N_21  and  C_24
REMARK    9  A    between atoms: C_24  and  C_25
REMARK   10  A    between atoms: C_25  and  C_27
REMARK   11  A    between atoms: C_25  and  O_33
REMARK                            x       y       z     vdW  Elec       q    Type
REMARK                         _______ _______ _______ _____ _____    ______ ____
ROOT
ATOM      1  N   UNL     1      33.009 -23.140 -18.157  0.00  0.00    -0.335 N 
ATOM      2  H   UNL     1      32.301 -23.405 -18.788  0.00  0.00    +0.147 HD
ENDROOT
BRANCH   1   3
ATOM      3  C   UNL     1      32.821 -23.404 -16.785  0.00  0.00    +0.045 C 
ATOM      4  C   UNL     1      33.691 -24.154 -14.659  0.00  0.00    +0.001 C 
ATOM      5  C   UNL     1      33.877 -23.892 -16.017  0.00  0.00    +0.014 C 
ATOM      6  C   UNL     1      31.577 -23.177 -16.195  0.00  0.00    +0.014 C 
ATOM      7  C   UNL     1      32.447 -23.927 -14.069  0.00  0.00    +0.000 C 
ATOM      8  C   UNL     1      31.390 -23.438 -14.838  0.00  0.00    +0.001 C 
BRANCH   4   9
ATOM      9  C   UNL     1      34.787 -24.661 -13.863  0.00  0.00    +0.000 C 
ATOM     10  C   UNL     1      34.899 -24.302 -12.519  0.00  0.00    +0.006 C 
ATOM     11  C   UNL     1      35.732 -25.509 -14.440  0.00  0.00    +0.000 C 
ATOM     12  C   UNL     1      35.956 -24.791 -11.753  0.00  0.00    +0.075 C 
ATOM     13  C   UNL     1      36.790 -25.998 -13.673  0.00  0.00    +0.000 C 
ATOM     14  C   UNL     1      36.902 -25.640 -12.329  0.00  0.00    +0.006 C 
BRANCH  12  16
ATOM     15  O   UNL     1      35.396 -24.883  -9.429  0.00  0.00    -0.245 OA
ATOM     16  C   UNL     1      36.073 -24.419 -10.352  0.00  0.00    +0.338 C 
BRANCH  16  17
ATOM     17  O   UNL     1      37.033 -23.475 -10.143  0.00  0.00    -0.477 OA
ATOM     18  H   UNL     1      36.788 -22.583  -9.996  0.00  0.00    +0.295 HD
ENDBRANCH  16  17
ENDBRANCH  12  16
ENDBRANCH   4   9
ENDBRANCH   1   3
BRANCH   1  19
ATOM     19  C   UNL     1      34.183 -22.506 -18.673  0.00  0.00    +0.064 C 
BRANCH  19  20
ATOM     20  C   UNL     1      33.783 -21.359 -19.592  0.00  0.00    -0.060 C 
BRANCH  20  21
ATOM     21  N   UNL     1      34.965 -20.630 -20.036  0.00  0.00    +0.387 N 
ATOM     22  H   UNL     1      35.186 -19.905 -19.353  0.00  0.00    -0.084 HD
ATOM     23  H   UNL     1      35.740 -21.286 -20.121  0.00  0.00    -0.084 HD
BRANCH  21  24
ATOM     24  C   UNL     1      34.735 -20.009 -21.333  0.00  0.00    -0.047 C 
BRANCH  24  25
ATOM     25  C   UNL     1      35.859 -19.022 -21.672  0.00  0.00    +0.112 C 
BRANCH  25  27
ATOM     26 CL   UNL     1      33.865 -14.379 -20.444  0.00  0.00    -0.082 Cl
ATOM     27  C   UNL     1      35.306 -17.690 -22.129  0.00  0.00    +0.003 C 
ATOM     28  C   UNL     1      34.893 -16.768 -21.182  0.00  0.00    +0.009 C 
ATOM     29  C   UNL     1      35.228 -17.420 -23.484  0.00  0.00    -0.002 C 
ATOM     30  C   UNL     1      34.384 -15.540 -21.604  0.00  0.00    +0.057 C 
ATOM     31  C   UNL     1      34.719 -16.192 -23.906  0.00  0.00    +0.001 C 
ATOM     32  C   UNL     1      34.298 -15.251 -22.966  0.00  0.00    +0.011 C 
ENDBRANCH  25  27
BRANCH  25  33
ATOM     33  O   UNL     1      36.679 -18.795 -20.528  0.00  0.00    -0.382 OA
ATOM     34  H   UNL     1      37.612 -18.791 -20.793  0.00  0.00    +0.211 HD
ENDBRANCH  25  33
ENDBRANCH  24  25
ENDBRANCH  21  24
ENDBRANCH  20  21
ENDBRANCH  19  20
ENDBRANCH   1  19
TORSDOF 11
ENDMDL
MODEL 4
REMARK VINA RESULT:     -10.8      3.550      4.934
REMARK  Name = 9887812
REMARK  11 active torsions:
REMARK  status: ('A' for Active; 'I' for Inactive)
REMARK    1  A    between atoms: N_1  and  C_3
REMARK    2  A    between atoms: N_1  and  C_19
REMARK    3  A    between atoms: C_4  and  C_9
REMARK    4  A    between atoms: C_12  and  C_16
REMARK    5  A    between atoms: C_16  and  O_17
REMARK    6  A    between atoms: C_19  and  C_20
REMARK    7  A    between atoms: C_20  and  N_21
REMARK    8  A    between atoms: N_21  and  C_24
REMARK    9  A    between atoms: C_24  and  C_25
REMARK   10  A    between atoms: C_25  and  C_27
REMARK   11  A    between atoms: C_25  and  O_33
REMARK                            x       y       z     vdW  Elec       q    Type
REMARK                         _______ _______ _______ _____ _____    ______ ____
ROOT
ATOM      1  N   UNL     1      32.468 -22.977 -17.697  0.00  0.00    -0.335 N 
ATOM      2  H   UNL     1      31.630 -23.030 -18.211  0.00  0.00    +0.147 HD
ENDROOT
BRANCH   1   3
ATOM      3  C   UNL     1      32.440 -23.313 -16.328  0.00  0.00    +0.045 C 
ATOM      4  C   UNL     1      33.533 -24.217 -14.372  0.00  0.00    +0.001 C 
ATOM      5  C   UNL     1      33.561 -23.885 -15.727  0.00  0.00    +0.014 C 
ATOM      6  C   UNL     1      31.291 -23.074 -15.574  0.00  0.00    +0.014 C 
ATOM      7  C   UNL     1      32.384 -23.978 -13.618  0.00  0.00    +0.000 C 
ATOM      8  C   UNL     1      31.262 -23.407 -14.220  0.00  0.00    +0.001 C 
BRANCH   4   9
ATOM      9  C   UNL     1      34.696 -24.811 -13.749  0.00  0.00    +0.000 C 
ATOM     10  C   UNL     1      35.535 -25.645 -14.489  0.00  0.00    +0.006 C 
ATOM     11  C   UNL     1      34.978 -24.549 -12.409  0.00  0.00    +0.000 C 
ATOM     12  C   UNL     1      36.656 -26.217 -13.888  0.00  0.00    +0.075 C 
ATOM     13  C   UNL     1      36.099 -25.122 -11.807  0.00  0.00    +0.000 C 
ATOM     14  C   UNL     1      36.938 -25.956 -12.547  0.00  0.00    +0.006 C 
BRANCH  12  16
ATOM     15  O   UNL     1      38.686 -27.396 -14.348  0.00  0.00    -0.245 OA
ATOM     16  C   UNL     1      37.531 -27.085 -14.659  0.00  0.00    +0.338 C 
BRANCH  16  17
ATOM     17  O   UNL     1      36.941 -27.542 -15.798  0.00  0.00    -0.477 OA
ATOM     18  H   UNL     1      37.258 -27.263 -16.633  0.00  0.00    +0.295 HD
ENDBRANCH  16  17
ENDBRANCH  12  16
ENDBRANCH   4   9
ENDBRANCH   1   3
BRANCH   1  19
ATOM     19  C   UNL     1      33.660 -22.564 -18.372  0.00  0.00    +0.064 C 
BRANCH  19  20
ATOM     20  C   UNL     1      33.324 -21.474 -19.381  0.00  0.00    -0.060 C 
BRANCH  20  21
ATOM     21  N   UNL     1      34.535 -20.773 -19.792  0.00  0.00    +0.387 N 
ATOM     22  H   UNL     1      34.730 -20.026 -19.125  0.00  0.00    -0.084 HD
ATOM     23  H   UNL     1      35.306 -21.440 -19.815  0.00  0.00    -0.084 HD
BRANCH  21  24
ATOM     24  C   UNL     1      34.376 -20.198 -21.121  0.00  0.00    -0.047 C 
BRANCH  24  25
ATOM     25  C   UNL     1      35.614 -19.380 -21.512  0.00  0.00    +0.112 C 
BRANCH  25  27
ATOM     26 CL   UNL     1      34.226 -14.467 -20.525  0.00  0.00    -0.082 Cl
ATOM     27  C   UNL     1      35.232 -18.014 -22.037  0.00  0.00    +0.003 C 
ATOM     28  C   UNL     1      34.942 -17.002 -21.139  0.00  0.00    +0.009 C 
ATOM     29  C   UNL     1      35.182 -17.805 -23.404  0.00  0.00    -0.002 C 
ATOM     30  C   UNL     1      34.591 -15.741 -21.624  0.00  0.00    +0.057 C 
ATOM     31  C   UNL     1      34.831 -16.546 -23.889  0.00  0.00    +0.001 C 
ATOM     32  C   UNL     1      34.535 -15.514 -22.999  0.00  0.00    +0.011 C 
ENDBRANCH  25  27
BRANCH  25  33
ATOM     33  O   UNL     1      36.465 -19.202 -20.382  0.00  0.00    -0.382 OA
ATOM     34  H   UNL     1      36.593 -18.254 -20.219  0.00  0.00    +0.211 HD
ENDBRANCH  25  33
ENDBRANCH  24  25
ENDBRANCH  21  24
ENDBRANCH  20  21
ENDBRANCH  19  20
ENDBRANCH   1  19
TORSDOF 11
ENDMDL
MODEL 5
REMARK VINA RESULT:     -10.8      4.942      8.183
REMARK  Name = 9887812
REMARK  11 active torsions:
REMARK  status: ('A' for Active; 'I' for Inactive)
REMARK    1  A    between atoms: N_1  and  C_3
REMARK    2  A    between atoms: N_1  and  C_19
REMARK    3  A    between atoms: C_4  and  C_9
REMARK    4  A    between atoms: C_12  and  C_16
REMARK    5  A    between atoms: C_16  and  O_17
REMARK    6  A    between atoms: C_19  and  C_20
REMARK    7  A    between atoms: C_20  and  N_21
REMARK    8  A    between atoms: N_21  and  C_24
REMARK    9  A    between atoms: C_24  and  C_25
REMARK   10  A    between atoms: C_25  and  C_27
REMARK   11  A    between atoms: C_25  and  O_33
REMARK                            x       y       z     vdW  Elec       q    Type
REMARK                         _______ _______ _______ _____ _____    ______ ____
ROOT
ATOM      1  N   UNL     1      34.944 -15.647 -22.237  0.00  0.00    -0.335 N 
ATOM      2  H   UNL     1      35.642 -15.289 -21.642  0.00  0.00    +0.147 HD
ENDROOT
BRANCH   1   3
ATOM      3  C   UNL     1      34.935 -17.031 -22.508  0.00  0.00    +0.045 C 
ATOM      4  C   UNL     1      35.157 -19.314 -21.748  0.00  0.00    +0.001 C 
ATOM      5  C   UNL     1      35.166 -17.945 -21.480  0.00  0.00    +0.014 C 
ATOM      6  C   UNL     1      34.697 -17.487 -23.804  0.00  0.00    +0.014 C 
ATOM      7  C   UNL     1      34.919 -19.769 -23.045  0.00  0.00    +0.000 C 
ATOM      8  C   UNL     1      34.690 -18.855 -24.074  0.00  0.00    +0.001 C 
BRANCH   4   9
ATOM      9  C   UNL     1      35.396 -20.261 -20.681  0.00  0.00    +0.000 C 
ATOM     10  C   UNL     1      34.348 -21.042 -20.193  0.00  0.00    +0.006 C 
ATOM     11  C   UNL     1      36.676 -20.394 -20.141  0.00  0.00    +0.000 C 
ATOM     12  C   UNL     1      34.580 -21.954 -19.164  0.00  0.00    +0.075 C 
ATOM     13  C   UNL     1      36.907 -21.307 -19.112  0.00  0.00    +0.000 C 
ATOM     14  C   UNL     1      35.859 -22.087 -18.623  0.00  0.00    +0.006 C 
BRANCH  12  16
ATOM     15  O   UNL     1      32.430 -22.337 -18.186  0.00  0.00    -0.245 OA
ATOM     16  C   UNL     1      33.488 -22.769 -18.655  0.00  0.00    +0.338 C 
BRANCH  16  17
ATOM     17  O   UNL     1      33.748 -24.103 -18.744  0.00  0.00    -0.477 OA
ATOM     18  H   UNL     1      33.590 -24.558 -19.547  0.00  0.00    +0.295 HD
ENDBRANCH  16  17
ENDBRANCH  12  16
ENDBRANCH   4   9
ENDBRANCH   1   3
BRANCH   1  19
ATOM     19  C   UNL     1      33.983 -14.741 -22.787  0.00  0.00    +0.064 C 
BRANCH  19  20
ATOM     20  C   UNL     1      32.879 -14.488 -21.769  0.00  0.00    -0.060 C 
BRANCH  20  21
ATOM     21  N   UNL     1      31.949 -13.482 -22.269  0.00  0.00    +0.387 N 
ATOM     22  H   UNL     1      31.839 -13.602 -23.276  0.00  0.00    -0.084 HD
ATOM     23  H   UNL     1      31.054 -13.602 -21.797  0.00  0.00    -0.084 HD
BRANCH  21  24
ATOM     24  C   UNL     1      32.443 -12.139 -21.999  0.00  0.00    -0.047 C 
BRANCH  24  25
ATOM     25  C   UNL     1      31.679 -11.502 -20.832  0.00  0.00    +0.112 C 
BRANCH  25  27
ATOM     26 CL   UNL     1      31.237  -7.114 -23.587  0.00  0.00    -0.082 Cl
ATOM     27  C   UNL     1      31.753  -9.992 -20.880  0.00  0.00    +0.003 C 
ATOM     28  C   UNL     1      31.491  -9.339 -22.072  0.00  0.00    +0.009 C 
ATOM     29  C   UNL     1      32.079  -9.295 -19.729  0.00  0.00    -0.002 C 
ATOM     30  C   UNL     1      31.559  -7.947 -22.115  0.00  0.00    +0.057 C 
ATOM     31  C   UNL     1      32.148  -7.902 -19.773  0.00  0.00    +0.001 C 
ATOM     32  C   UNL     1      31.887  -7.228 -20.965  0.00  0.00    +0.011 C 
ENDBRANCH  25  27
BRANCH  25  33
ATOM     33  O   UNL     1      30.305 -11.882 -20.874  0.00  0.00    -0.382 OA
ATOM     34  H   UNL     1      29.748 -11.087 -20.876  0.00  0.00    +0.211 HD
ENDBRANCH  25  33
ENDBRANCH  24  25
ENDBRANCH  21  24
ENDBRANCH  20  21
ENDBRANCH  19  20
ENDBRANCH   1  19
TORSDOF 11
ENDMDL
MODEL 6
REMARK VINA RESULT:     -10.8      3.404      9.470
REMARK  Name = 9887812
REMARK  11 active torsions:
REMARK  status: ('A' for Active; 'I' for Inactive)
REMARK    1  A    between atoms: N_1  and  C_3
REMARK    2  A    between atoms: N_1  and  C_19
REMARK    3  A    between atoms: C_4  and  C_9
REMARK    4  A    between atoms: C_12  and  C_16
REMARK    5  A    between atoms: C_16  and  O_17
REMARK    6  A    between atoms: C_19  and  C_20
REMARK    7  A    between atoms: C_20  and  N_21
REMARK    8  A    between atoms: N_21  and  C_24
REMARK    9  A    between atoms: C_24  and  C_25
REMARK   10  A    between atoms: C_25  and  C_27
REMARK   11  A    between atoms: C_25  and  O_33
REMARK                            x       y       z     vdW  Elec       q    Type
REMARK                         _______ _______ _______ _____ _____    ______ ____
ROOT
ATOM      1  N   UNL     1      36.745 -22.410 -18.050  0.00  0.00    -0.335 N 
ATOM      2  H   UNL     1      37.251 -23.150 -18.455  0.00  0.00    +0.147 HD
ENDROOT
BRANCH   1   3
ATOM      3  C   UNL     1      35.605 -21.925 -18.723  0.00  0.00    +0.045 C 
ATOM      4  C   UNL     1      34.614 -20.498 -20.401  0.00  0.00    +0.001 C 
ATOM      5  C   UNL     1      35.743 -20.977 -19.736  0.00  0.00    +0.014 C 
ATOM      6  C   UNL     1      34.338 -22.394 -18.375  0.00  0.00    +0.014 C 
ATOM      7  C   UNL     1      33.347 -20.967 -20.053  0.00  0.00    +0.000 C 
ATOM      8  C   UNL     1      33.209 -21.915 -19.039  0.00  0.00    +0.001 C 
BRANCH   4   9
ATOM      9  C   UNL     1      34.757 -19.514 -21.452  0.00  0.00    +0.000 C 
ATOM     10  C   UNL     1      34.706 -18.154 -21.147  0.00  0.00    +0.006 C 
ATOM     11  C   UNL     1      34.947 -19.926 -22.771  0.00  0.00    +0.000 C 
ATOM     12  C   UNL     1      34.844 -17.206 -22.160  0.00  0.00    +0.075 C 
ATOM     13  C   UNL     1      35.085 -18.978 -23.785  0.00  0.00    +0.000 C 
ATOM     14  C   UNL     1      35.034 -17.617 -23.480  0.00  0.00    +0.006 C 
BRANCH  12  16
ATOM     15  O   UNL     1      34.554 -15.312 -20.727  0.00  0.00    -0.245 OA
ATOM     16  C   UNL     1      34.792 -15.788 -21.843  0.00  0.00    +0.338 C 
BRANCH  16  17
ATOM     17  O   UNL     1      35.038 -15.002 -22.927  0.00  0.00    -0.477 OA
ATOM     18  H   UNL     1      34.549 -15.125 -23.716  0.00  0.00    +0.295 HD
ENDBRANCH  16  17
ENDBRANCH  12  16
ENDBRANCH   4   9
ENDBRANCH   1   3
BRANCH   1  19
ATOM     19  C   UNL     1      37.198 -21.874 -16.803  0.00  0.00    +0.064 C 
BRANCH  19  20
ATOM     20  C   UNL     1      37.465 -23.010 -15.825  0.00  0.00    -0.060 C 
BRANCH  20  21
ATOM     21  N   UNL     1      36.295 -23.875 -15.720  0.00  0.00    +0.387 N 
ATOM     22  H   UNL     1      35.846 -23.939 -16.634  0.00  0.00    -0.084 HD
ATOM     23  H   UNL     1      36.599 -24.797 -15.408  0.00  0.00    -0.084 HD
BRANCH  21  24
ATOM     24  C   UNL     1      35.342 -23.345 -14.755  0.00  0.00    -0.047 C 
BRANCH  24  25
ATOM     25  C   UNL     1      34.724 -24.476 -13.924  0.00  0.00    +0.112 C 
BRANCH  25  27
ATOM     26 CL   UNL     1      30.469 -22.869 -16.446  0.00  0.00    -0.082 Cl
ATOM     27  C   UNL     1      33.220 -24.523 -14.084  0.00  0.00    +0.003 C 
ATOM     28  C   UNL     1      32.622 -23.762 -15.074  0.00  0.00    +0.009 C 
ATOM     29  C   UNL     1      32.475 -25.327 -13.239  0.00  0.00    -0.002 C 
ATOM     30  C   UNL     1      31.235 -23.806 -15.222  0.00  0.00    +0.057 C 
ATOM     31  C   UNL     1      31.089 -25.371 -13.387  0.00  0.00    +0.001 C 
ATOM     32  C   UNL     1      30.469 -24.611 -14.378  0.00  0.00    +0.011 C 
ENDBRANCH  25  27
BRANCH  25  33
ATOM     33  O   UNL     1      35.255 -25.736 -14.330  0.00  0.00    -0.382 OA
ATOM     34  H   UNL     1      35.373 -25.742 -15.293  0.00  0.00    +0.211 HD
ENDBRANCH  25  33
ENDBRANCH  24  25
ENDBRANCH  21  24
ENDBRANCH  20  21
ENDBRANCH  19  20
ENDBRANCH   1  19
TORSDOF 11
ENDMDL
MODEL 7
REMARK VINA RESULT:     -10.8      7.842     11.803
REMARK  Name = 9887812
REMARK  11 active torsions:
REMARK  status: ('A' for Active; 'I' for Inactive)
REMARK    1  A    between atoms: N_1  and  C_3
REMARK    2  A    between atoms: N_1  and  C_19
REMARK    3  A    between atoms: C_4  and  C_9
REMARK    4  A    between atoms: C_12  and  C_16
REMARK    5  A    between atoms: C_16  and  O_17
REMARK    6  A    between atoms: C_19  and  C_20
REMARK    7  A    between atoms: C_20  and  N_21
REMARK    8  A    between atoms: N_21  and  C_24
REMARK    9  A    between atoms: C_24  and  C_25
REMARK   10  A    between atoms: C_25  and  C_27
REMARK   11  A    between atoms: C_25  and  O_33
REMARK                            x       y       z     vdW  Elec       q    Type
REMARK                         _______ _______ _______ _____ _____    ______ ____
ROOT
ATOM      1  N   UNL     1      31.002 -12.260 -20.740  0.00  0.00    -0.335 N 
ATOM      2  H   UNL     1      30.460 -13.053 -20.526  0.00  0.00    +0.147 HD
ENDROOT
BRANCH   1   3
ATOM      3  C   UNL     1      31.989 -12.368 -21.742  0.00  0.00    +0.045 C 
ATOM      4  C   UNL     1      33.466 -13.728 -23.086  0.00  0.00    +0.001 C 
ATOM      5  C   UNL     1      32.489 -13.621 -22.095  0.00  0.00    +0.014 C 
ATOM      6  C   UNL     1      32.466 -11.223 -22.378  0.00  0.00    +0.014 C 
ATOM      7  C   UNL     1      33.943 -12.582 -23.723  0.00  0.00    +0.000 C 
ATOM      8  C   UNL     1      33.443 -11.329 -23.368  0.00  0.00    +0.001 C 
BRANCH   4   9
ATOM      9  C   UNL     1      33.985 -15.028 -23.452  0.00  0.00    +0.000 C 
ATOM     10  C   UNL     1      34.612 -15.825 -22.494  0.00  0.00    +0.006 C 
ATOM     11  C   UNL     1      33.858 -15.484 -24.764  0.00  0.00    +0.000 C 
ATOM     12  C   UNL     1      35.112 -17.077 -22.848  0.00  0.00    +0.075 C 
ATOM     13  C   UNL     1      34.358 -16.738 -25.118  0.00  0.00    +0.000 C 
ATOM     14  C   UNL     1      34.986 -17.534 -24.160  0.00  0.00    +0.006 C 
BRANCH  12  16
ATOM     15  O   UNL     1      35.393 -18.049 -20.679  0.00  0.00    -0.245 OA
ATOM     16  C   UNL     1      35.765 -17.909 -21.849  0.00  0.00    +0.338 C 
BRANCH  16  17
ATOM     17  O   UNL     1      36.867 -18.543 -22.339  0.00  0.00    -0.477 OA
ATOM     18  H   UNL     1      37.414 -19.040 -21.765  0.00  0.00    +0.295 HD
ENDBRANCH  16  17
ENDBRANCH  12  16
ENDBRANCH   4   9
ENDBRANCH   1   3
BRANCH   1  19
ATOM     19  C   UNL     1      30.752 -11.047 -20.024  0.00  0.00    +0.064 C 
BRANCH  19  20
ATOM     20  C   UNL     1      31.643 -10.990 -18.790  0.00  0.00    -0.060 C 
BRANCH  20  21
ATOM     21  N   UNL     1      32.369  -9.726 -18.746  0.00  0.00    +0.387 N 
ATOM     22  H   UNL     1      32.191  -9.270 -17.850  0.00  0.00    -0.084 HD
ATOM     23  H   UNL     1      33.364  -9.918 -18.856  0.00  0.00    -0.084 HD
BRANCH  21  24
ATOM     24  C   UNL     1      31.942  -8.844 -19.823  0.00  0.00    -0.047 C 
BRANCH  24  25
ATOM     25  C   UNL     1      33.072  -7.889 -20.226  0.00  0.00    +0.112 C 
BRANCH  25  27
ATOM     26 CL   UNL     1      34.107  -5.997 -24.958  0.00  0.00    -0.082 Cl
ATOM     27  C   UNL     1      32.664  -7.005 -21.383  0.00  0.00    +0.003 C 
ATOM     28  C   UNL     1      33.482  -6.926 -22.497  0.00  0.00    +0.009 C 
ATOM     29  C   UNL     1      31.478  -6.294 -21.305  0.00  0.00    -0.002 C 
ATOM     30  C   UNL     1      33.104  -6.110 -23.564  0.00  0.00    +0.057 C 
ATOM     31  C   UNL     1      31.100  -5.479 -22.372  0.00  0.00    +0.001 C 
ATOM     32  C   UNL     1      31.913  -5.387 -23.501  0.00  0.00    +0.011 C 
ENDBRANCH  25  27
BRANCH  25  33
ATOM     33  O   UNL     1      33.427  -7.051 -19.128  0.00  0.00    -0.382 OA
ATOM     34  H   UNL     1      32.880  -6.250 -19.142  0.00  0.00    +0.211 HD
ENDBRANCH  25  33
ENDBRANCH  24  25
ENDBRANCH  21  24
ENDBRANCH  20  21
ENDBRANCH  19  20
ENDBRANCH   1  19
TORSDOF 11
ENDMDL
MODEL 8
REMARK VINA RESULT:     -10.6      7.728     12.761
REMARK  Name = 9887812
REMARK  11 active torsions:
REMARK  status: ('A' for Active; 'I' for Inactive)
REMARK    1  A    between atoms: N_1  and  C_3
REMARK    2  A    between atoms: N_1  and  C_19
REMARK    3  A    between atoms: C_4  and  C_9
REMARK    4  A    between atoms: C_12  and  C_16
REMARK    5  A    between atoms: C_16  and  O_17
REMARK    6  A    between atoms: C_19  and  C_20
REMARK    7  A    between atoms: C_20  and  N_21
REMARK    8  A    between atoms: N_21  and  C_24
REMARK    9  A    between atoms: C_24  and  C_25
REMARK   10  A    between atoms: C_25  and  C_27
REMARK   11  A    between atoms: C_25  and  O_33
REMARK                            x       y       z     vdW  Elec       q    Type
REMARK                         _______ _______ _______ _____ _____    ______ ____
ROOT
ATOM      1  N   UNL     1      31.837 -13.333 -21.596  0.00  0.00    -0.335 N 
ATOM      2  H   UNL     1      31.236 -13.458 -22.365  0.00  0.00    +0.147 HD
ENDROOT
BRANCH   1   3
ATOM      3  C   UNL     1      31.819 -12.095 -20.921  0.00  0.00    +0.045 C 
ATOM      4  C   UNL     1      32.017  -9.687 -20.961  0.00  0.00    +0.001 C 
ATOM      5  C   UNL     1      32.035 -10.912 -21.628  0.00  0.00    +0.014 C 
ATOM      6  C   UNL     1      31.587 -12.052 -19.547  0.00  0.00    +0.014 C 
ATOM      7  C   UNL     1      31.784  -9.645 -19.586  0.00  0.00    +0.000 C 
ATOM      8  C   UNL     1      31.570 -10.828 -18.879  0.00  0.00    +0.001 C 
BRANCH   4   9
ATOM      9  C   UNL     1      32.240  -8.460 -21.694  0.00  0.00    +0.000 C 
ATOM     10  C   UNL     1      31.342  -7.400 -21.572  0.00  0.00    +0.006 C 
ATOM     11  C   UNL     1      33.355  -8.339 -22.525  0.00  0.00    +0.000 C 
ATOM     12  C   UNL     1      31.559  -6.218 -22.280  0.00  0.00    +0.075 C 
ATOM     13  C   UNL     1      33.571  -7.156 -23.233  0.00  0.00    +0.000 C 
ATOM     14  C   UNL     1      32.673  -6.096 -23.111  0.00  0.00    +0.006 C 
BRANCH  12  16
ATOM     15  O   UNL     1      30.355  -4.294 -23.040  0.00  0.00    -0.245 OA
ATOM     16  C   UNL     1      30.624  -5.111 -22.152  0.00  0.00    +0.338 C 
BRANCH  16  17
ATOM     17  O   UNL     1      30.049  -5.055 -20.919  0.00  0.00    -0.477 OA
ATOM     18  H   UNL     1      29.522  -4.318 -20.682  0.00  0.00    +0.295 HD
ENDBRANCH  16  17
ENDBRANCH  12  16
ENDBRANCH   4   9
ENDBRANCH   1   3
BRANCH   1  19
ATOM     19  C   UNL     1      32.689 -14.416 -21.209  0.00  0.00    +0.064 C 
BRANCH  19  20
ATOM     20  C   UNL     1      34.115 -14.131 -21.661  0.00  0.00    -0.060 C 
BRANCH  20  21
ATOM     21  N   UNL     1      34.157 -13.922 -23.104  0.00  0.00    +0.387 N 
ATOM     22  H   UNL     1      33.637 -13.075 -23.333  0.00  0.00    -0.084 HD
ATOM     23  H   UNL     1      35.131 -13.830 -23.391  0.00  0.00    -0.084 HD
BRANCH  21  24
ATOM     24  C   UNL     1      33.567 -15.050 -23.810  0.00  0.00    -0.047 C 
BRANCH  24  25
ATOM     25  C   UNL     1      34.637 -15.828 -24.586  0.00  0.00    +0.112 C 
BRANCH  25  27
ATOM     26 CL   UNL     1      36.764 -18.906 -20.974  0.00  0.00    -0.082 Cl
ATOM     27  C   UNL     1      34.829 -17.218 -24.022  0.00  0.00    +0.003 C 
ATOM     28  C   UNL     1      35.615 -17.388 -22.895  0.00  0.00    +0.009 C 
ATOM     29  C   UNL     1      34.213 -18.291 -24.643  0.00  0.00    -0.002 C 
ATOM     30  C   UNL     1      35.791 -18.671 -22.375  0.00  0.00    +0.057 C 
ATOM     31  C   UNL     1      34.389 -19.573 -24.123  0.00  0.00    +0.001 C 
ATOM     32  C   UNL     1      35.177 -19.763 -22.989  0.00  0.00    +0.011 C 
ENDBRANCH  25  27
BRANCH  25  33
ATOM     33  O   UNL     1      34.263 -15.951 -25.957  0.00  0.00    -0.382 OA
ATOM     34  H   UNL     1      35.044 -16.175 -26.487  0.00  0.00    +0.211 HD
ENDBRANCH  25  33
ENDBRANCH  24  25
ENDBRANCH  21  24
ENDBRANCH  20  21
ENDBRANCH  19  20
ENDBRANCH   1  19
TORSDOF 11
ENDMDL
MODEL 9
REMARK VINA RESULT:     -10.5      3.341      9.477
REMARK  Name = 9887812
REMARK  11 active torsions:
REMARK  status: ('A' for Active; 'I' for Inactive)
REMARK    1  A    between atoms: N_1  and  C_3
REMARK    2  A    between atoms: N_1  and  C_19
REMARK    3  A    between atoms: C_4  and  C_9
REMARK    4  A    between atoms: C_12  and  C_16
REMARK    5  A    between atoms: C_16  and  O_17
REMARK    6  A    between atoms: C_19  and  C_20
REMARK    7  A    between atoms: C_20  and  N_21
REMARK    8  A    between atoms: N_21  and  C_24
REMARK    9  A    between atoms: C_24  and  C_25
REMARK   10  A    between atoms: C_25  and  C_27
REMARK   11  A    between atoms: C_25  and  O_33
REMARK                            x       y       z     vdW  Elec       q    Type
REMARK                         _______ _______ _______ _____ _____    ______ ____
ROOT
ATOM      1  N   UNL     1      35.822 -23.409 -16.569  0.00  0.00    -0.335 N 
ATOM      2  H   UNL     1      36.280 -24.251 -16.792  0.00  0.00    +0.147 HD
ENDROOT
BRANCH   1   3
ATOM      3  C   UNL     1      35.049 -22.779 -17.566  0.00  0.00    +0.045 C 
ATOM      4  C   UNL     1      34.894 -21.309 -19.478  0.00  0.00    +0.001 C 
ATOM      5  C   UNL     1      35.660 -21.933 -18.492  0.00  0.00    +0.014 C 
ATOM      6  C   UNL     1      33.673 -23.000 -17.626  0.00  0.00    +0.014 C 
ATOM      7  C   UNL     1      33.518 -21.531 -19.538  0.00  0.00    +0.000 C 
ATOM      8  C   UNL     1      32.908 -22.376 -18.611  0.00  0.00    +0.001 C 
BRANCH   4   9
ATOM      9  C   UNL     1      35.528 -20.432 -20.438  0.00  0.00    +0.000 C 
ATOM     10  C   UNL     1      34.825 -20.007 -21.566  0.00  0.00    +0.006 C 
ATOM     11  C   UNL     1      36.842 -20.011 -20.235  0.00  0.00    +0.000 C 
ATOM     12  C   UNL     1      35.437 -19.162 -22.491  0.00  0.00    +0.075 C 
ATOM     13  C   UNL     1      37.454 -19.165 -21.161  0.00  0.00    +0.000 C 
ATOM     14  C   UNL     1      36.751 -18.740 -22.289  0.00  0.00    +0.006 C 
BRANCH  12  16
ATOM     15  O   UNL     1      33.996 -19.434 -24.382  0.00  0.00    -0.245 OA
ATOM     16  C   UNL     1      34.705 -18.718 -23.667  0.00  0.00    +0.338 C 
BRANCH  16  17
ATOM     17  O   UNL     1      34.880 -17.391 -23.919  0.00  0.00    -0.477 OA
ATOM     18  H   UNL     1      34.208 -16.779 -23.691  0.00  0.00    +0.295 HD
ENDBRANCH  16  17
ENDBRANCH  12  16
ENDBRANCH   4   9
ENDBRANCH   1   3
BRANCH   1  19
ATOM     19  C   UNL     1      35.968 -22.879 -15.248  0.00  0.00    +0.064 C 
BRANCH  19  20
ATOM     20  C   UNL     1      36.029 -24.022 -14.244  0.00  0.00    -0.060 C 
BRANCH  20  21
ATOM     21  N   UNL     1      34.917 -23.932 -13.305  0.00  0.00    +0.387 N 
ATOM     22  H   UNL     1      35.145 -24.465 -12.466  0.00  0.00    -0.084 HD
ATOM     23  H   UNL     1      34.765 -22.951 -13.072  0.00  0.00    -0.084 HD
BRANCH  21  24
ATOM     24  C   UNL     1      33.696 -24.466 -13.893  0.00  0.00    -0.047 C 
BRANCH  24  25
ATOM     25  C   UNL     1      32.537 -23.474 -13.737  0.00  0.00    +0.112 C 
BRANCH  25  27
ATOM     26 CL   UNL     1      28.179 -22.805 -16.494  0.00  0.00    -0.082 Cl
ATOM     27  C   UNL     1      31.242 -24.047 -14.268  0.00  0.00    +0.003 C 
ATOM     28  C   UNL     1      30.415 -23.249 -15.041  0.00  0.00    +0.009 C 
ATOM     29  C   UNL     1      30.912 -25.359 -13.973  0.00  0.00    -0.002 C 
ATOM     30  C   UNL     1      29.222 -23.779 -15.532  0.00  0.00    +0.057 C 
ATOM     31  C   UNL     1      29.719 -25.888 -14.463  0.00  0.00    +0.001 C 
ATOM     32  C   UNL     1      28.874 -25.099 -15.243  0.00  0.00    +0.011 C 
ENDBRANCH  25  27
BRANCH  25  33
ATOM     33  O   UNL     1      32.348 -23.146 -12.361  0.00  0.00    -0.382 OA
ATOM     34  H   UNL     1      31.594 -23.646 -12.010  0.00  0.00    +0.211 HD
ENDBRANCH  25  33
ENDBRANCH  24  25
ENDBRANCH  21  24
ENDBRANCH  20  21
ENDBRANCH  19  20
ENDBRANCH   1  19
TORSDOF 11
ENDMDL
