MODEL 1
REMARK VINA RESULT:     -11.2      0.000      0.000
REMARK  Name = 445018
REMARK  7 active torsions:
REMARK  status: ('A' for Active; 'I' for Inactive)
REMARK    1  A    between atoms: N_2  and  S_14
REMARK    2  A    between atoms: N_3  and  C_25
REMARK    3  A    between atoms: C_4  and  C_10
REMARK    4  A    between atoms: N_9  and  O_12
REMARK    5  A    between atoms: S_14  and  C_17
REMARK    6  A    between atoms: C_22  and  O_23
REMARK    7  A    between atoms: C_25  and  C_26
REMARK                            x       y       z     vdW  Elec       q    Type
REMARK                         _______ _______ _______ _____ _____    ______ ____
ROOT
ATOM      1  O   UNL     1      36.297 -22.932 -16.909  0.00  0.00    -0.275 OA
ATOM      2  N   UNL     1      33.177 -24.227 -14.602  0.00  0.00    -0.128 NA
ATOM      3  N   UNL     1      34.039 -23.486 -16.756  0.00  0.00    -0.260 N 
ATOM      4  C   UNL     1      34.443 -23.805 -13.949  0.00  0.00    +0.168 C 
ATOM      5  C   UNL     1      32.879 -23.534 -15.878  0.00  0.00    +0.192 C 
ATOM      6  C   UNL     1      35.244 -22.793 -14.761  0.00  0.00    +0.112 C 
ATOM      7  C   UNL     1      35.271 -23.087 -16.249  0.00  0.00    +0.229 C 
ENDROOT
BRANCH   4  10
ATOM      8  O   UNL     1      35.439 -25.833 -14.694  0.00  0.00    -0.272 OA
ATOM      9  N   UNL     1      35.628 -25.255 -12.464  0.00  0.00    -0.196 N 
ATOM     10  C   UNL     1      35.215 -25.070 -13.757  0.00  0.00    +0.261 C 
ATOM     11  H   UNL     1      35.420 -24.611 -11.750  0.00  0.00    +0.182 HD
BRANCH   9  12
ATOM     12  O   UNL     1      36.368 -26.421 -12.222  0.00  0.00    -0.295 OA
ATOM     13  H   UNL     1      36.565 -26.489 -11.275  0.00  0.00    +0.241 HD
ENDBRANCH   9  12
ENDBRANCH   4  10
BRANCH   2  14
ATOM     14  S   UNL     1      31.843 -24.537 -13.581  0.00  0.00    +0.065 S 
ATOM     15  O   UNL     1      31.780 -23.515 -12.556  0.00  0.00    -0.153 OA
ATOM     16  O   UNL     1      31.829 -25.942 -13.230  0.00  0.00    -0.153 OA
BRANCH  14  17
ATOM     17  C   UNL     1      30.514 -24.249 -14.708  0.00  0.00    +0.122 C 
ATOM     18  C   UNL     1      29.939 -25.323 -15.367  0.00  0.00    +0.023 C 
ATOM     19  C   UNL     1      30.069 -22.954 -14.914  0.00  0.00    +0.023 C 
ATOM     20  C   UNL     1      28.890 -25.096 -16.257  0.00  0.00    +0.038 C 
ATOM     21  C   UNL     1      29.019 -22.725 -15.805  0.00  0.00    +0.038 C 
ATOM     22  C   UNL     1      28.430 -23.797 -16.477  0.00  0.00    +0.139 C 
BRANCH  22  23
ATOM     23  O   UNL     1      27.405 -23.576 -17.345  0.00  0.00    -0.471 OA
ATOM     24  C   UNL     1      26.724 -22.327 -17.239  0.00  0.00    +0.252 C 
ENDBRANCH  22  23
ENDBRANCH  14  17
ENDBRANCH   2  14
BRANCH   3  25
ATOM     25  C   UNL     1      33.839 -23.731 -18.174  0.00  0.00    +0.121 C 
BRANCH  25  26
ATOM     26  C   UNL     1      33.954 -22.471 -18.983  0.00  0.00    -0.002 C 
ATOM     27  C   UNL     1      32.820 -21.705 -19.228  0.00  0.00    -0.003 C 
ATOM     28  C   UNL     1      35.193 -22.083 -19.479  0.00  0.00    -0.003 C 
ATOM     29  C   UNL     1      32.927 -20.535 -19.979  0.00  0.00    -0.000 C 
ATOM     30  C   UNL     1      35.299 -20.912 -20.230  0.00  0.00    -0.000 C 
ATOM     31  C   UNL     1      34.166 -20.139 -20.481  0.00  0.00    -0.000 C 
ENDBRANCH  25  26
ENDBRANCH   3  25
TORSDOF 7
ENDMDL
MODEL 2
REMARK VINA RESULT:      -9.7      2.221      3.310
REMARK  Name = 445018
REMARK  7 active torsions:
REMARK  status: ('A' for Active; 'I' for Inactive)
REMARK    1  A    between atoms: N_2  and  S_14
REMARK    2  A    between atoms: N_3  and  C_25
REMARK    3  A    between atoms: C_4  and  C_10
REMARK    4  A    between atoms: N_9  and  O_12
REMARK    5  A    between atoms: S_14  and  C_17
REMARK    6  A    between atoms: C_22  and  O_23
REMARK    7  A    between atoms: C_25  and  C_26
REMARK                            x       y       z     vdW  Elec       q    Type
REMARK                         _______ _______ _______ _____ _____    ______ ____
ROOT
ATOM      1  O   UNL     1      39.143 -23.942 -15.934  0.00  0.00    -0.275 OA
ATOM      2  N   UNL     1      35.861 -24.427 -13.541  0.00  0.00    -0.128 NA
ATOM      3  N   UNL     1      37.327 -22.978 -14.837  0.00  0.00    -0.260 N 
ATOM      4  C   UNL     1      36.839 -25.537 -13.675  0.00  0.00    +0.168 C 
ATOM      5  C   UNL     1      36.443 -23.071 -13.685  0.00  0.00    +0.192 C 
ATOM      6  C   UNL     1      38.249 -25.074 -14.020  0.00  0.00    +0.112 C 
ATOM      7  C   UNL     1      38.292 -23.957 -15.047  0.00  0.00    +0.229 C 
ENDROOT
BRANCH   4  10
ATOM      8  O   UNL     1      35.089 -26.379 -15.049  0.00  0.00    -0.272 OA
ATOM      9  N   UNL     1      37.228 -27.204 -15.344  0.00  0.00    -0.196 N 
ATOM     10  C   UNL     1      36.281 -26.410 -14.752  0.00  0.00    +0.261 C 
ATOM     11  H   UNL     1      38.172 -27.188 -15.066  0.00  0.00    +0.182 HD
BRANCH   9  12
ATOM     12  O   UNL     1      36.768 -28.038 -16.372  0.00  0.00    -0.295 OA
ATOM     13  H   UNL     1      35.800 -28.079 -16.347  0.00  0.00    +0.241 HD
ENDBRANCH   9  12
ENDBRANCH   4  10
BRANCH   2  14
ATOM     14  S   UNL     1      34.642 -24.604 -12.358  0.00  0.00    +0.065 S 
ATOM     15  O   UNL     1      34.630 -23.431 -11.508  0.00  0.00    -0.153 OA
ATOM     16  O   UNL     1      34.722 -25.933 -11.788  0.00  0.00    -0.153 OA
BRANCH  14  17
ATOM     17  C   UNL     1      33.203 -24.540 -13.380  0.00  0.00    +0.122 C 
ATOM     18  C   UNL     1      32.186 -25.458 -13.177  0.00  0.00    +0.023 C 
ATOM     19  C   UNL     1      33.117 -23.574 -14.368  0.00  0.00    +0.023 C 
ATOM     20  C   UNL     1      31.050 -25.408 -13.984  0.00  0.00    +0.038 C 
ATOM     21  C   UNL     1      31.980 -23.523 -15.177  0.00  0.00    +0.038 C 
ATOM     22  C   UNL     1      30.947 -24.441 -14.985  0.00  0.00    +0.139 C 
BRANCH  22  23
ATOM     23  O   UNL     1      29.838 -24.392 -15.772  0.00  0.00    -0.471 OA
ATOM     24  C   UNL     1      29.342 -23.099 -16.115  0.00  0.00    +0.252 C 
ENDBRANCH  22  23
ENDBRANCH  14  17
ENDBRANCH   2  14
BRANCH   3  25
ATOM     25  C   UNL     1      37.260 -21.783 -15.662  0.00  0.00    +0.121 C 
BRANCH  25  26
ATOM     26  C   UNL     1      36.485 -22.017 -16.927  0.00  0.00    -0.002 C 
ATOM     27  C   UNL     1      36.977 -21.535 -18.134  0.00  0.00    -0.003 C 
ATOM     28  C   UNL     1      35.281 -22.711 -16.878  0.00  0.00    -0.003 C 
ATOM     29  C   UNL     1      36.257 -21.752 -19.309  0.00  0.00    -0.000 C 
ATOM     30  C   UNL     1      34.562 -22.928 -18.052  0.00  0.00    -0.000 C 
ATOM     31  C   UNL     1      35.049 -22.448 -19.268  0.00  0.00    -0.000 C 
ENDBRANCH  25  26
ENDBRANCH   3  25
TORSDOF 7
ENDMDL
MODEL 3
REMARK VINA RESULT:      -9.5      1.606      1.794
REMARK  Name = 445018
REMARK  7 active torsions:
REMARK  status: ('A' for Active; 'I' for Inactive)
REMARK    1  A    between atoms: N_2  and  S_14
REMARK    2  A    between atoms: N_3  and  C_25
REMARK    3  A    between atoms: C_4  and  C_10
REMARK    4  A    between atoms: N_9  and  O_12
REMARK    5  A    between atoms: S_14  and  C_17
REMARK    6  A    between atoms: C_22  and  O_23
REMARK    7  A    between atoms: C_25  and  C_26
REMARK                            x       y       z     vdW  Elec       q    Type
REMARK                         _______ _______ _______ _____ _____    ______ ____
ROOT
ATOM      1  O   UNL     1      37.229 -22.070 -17.659  0.00  0.00    -0.275 OA
ATOM      2  N   UNL     1      34.709 -24.002 -15.080  0.00  0.00    -0.128 NA
ATOM      3  N   UNL     1      35.147 -23.044 -17.276  0.00  0.00    -0.260 N 
ATOM      4  C   UNL     1      35.948 -23.370 -14.557  0.00  0.00    +0.168 C 
ATOM      5  C   UNL     1      34.133 -23.337 -16.273  0.00  0.00    +0.192 C 
ATOM      6  C   UNL     1      36.442 -22.200 -15.399  0.00  0.00    +0.112 C 
ATOM      7  C   UNL     1      36.339 -22.437 -16.894  0.00  0.00    +0.229 C 
ENDROOT
BRANCH   4  10
ATOM      8  O   UNL     1      38.000 -24.369 -13.885  0.00  0.00    -0.272 OA
ATOM      9  N   UNL     1      36.576 -25.568 -15.256  0.00  0.00    -0.196 N 
ATOM     10  C   UNL     1      36.955 -24.473 -14.524  0.00  0.00    +0.261 C 
ATOM     11  H   UNL     1      35.726 -25.598 -15.751  0.00  0.00    +0.182 HD
BRANCH   9  12
ATOM     12  O   UNL     1      37.476 -26.643 -15.255  0.00  0.00    -0.295 OA
ATOM     13  H   UNL     1      37.076 -27.400 -15.710  0.00  0.00    +0.241 HD
ENDBRANCH   9  12
ENDBRANCH   4  10
BRANCH   2  14
ATOM     14  S   UNL     1      33.591 -24.590 -13.930  0.00  0.00    +0.065 S 
ATOM     15  O   UNL     1      33.838 -23.949 -12.655  0.00  0.00    -0.153 OA
ATOM     16  O   UNL     1      33.518 -26.033 -14.033  0.00  0.00    -0.153 OA
BRANCH  14  17
ATOM     17  C   UNL     1      32.091 -23.925 -14.584  0.00  0.00    +0.122 C 
ATOM     18  C   UNL     1      31.834 -24.038 -15.941  0.00  0.00    +0.023 C 
ATOM     19  C   UNL     1      31.197 -23.302 -13.730  0.00  0.00    +0.023 C 
ATOM     20  C   UNL     1      30.651 -23.512 -16.458  0.00  0.00    +0.038 C 
ATOM     21  C   UNL     1      30.012 -22.776 -14.246  0.00  0.00    +0.038 C 
ATOM     22  C   UNL     1      29.739 -22.881 -15.611  0.00  0.00    +0.139 C 
BRANCH  22  23
ATOM     23  O   UNL     1      28.583 -22.370 -16.115  0.00  0.00    -0.471 OA
ATOM     24  C   UNL     1      27.766 -23.249 -16.885  0.00  0.00    +0.252 C 
ENDBRANCH  22  23
ENDBRANCH  14  17
ENDBRANCH   2  14
BRANCH   3  25
ATOM     25  C   UNL     1      34.821 -23.277 -18.673  0.00  0.00    +0.121 C 
BRANCH  25  26
ATOM     26  C   UNL     1      34.481 -22.002 -19.390  0.00  0.00    -0.002 C 
ATOM     27  C   UNL     1      33.168 -21.546 -19.397  0.00  0.00    -0.003 C 
ATOM     28  C   UNL     1      35.483 -21.290 -20.040  0.00  0.00    -0.003 C 
ATOM     29  C   UNL     1      32.853 -20.362 -20.063  0.00  0.00    -0.000 C 
ATOM     30  C   UNL     1      35.167 -20.106 -20.706  0.00  0.00    -0.000 C 
ATOM     31  C   UNL     1      33.852 -19.642 -20.718  0.00  0.00    -0.000 C 
ENDBRANCH  25  26
ENDBRANCH   3  25
TORSDOF 7
ENDMDL
