MODEL 1
REMARK VINA RESULT:     -11.7      0.000      0.000
REMARK  Name = 3168
REMARK  6 active torsions:
REMARK  status: ('A' for Active; 'I' for Inactive)
REMARK    1  A    between atoms: N_1  and  C_19
REMARK    2  A    between atoms: C_5  and  N_9
REMARK    3  A    between atoms: C_19  and  C_20
REMARK    4  A    between atoms: C_20  and  C_21
REMARK    5  A    between atoms: C_21  and  C_23
REMARK    6  A    between atoms: C_23  and  C_25
REMARK                            x       y       z     vdW  Elec       q    Type
REMARK                         _______ _______ _______ _____ _____    ______ ____
ROOT
ATOM      1  N   UNL     1      34.181 -16.674 -24.158  0.00  0.00    +0.390 N 
ATOM      2  C   UNL     1      35.211 -15.966 -23.388  0.00  0.00    -0.071 C 
ATOM      3  C   UNL     1      34.618 -14.706 -22.738  0.00  0.00    +0.021 C 
ATOM      4  C   UNL     1      33.686 -15.837 -25.263  0.00  0.00    -0.049 C 
ATOM      5  C   UNL     1      33.766 -13.911 -23.688  0.00  0.00    +0.037 C 
ATOM      6  C   UNL     1      33.353 -14.429 -24.854  0.00  0.00    -0.036 C 
ATOM      7  H   UNL     1      33.402 -16.870 -23.530  0.00  0.00    -0.079 HD
ENDROOT
BRANCH   5   9
ATOM      8  O   UNL     1      34.590 -11.336 -24.970  0.00  0.00    -0.246 OA
ATOM      9  N   UNL     1      33.447 -12.635 -23.320  0.00  0.00    -0.263 N 
ATOM     10  N   UNL     1      33.301 -10.362 -23.249  0.00  0.00    -0.305 N 
ATOM     11  C   UNL     1      32.638 -12.270 -22.227  0.00  0.00    +0.083 A 
ATOM     12  C   UNL     1      33.877 -11.438 -23.981  0.00  0.00    +0.332 A 
ATOM     13  C   UNL     1      32.556 -10.880 -22.192  0.00  0.00    +0.076 A 
ATOM     14  C   UNL     1      31.989 -13.047 -21.288  0.00  0.00    +0.019 C 
ATOM     15  C   UNL     1      31.833 -10.202 -21.235  0.00  0.00    +0.019 C 
ATOM     16  C   UNL     1      31.248 -12.382 -20.305  0.00  0.00    +0.002 C 
ATOM     17  C   UNL     1      31.171 -10.974 -20.279  0.00  0.00    +0.002 C 
ATOM     18  H   UNL     1      33.412  -9.405 -23.456  0.00  0.00    +0.170 HD
ENDBRANCH   5   9
BRANCH   1  19
ATOM     19  C   UNL     1      34.687 -17.950 -24.661  0.00  0.00    -0.076 C 
BRANCH  19  20
ATOM     20  C   UNL     1      34.367 -19.072 -23.672  0.00  0.00    -0.015 C 
BRANCH  20  21
ATOM     21  C   UNL     1      35.580 -19.460 -22.821  0.00  0.00    +0.067 C 
BRANCH  21  23
ATOM     22  O   UNL     1      35.593 -18.130 -20.807  0.00  0.00    -0.291 OA
ATOM     23  C   UNL     1      35.375 -19.219 -21.332  0.00  0.00    +0.173 C 
BRANCH  23  25
ATOM     24  F   UNL     1      33.502 -23.430 -18.180  0.00  0.00    -0.204 F 
ATOM     25  C   UNL     1      34.874 -20.343 -20.489  0.00  0.00    +0.035 C 
ATOM     26  C   UNL     1      35.790 -21.195 -19.914  0.00  0.00    +0.005 C 
ATOM     27  C   UNL     1      33.516 -20.487 -20.318  0.00  0.00    +0.005 C 
ATOM     28  C   UNL     1      35.322 -22.248 -19.127  0.00  0.00    +0.030 C 
ATOM     29  C   UNL     1      33.047 -21.539 -19.531  0.00  0.00    +0.030 C 
ATOM     30  C   UNL     1      33.951 -22.420 -18.935  0.00  0.00    +0.140 C 
ENDBRANCH  23  25
ENDBRANCH  21  23
ENDBRANCH  20  21
ENDBRANCH  19  20
ENDBRANCH   1  19
TORSDOF 6
ENDMDL
MODEL 2
REMARK VINA RESULT:     -11.5      3.520      8.788
REMARK  Name = 3168
REMARK  6 active torsions:
REMARK  status: ('A' for Active; 'I' for Inactive)
REMARK    1  A    between atoms: N_1  and  C_19
REMARK    2  A    between atoms: C_5  and  N_9
REMARK    3  A    between atoms: C_19  and  C_20
REMARK    4  A    between atoms: C_20  and  C_21
REMARK    5  A    between atoms: C_21  and  C_23
REMARK    6  A    between atoms: C_23  and  C_25
REMARK                            x       y       z     vdW  Elec       q    Type
REMARK                         _______ _______ _______ _____ _____    ______ ____
ROOT
ATOM      1  N   UNL     1      34.103 -16.099 -23.406  0.00  0.00    +0.390 N 
ATOM      2  C   UNL     1      34.919 -17.101 -24.102  0.00  0.00    -0.071 C 
ATOM      3  C   UNL     1      34.977 -18.402 -23.286  0.00  0.00    +0.021 C 
ATOM      4  C   UNL     1      34.702 -15.744 -22.109  0.00  0.00    -0.049 C 
ATOM      5  C   UNL     1      35.239 -18.158 -21.826  0.00  0.00    +0.037 C 
ATOM      6  C   UNL     1      35.128 -16.933 -21.292  0.00  0.00    -0.036 C 
ATOM      7  H   UNL     1      33.185 -16.510 -23.232  0.00  0.00    -0.079 HD
ENDROOT
BRANCH   5   9
ATOM      8  O   UNL     1      37.997 -19.043 -21.071  0.00  0.00    -0.246 OA
ATOM      9  N   UNL     1      35.613 -19.234 -21.072  0.00  0.00    -0.263 N 
ATOM     10  N   UNL     1      36.857 -20.779 -19.950  0.00  0.00    -0.305 N 
ATOM     11  C   UNL     1      34.742 -20.170 -20.482  0.00  0.00    +0.083 A 
ATOM     12  C   UNL     1      36.959 -19.604 -20.746  0.00  0.00    +0.332 A 
ATOM     13  C   UNL     1      35.512 -21.110 -19.799  0.00  0.00    +0.076 A 
ATOM     14  C   UNL     1      33.365 -20.255 -20.501  0.00  0.00    +0.019 C 
ATOM     15  C   UNL     1      34.957 -22.165 -19.110  0.00  0.00    +0.019 C 
ATOM     16  C   UNL     1      32.776 -21.319 -19.809  0.00  0.00    +0.002 C 
ATOM     17  C   UNL     1      33.564 -22.264 -19.120  0.00  0.00    +0.002 C 
ATOM     18  H   UNL     1      37.615 -21.279 -19.567  0.00  0.00    +0.170 HD
ENDBRANCH   5   9
BRANCH   1  19
ATOM     19  C   UNL     1      33.914 -14.909 -24.233  0.00  0.00    -0.076 C 
BRANCH  19  20
ATOM     20  C   UNL     1      33.747 -13.672 -23.348  0.00  0.00    -0.015 C 
BRANCH  20  21
ATOM     21  C   UNL     1      32.286 -13.428 -22.960  0.00  0.00    +0.067 C 
BRANCH  21  23
ATOM     22  O   UNL     1      31.998 -14.443 -20.789  0.00  0.00    -0.291 OA
ATOM     23  C   UNL     1      32.055 -13.412 -21.456  0.00  0.00    +0.173 C 
BRANCH  23  25
ATOM     24  F   UNL     1      31.513  -8.488 -18.880  0.00  0.00    -0.204 F 
ATOM     25  C   UNL     1      31.912 -12.097 -20.768  0.00  0.00    +0.035 C 
ATOM     26  C   UNL     1      31.736 -12.081 -19.403  0.00  0.00    +0.005 C 
ATOM     27  C   UNL     1      31.959 -10.947 -21.524  0.00  0.00    +0.005 C 
ATOM     28  C   UNL     1      31.600 -10.851 -18.759  0.00  0.00    +0.030 C 
ATOM     29  C   UNL     1      31.823  -9.717 -20.881  0.00  0.00    +0.030 C 
ATOM     30  C   UNL     1      31.643  -9.669 -19.498  0.00  0.00    +0.140 C 
ENDBRANCH  23  25
ENDBRANCH  21  23
ENDBRANCH  20  21
ENDBRANCH  19  20
ENDBRANCH   1  19
TORSDOF 6
ENDMDL
MODEL 3
REMARK VINA RESULT:     -11.3      3.874      9.698
REMARK  Name = 3168
REMARK  6 active torsions:
REMARK  status: ('A' for Active; 'I' for Inactive)
REMARK    1  A    between atoms: N_1  and  C_19
REMARK    2  A    between atoms: C_5  and  N_9
REMARK    3  A    between atoms: C_19  and  C_20
REMARK    4  A    between atoms: C_20  and  C_21
REMARK    5  A    between atoms: C_21  and  C_23
REMARK    6  A    between atoms: C_23  and  C_25
REMARK                            x       y       z     vdW  Elec       q    Type
REMARK                         _______ _______ _______ _____ _____    ______ ____
ROOT
ATOM      1  N   UNL     1      34.050 -15.949 -23.281  0.00  0.00    +0.390 N 
ATOM      2  C   UNL     1      35.001 -16.834 -23.966  0.00  0.00    -0.071 C 
ATOM      3  C   UNL     1      35.092 -18.184 -23.238  0.00  0.00    +0.021 C 
ATOM      4  C   UNL     1      34.507 -15.648 -21.915  0.00  0.00    -0.049 C 
ATOM      5  C   UNL     1      35.209 -18.031 -21.748  0.00  0.00    +0.037 C 
ATOM      6  C   UNL     1      34.955 -16.860 -21.145  0.00  0.00    -0.036 C 
ATOM      7  H   UNL     1      33.158 -16.438 -23.220  0.00  0.00    -0.079 HD
ENDROOT
BRANCH   5   9
ATOM      8  O   UNL     1      37.984 -18.913 -21.057  0.00  0.00    -0.246 OA
ATOM      9  N   UNL     1      35.602 -19.129 -21.038  0.00  0.00    -0.263 N 
ATOM     10  N   UNL     1      36.874 -20.701 -19.986  0.00  0.00    -0.305 N 
ATOM     11  C   UNL     1      34.748 -20.094 -20.471  0.00  0.00    +0.083 A 
ATOM     12  C   UNL     1      36.956 -19.497 -20.740  0.00  0.00    +0.332 A 
ATOM     13  C   UNL     1      35.535 -21.050 -19.832  0.00  0.00    +0.076 A 
ATOM     14  C   UNL     1      33.371 -20.192 -20.477  0.00  0.00    +0.019 C 
ATOM     15  C   UNL     1      34.998 -22.135 -19.175  0.00  0.00    +0.019 C 
ATOM     16  C   UNL     1      32.801 -21.286 -19.817  0.00  0.00    +0.002 C 
ATOM     17  C   UNL     1      33.606 -22.247 -19.172  0.00  0.00    +0.002 C 
ATOM     18  H   UNL     1      37.642 -21.206 -19.630  0.00  0.00    +0.170 HD
ENDBRANCH   5   9
BRANCH   1  19
ATOM     19  C   UNL     1      33.838 -14.718 -24.040  0.00  0.00    -0.076 C 
BRANCH  19  20
ATOM     20  C   UNL     1      34.267 -13.506 -23.210  0.00  0.00    -0.015 C 
BRANCH  20  21
ATOM     21  C   UNL     1      33.241 -12.370 -23.267  0.00  0.00    +0.067 C 
BRANCH  21  23
ATOM     22  O   UNL     1      34.710 -10.931 -24.530  0.00  0.00    -0.291 OA
ATOM     23  C   UNL     1      33.845 -11.031 -23.664  0.00  0.00    +0.173 C 
BRANCH  23  25
ATOM     24  F   UNL     1      31.992  -6.410 -21.135  0.00  0.00    -0.204 F 
ATOM     25  C   UNL     1      33.352  -9.797 -22.988  0.00  0.00    +0.035 C 
ATOM     26  C   UNL     1      32.207  -9.874 -22.226  0.00  0.00    +0.005 C 
ATOM     27  C   UNL     1      34.057  -8.626 -23.150  0.00  0.00    +0.005 C 
ATOM     28  C   UNL     1      31.743  -8.719 -21.595  0.00  0.00    +0.030 C 
ATOM     29  C   UNL     1      33.594  -7.471 -22.520  0.00  0.00    +0.030 C 
ATOM     30  C   UNL     1      32.437  -7.518 -21.741  0.00  0.00    +0.140 C 
ENDBRANCH  23  25
ENDBRANCH  21  23
ENDBRANCH  20  21
ENDBRANCH  19  20
ENDBRANCH   1  19
TORSDOF 6
ENDMDL
MODEL 4
REMARK VINA RESULT:     -10.8      4.319      7.287
REMARK  Name = 3168
REMARK  6 active torsions:
REMARK  status: ('A' for Active; 'I' for Inactive)
REMARK    1  A    between atoms: N_1  and  C_19
REMARK    2  A    between atoms: C_5  and  N_9
REMARK    3  A    between atoms: C_19  and  C_20
REMARK    4  A    between atoms: C_20  and  C_21
REMARK    5  A    between atoms: C_21  and  C_23
REMARK    6  A    between atoms: C_23  and  C_25
REMARK                            x       y       z     vdW  Elec       q    Type
REMARK                         _______ _______ _______ _____ _____    ______ ____
ROOT
ATOM      1  N   UNL     1      31.600  -9.690 -20.360  0.00  0.00    +0.390 N 
ATOM      2  C   UNL     1      32.582  -8.668 -19.976  0.00  0.00    -0.071 C 
ATOM      3  C   UNL     1      32.162  -7.294 -20.523  0.00  0.00    +0.021 C 
ATOM      4  C   UNL     1      31.537  -9.833 -21.824  0.00  0.00    -0.049 C 
ATOM      5  C   UNL     1      31.718  -7.353 -21.958  0.00  0.00    +0.037 C 
ATOM      6  C   UNL     1      31.448  -8.522 -22.557  0.00  0.00    -0.036 C 
ATOM      7  H   UNL     1      30.686  -9.384 -20.028  0.00  0.00    -0.079 HD
ENDROOT
BRANCH   5   9
ATOM      8  O   UNL     1      29.787  -5.111 -21.513  0.00  0.00    -0.246 OA
ATOM      9  N   UNL     1      31.620  -6.168 -22.628  0.00  0.00    -0.263 N 
ATOM     10  N   UNL     1      30.945  -4.098 -23.303  0.00  0.00    -0.305 N 
ATOM     11  C   UNL     1      32.438  -5.754 -23.696  0.00  0.00    +0.083 A 
ATOM     12  C   UNL     1      30.666  -5.130 -22.364  0.00  0.00    +0.332 A 
ATOM     13  C   UNL     1      32.017  -4.489 -24.101  0.00  0.00    +0.076 A 
ATOM     14  C   UNL     1      33.493  -6.389 -24.321  0.00  0.00    +0.019 C 
ATOM     15  C   UNL     1      32.618  -3.802 -25.134  0.00  0.00    +0.019 C 
ATOM     16  C   UNL     1      34.119  -5.711 -25.373  0.00  0.00    +0.002 C 
ATOM     17  C   UNL     1      33.686  -4.431 -25.775  0.00  0.00    +0.002 C 
ATOM     18  H   UNL     1      30.458  -3.245 -23.376  0.00  0.00    +0.170 HD
ENDBRANCH   5   9
BRANCH   1  19
ATOM     19  C   UNL     1      31.903 -10.973 -19.727  0.00  0.00    -0.076 C 
BRANCH  19  20
ATOM     20  C   UNL     1      31.341 -12.121 -20.567  0.00  0.00    -0.015 C 
BRANCH  20  21
ATOM     21  C   UNL     1      32.235 -13.364 -20.525  0.00  0.00    +0.067 C 
BRANCH  21  23
ATOM     22  O   UNL     1      33.082 -12.731 -22.695  0.00  0.00    -0.291 OA
ATOM     23  C   UNL     1      33.042 -13.571 -21.799  0.00  0.00    +0.173 C 
BRANCH  23  25
ATOM     24  F   UNL     1      35.967 -18.291 -22.377  0.00  0.00    -0.204 F 
ATOM     25  C   UNL     1      33.824 -14.831 -21.952  0.00  0.00    +0.035 C 
ATOM     26  C   UNL     1      34.285 -15.173 -23.203  0.00  0.00    +0.005 C 
ATOM     27  C   UNL     1      34.055 -15.606 -20.838  0.00  0.00    +0.005 C 
ATOM     28  C   UNL     1      35.016 -16.353 -23.348  0.00  0.00    +0.030 C 
ATOM     29  C   UNL     1      34.785 -16.786 -20.982  0.00  0.00    +0.030 C 
ATOM     30  C   UNL     1      35.266 -17.159 -22.238  0.00  0.00    +0.140 C 
ENDBRANCH  23  25
ENDBRANCH  21  23
ENDBRANCH  20  21
ENDBRANCH  19  20
ENDBRANCH   1  19
TORSDOF 6
ENDMDL
MODEL 5
REMARK VINA RESULT:     -10.7      3.621      6.341
REMARK  Name = 3168
REMARK  6 active torsions:
REMARK  status: ('A' for Active; 'I' for Inactive)
REMARK    1  A    between atoms: N_1  and  C_19
REMARK    2  A    between atoms: C_5  and  N_9
REMARK    3  A    between atoms: C_19  and  C_20
REMARK    4  A    between atoms: C_20  and  C_21
REMARK    5  A    between atoms: C_21  and  C_23
REMARK    6  A    between atoms: C_23  and  C_25
REMARK                            x       y       z     vdW  Elec       q    Type
REMARK                         _______ _______ _______ _____ _____    ______ ____
ROOT
ATOM      1  N   UNL     1      35.581 -20.900 -19.308  0.00  0.00    +0.390 N 
ATOM      2  C   UNL     1      36.678 -20.677 -20.257  0.00  0.00    -0.071 C 
ATOM      3  C   UNL     1      36.504 -19.324 -20.964  0.00  0.00    +0.021 C 
ATOM      4  C   UNL     1      34.288 -20.967 -20.010  0.00  0.00    -0.049 C 
ATOM      5  C   UNL     1      35.096 -19.095 -21.438  0.00  0.00    +0.037 C 
ATOM      6  C   UNL     1      34.083 -19.862 -21.009  0.00  0.00    -0.036 C 
ATOM      7  H   UNL     1      35.556 -20.108 -18.667  0.00  0.00    -0.079 HD
ENDROOT
BRANCH   5   9
ATOM      8  O   UNL     1      34.991 -19.244 -24.424  0.00  0.00    -0.246 OA
ATOM      9  N   UNL     1      34.897 -18.085 -22.335  0.00  0.00    -0.263 N 
ATOM     10  N   UNL     1      34.627 -16.917 -24.273  0.00  0.00    -0.305 N 
ATOM     11  C   UNL     1      34.695 -16.728 -22.018  0.00  0.00    +0.083 A 
ATOM     12  C   UNL     1      34.858 -18.224 -23.761  0.00  0.00    +0.332 A 
ATOM     13  C   UNL     1      34.531 -16.024 -23.209  0.00  0.00    +0.076 A 
ATOM     14  C   UNL     1      34.645 -16.087 -20.797  0.00  0.00    +0.019 C 
ATOM     15  C   UNL     1      34.313 -14.664 -23.243  0.00  0.00    +0.019 C 
ATOM     16  C   UNL     1      34.425 -14.705 -20.805  0.00  0.00    +0.002 C 
ATOM     17  C   UNL     1      34.261 -14.001 -22.015  0.00  0.00    +0.002 C 
ATOM     18  H   UNL     1      34.548 -16.682 -25.227  0.00  0.00    +0.170 HD
ENDBRANCH   5   9
BRANCH   1  19
ATOM     19  C   UNL     1      35.805 -22.111 -18.520  0.00  0.00    -0.076 C 
BRANCH  19  20
ATOM     20  C   UNL     1      34.578 -23.021 -18.588  0.00  0.00    -0.015 C 
BRANCH  20  21
ATOM     21  C   UNL     1      34.082 -23.432 -17.199  0.00  0.00    +0.067 C 
BRANCH  21  23
ATOM     22  O   UNL     1      31.942 -22.475 -17.774  0.00  0.00    -0.291 OA
ATOM     23  C   UNL     1      32.619 -23.089 -16.953  0.00  0.00    +0.173 C 
BRANCH  23  25
ATOM     24  F   UNL     1      30.241 -24.748 -12.182  0.00  0.00    -0.204 F 
ATOM     25  C   UNL     1      31.985 -23.534 -15.679  0.00  0.00    +0.035 C 
ATOM     26  C   UNL     1      30.644 -23.846 -15.683  0.00  0.00    +0.005 C 
ATOM     27  C   UNL     1      32.763 -23.614 -14.546  0.00  0.00    +0.005 C 
ATOM     28  C   UNL     1      30.050 -24.260 -14.491  0.00  0.00    +0.030 C 
ATOM     29  C   UNL     1      32.169 -24.027 -13.353  0.00  0.00    +0.030 C 
ATOM     30  C   UNL     1      30.811 -24.350 -13.326  0.00  0.00    +0.140 C 
ENDBRANCH  23  25
ENDBRANCH  21  23
ENDBRANCH  20  21
ENDBRANCH  19  20
ENDBRANCH   1  19
TORSDOF 6
ENDMDL
MODEL 6
REMARK VINA RESULT:     -10.7      5.498     11.028
REMARK  Name = 3168
REMARK  6 active torsions:
REMARK  status: ('A' for Active; 'I' for Inactive)
REMARK    1  A    between atoms: N_1  and  C_19
REMARK    2  A    between atoms: C_5  and  N_9
REMARK    3  A    between atoms: C_19  and  C_20
REMARK    4  A    between atoms: C_20  and  C_21
REMARK    5  A    between atoms: C_21  and  C_23
REMARK    6  A    between atoms: C_23  and  C_25
REMARK                            x       y       z     vdW  Elec       q    Type
REMARK                         _______ _______ _______ _____ _____    ______ ____
ROOT
ATOM      1  N   UNL     1      35.474 -21.686 -18.690  0.00  0.00    +0.390 N 
ATOM      2  C   UNL     1      34.621 -22.836 -19.012  0.00  0.00    -0.071 C 
ATOM      3  C   UNL     1      33.836 -23.282 -17.769  0.00  0.00    +0.021 C 
ATOM      4  C   UNL     1      36.480 -22.047 -17.678  0.00  0.00    -0.049 C 
ATOM      5  C   UNL     1      34.695 -23.356 -16.538  0.00  0.00    +0.037 C 
ATOM      6  C   UNL     1      35.916 -22.801 -16.505  0.00  0.00    -0.036 C 
ATOM      7  H   UNL     1      34.879 -20.955 -18.303  0.00  0.00    -0.079 HD
ENDROOT
BRANCH   5   9
ATOM      8  O   UNL     1      36.072 -25.299 -14.726  0.00  0.00    -0.246 OA
ATOM      9  N   UNL     1      34.186 -24.025 -15.462  0.00  0.00    -0.263 N 
ATOM     10  N   UNL     1      33.974 -25.389 -13.649  0.00  0.00    -0.305 N 
ATOM     11  C   UNL     1      32.868 -23.928 -14.978  0.00  0.00    +0.083 A 
ATOM     12  C   UNL     1      34.903 -24.948 -14.632  0.00  0.00    +0.332 A 
ATOM     13  C   UNL     1      32.748 -24.765 -13.871  0.00  0.00    +0.076 A 
ATOM     14  C   UNL     1      31.797 -23.180 -15.426  0.00  0.00    +0.019 C 
ATOM     15  C   UNL     1      31.573 -24.898 -13.163  0.00  0.00    +0.019 C 
ATOM     16  C   UNL     1      30.592 -23.298 -14.725  0.00  0.00    +0.002 C 
ATOM     17  C   UNL     1      30.482 -24.148 -13.605  0.00  0.00    +0.002 C 
ATOM     18  H   UNL     1      34.165 -26.033 -12.928  0.00  0.00    +0.170 HD
ENDBRANCH   5   9
BRANCH   1  19
ATOM     19  C   UNL     1      36.116 -21.155 -19.892  0.00  0.00    -0.076 C 
BRANCH  19  20
ATOM     20  C   UNL     1      35.150 -20.241 -20.647  0.00  0.00    -0.015 C 
BRANCH  20  21
ATOM     21  C   UNL     1      35.881 -19.198 -21.497  0.00  0.00    +0.067 C 
BRANCH  21  23
ATOM     22  O   UNL     1      35.054 -19.952 -23.636  0.00  0.00    -0.291 OA
ATOM     23  C   UNL     1      35.270 -19.009 -22.878  0.00  0.00    +0.173 C 
BRANCH  23  25
ATOM     24  F   UNL     1      33.900 -13.848 -24.511  0.00  0.00    -0.204 F 
ATOM     25  C   UNL     1      34.906 -17.631 -23.315  0.00  0.00    +0.035 C 
ATOM     26  C   UNL     1      34.962 -16.609 -22.394  0.00  0.00    +0.005 C 
ATOM     27  C   UNL     1      34.525 -17.431 -24.623  0.00  0.00    +0.005 C 
ATOM     28  C   UNL     1      34.619 -15.320 -22.801  0.00  0.00    +0.030 C 
ATOM     29  C   UNL     1      34.181 -16.142 -25.031  0.00  0.00    +0.030 C 
ATOM     30  C   UNL     1      34.229 -15.086 -24.120  0.00  0.00    +0.140 C 
ENDBRANCH  23  25
ENDBRANCH  21  23
ENDBRANCH  20  21
ENDBRANCH  19  20
ENDBRANCH   1  19
TORSDOF 6
ENDMDL
MODEL 7
REMARK VINA RESULT:     -10.6      4.762      7.438
REMARK  Name = 3168
REMARK  6 active torsions:
REMARK  status: ('A' for Active; 'I' for Inactive)
REMARK    1  A    between atoms: N_1  and  C_19
REMARK    2  A    between atoms: C_5  and  N_9
REMARK    3  A    between atoms: C_19  and  C_20
REMARK    4  A    between atoms: C_20  and  C_21
REMARK    5  A    between atoms: C_21  and  C_23
REMARK    6  A    between atoms: C_23  and  C_25
REMARK                            x       y       z     vdW  Elec       q    Type
REMARK                         _______ _______ _______ _____ _____    ______ ____
ROOT
ATOM      1  N   UNL     1      35.268 -21.407 -18.838  0.00  0.00    +0.390 N 
ATOM      2  C   UNL     1      36.383 -21.376 -19.792  0.00  0.00    -0.071 C 
ATOM      3  C   UNL     1      36.361 -20.066 -20.595  0.00  0.00    +0.021 C 
ATOM      4  C   UNL     1      33.975 -21.379 -19.541  0.00  0.00    -0.049 C 
ATOM      5  C   UNL     1      34.986 -19.715 -21.093  0.00  0.00    +0.037 C 
ATOM      6  C   UNL     1      33.894 -20.332 -20.618  0.00  0.00    -0.036 C 
ATOM      7  H   UNL     1      35.333 -20.573 -18.254  0.00  0.00    -0.079 HD
ENDROOT
BRANCH   5   9
ATOM      8  O   UNL     1      35.088 -20.047 -24.065  0.00  0.00    -0.246 OA
ATOM      9  N   UNL     1      34.901 -18.756 -22.061  0.00  0.00    -0.263 N 
ATOM     10  N   UNL     1      34.827 -17.702 -24.080  0.00  0.00    -0.305 N 
ATOM     11  C   UNL     1      34.742 -17.375 -21.841  0.00  0.00    +0.083 A 
ATOM     12  C   UNL     1      34.957 -18.983 -23.475  0.00  0.00    +0.332 A 
ATOM     13  C   UNL     1      34.698 -16.740 -23.081  0.00  0.00    +0.076 A 
ATOM     14  C   UNL     1      34.636 -16.656 -20.668  0.00  0.00    +0.019 C 
ATOM     15  C   UNL     1      34.549 -15.376 -23.212  0.00  0.00    +0.019 C 
ATOM     16  C   UNL     1      34.485 -15.269 -20.774  0.00  0.00    +0.002 C 
ATOM     17  C   UNL     1      34.441 -14.636 -22.033  0.00  0.00    +0.002 C 
ATOM     18  H   UNL     1      34.828 -17.523 -25.049  0.00  0.00    +0.170 HD
ENDBRANCH   5   9
BRANCH   1  19
ATOM     19  C   UNL     1      35.356 -22.576 -17.964  0.00  0.00    -0.076 C 
BRANCH  19  20
ATOM     20  C   UNL     1      36.485 -22.392 -16.948  0.00  0.00    -0.015 C 
BRANCH  20  21
ATOM     21  C   UNL     1      36.009 -22.597 -15.507  0.00  0.00    +0.067 C 
BRANCH  21  23
ATOM     22  O   UNL     1      38.146 -23.613 -15.030  0.00  0.00    -0.291 OA
ATOM     23  C   UNL     1      37.012 -23.345 -14.640  0.00  0.00    +0.173 C 
BRANCH  23  25
ATOM     24  F   UNL     1      35.484 -24.849  -9.485  0.00  0.00    -0.204 F 
ATOM     25  C   UNL     1      36.605 -23.747 -13.263  0.00  0.00    +0.035 C 
ATOM     26  C   UNL     1      35.501 -24.556 -13.111  0.00  0.00    +0.005 C 
ATOM     27  C   UNL     1      37.347 -23.295 -12.196  0.00  0.00    +0.005 C 
ATOM     28  C   UNL     1      35.119 -24.931 -11.822  0.00  0.00    +0.030 C 
ATOM     29  C   UNL     1      36.966 -23.670 -10.907  0.00  0.00    +0.030 C 
ATOM     30  C   UNL     1      35.851 -24.488 -10.721  0.00  0.00    +0.140 C 
ENDBRANCH  23  25
ENDBRANCH  21  23
ENDBRANCH  20  21
ENDBRANCH  19  20
ENDBRANCH   1  19
TORSDOF 6
ENDMDL
MODEL 8
REMARK VINA RESULT:     -10.5      1.638      2.301
REMARK  Name = 3168
REMARK  6 active torsions:
REMARK  status: ('A' for Active; 'I' for Inactive)
REMARK    1  A    between atoms: N_1  and  C_19
REMARK    2  A    between atoms: C_5  and  N_9
REMARK    3  A    between atoms: C_19  and  C_20
REMARK    4  A    between atoms: C_20  and  C_21
REMARK    5  A    between atoms: C_21  and  C_23
REMARK    6  A    between atoms: C_23  and  C_25
REMARK                            x       y       z     vdW  Elec       q    Type
REMARK                         _______ _______ _______ _____ _____    ______ ____
ROOT
ATOM      1  N   UNL     1      34.069 -16.040 -23.531  0.00  0.00    +0.390 N 
ATOM      2  C   UNL     1      34.869 -15.374 -22.496  0.00  0.00    -0.071 C 
ATOM      3  C   UNL     1      34.065 -14.232 -21.854  0.00  0.00    +0.021 C 
ATOM      4  C   UNL     1      33.742 -15.106 -24.622  0.00  0.00    -0.049 C 
ATOM      5  C   UNL     1      33.363 -13.377 -22.871  0.00  0.00    +0.037 C 
ATOM      6  C   UNL     1      33.230 -13.774 -24.145  0.00  0.00    -0.036 C 
ATOM      7  H   UNL     1      33.197 -16.349 -23.102  0.00  0.00    -0.079 HD
ENDROOT
BRANCH   5   9
ATOM      8  O   UNL     1      31.175 -12.829 -20.905  0.00  0.00    -0.246 OA
ATOM      9  N   UNL     1      32.882 -12.172 -22.445  0.00  0.00    -0.263 N 
ATOM     10  N   UNL     1      31.673 -10.569 -21.366  0.00  0.00    -0.305 N 
ATOM     11  C   UNL     1      33.338 -10.907 -22.863  0.00  0.00    +0.083 A 
ATOM     12  C   UNL     1      31.825 -11.978 -21.496  0.00  0.00    +0.332 A 
ATOM     13  C   UNL     1      32.594  -9.935 -22.198  0.00  0.00    +0.076 A 
ATOM     14  C   UNL     1      34.330 -10.558 -23.757  0.00  0.00    +0.019 C 
ATOM     15  C   UNL     1      32.796  -8.586 -22.387  0.00  0.00    +0.019 C 
ATOM     16  C   UNL     1      34.555  -9.193 -23.968  0.00  0.00    +0.002 C 
ATOM     17  C   UNL     1      33.796  -8.218 -23.290  0.00  0.00    +0.002 C 
ATOM     18  H   UNL     1      31.022 -10.115 -20.782  0.00  0.00    +0.170 HD
ENDBRANCH   5   9
BRANCH   1  19
ATOM     19  C   UNL     1      34.758 -17.220 -24.050  0.00  0.00    -0.076 C 
BRANCH  19  20
ATOM     20  C   UNL     1      35.701 -17.790 -22.989  0.00  0.00    -0.015 C 
BRANCH  20  21
ATOM     21  C   UNL     1      35.269 -19.181 -22.515  0.00  0.00    +0.067 C 
BRANCH  21  23
ATOM     22  O   UNL     1      36.870 -19.068 -20.712  0.00  0.00    -0.291 OA
ATOM     23  C   UNL     1      35.831 -19.556 -21.151  0.00  0.00    +0.173 C 
BRANCH  23  25
ATOM     24  F   UNL     1      33.026 -23.230 -18.020  0.00  0.00    -0.204 F 
ATOM     25  C   UNL     1      35.081 -20.536 -20.314  0.00  0.00    +0.035 C 
ATOM     26  C   UNL     1      35.793 -21.465 -19.589  0.00  0.00    +0.005 C 
ATOM     27  C   UNL     1      33.706 -20.476 -20.298  0.00  0.00    +0.005 C 
ATOM     28  C   UNL     1      35.092 -22.384 -18.807  0.00  0.00    +0.030 C 
ATOM     29  C   UNL     1      33.005 -21.395 -19.517  0.00  0.00    +0.030 C 
ATOM     30  C   UNL     1      33.699 -22.349 -18.771  0.00  0.00    +0.140 C 
ENDBRANCH  23  25
ENDBRANCH  21  23
ENDBRANCH  20  21
ENDBRANCH  19  20
ENDBRANCH   1  19
TORSDOF 6
ENDMDL
MODEL 9
REMARK VINA RESULT:     -10.3      6.111     11.954
REMARK  Name = 3168
REMARK  6 active torsions:
REMARK  status: ('A' for Active; 'I' for Inactive)
REMARK    1  A    between atoms: N_1  and  C_19
REMARK    2  A    between atoms: C_5  and  N_9
REMARK    3  A    between atoms: C_19  and  C_20
REMARK    4  A    between atoms: C_20  and  C_21
REMARK    5  A    between atoms: C_21  and  C_23
REMARK    6  A    between atoms: C_23  and  C_25
REMARK                            x       y       z     vdW  Elec       q    Type
REMARK                         _______ _______ _______ _____ _____    ______ ____
ROOT
ATOM      1  N   UNL     1      34.083 -22.377 -17.950  0.00  0.00    +0.390 N 
ATOM      2  C   UNL     1      33.452 -23.680 -17.708  0.00  0.00    -0.071 C 
ATOM      3  C   UNL     1      33.511 -24.032 -16.213  0.00  0.00    +0.021 C 
ATOM      4  C   UNL     1      35.511 -22.413 -17.593  0.00  0.00    -0.049 C 
ATOM      5  C   UNL     1      34.864 -23.773 -15.611  0.00  0.00    +0.037 C 
ATOM      6  C   UNL     1      35.786 -23.042 -16.255  0.00  0.00    -0.036 C 
ATOM      7  H   UNL     1      33.621 -21.691 -17.353  0.00  0.00    -0.079 HD
ENDROOT
BRANCH   5   9
ATOM      8  O   UNL     1      33.033 -24.029 -13.258  0.00  0.00    -0.246 OA
ATOM      9  N   UNL     1      35.118 -24.328 -14.390  0.00  0.00    -0.263 N 
ATOM     10  N   UNL     1      34.894 -25.069 -12.246  0.00  0.00    -0.305 N 
ATOM     11  C   UNL     1      36.335 -24.910 -13.985  0.00  0.00    +0.083 A 
ATOM     12  C   UNL     1      34.192 -24.420 -13.299  0.00  0.00    +0.332 A 
ATOM     13  C   UNL     1      36.188 -25.359 -12.674  0.00  0.00    +0.076 A 
ATOM     14  C   UNL     1      37.527 -25.069 -14.664  0.00  0.00    +0.019 C 
ATOM     15  C   UNL     1      37.205 -25.980 -11.983  0.00  0.00    +0.019 C 
ATOM     16  C   UNL     1      38.576 -25.696 -13.983  0.00  0.00    +0.002 C 
ATOM     17  C   UNL     1      38.416 -26.147 -12.657  0.00  0.00    +0.002 C 
ATOM     18  H   UNL     1      34.526 -25.279 -11.357  0.00  0.00    +0.170 HD
ENDBRANCH   5   9
BRANCH   1  19
ATOM     19  C   UNL     1      33.907 -21.958 -19.339  0.00  0.00    -0.076 C 
BRANCH  19  20
ATOM     20  C   UNL     1      35.150 -21.214 -19.828  0.00  0.00    -0.015 C 
BRANCH  20  21
ATOM     21  C   UNL     1      34.835 -20.241 -20.968  0.00  0.00    +0.067 C 
BRANCH  21  23
ATOM     22  O   UNL     1      36.851 -19.018 -20.451  0.00  0.00    -0.291 OA
ATOM     23  C   UNL     1      35.748 -19.024 -20.993  0.00  0.00    +0.173 C 
BRANCH  23  25
ATOM     24  F   UNL     1      34.044 -14.453 -23.710  0.00  0.00    -0.204 F 
ATOM     25  C   UNL     1      35.291 -17.803 -21.718  0.00  0.00    +0.035 C 
ATOM     26  C   UNL     1      35.344 -17.795 -23.094  0.00  0.00    +0.005 C 
ATOM     27  C   UNL     1      34.836 -16.730 -20.986  0.00  0.00    +0.005 C 
ATOM     28  C   UNL     1      34.919 -16.652 -23.773  0.00  0.00    +0.030 C 
ATOM     29  C   UNL     1      34.412 -15.588 -21.664  0.00  0.00    +0.030 C 
ATOM     30  C   UNL     1      34.453 -15.549 -23.058  0.00  0.00    +0.140 C 
ENDBRANCH  23  25
ENDBRANCH  21  23
ENDBRANCH  20  21
ENDBRANCH  19  20
ENDBRANCH   1  19
TORSDOF 6
ENDMDL
