MODEL 1
REMARK VINA RESULT:     -13.2      0.000      0.000
REMARK  Name = 21081761
REMARK  5 active torsions:
REMARK  status: ('A' for Active; 'I' for Inactive)
REMARK    1  A    between atoms: N_2  and  C_6
REMARK    2  A    between atoms: C_3  and  C_25
REMARK    3  A    between atoms: C_7  and  O_12
REMARK    4  A    between atoms: O_12  and  C_16
REMARK    5  A    between atoms: N_24  and  C_31
REMARK                            x       y       z     vdW  Elec       q    Type
REMARK                         _______ _______ _______ _____ _____    ______ ____
ROOT
ATOM      1  O   UNL     1      36.023 -17.782 -20.629  0.00  0.00    -0.270 OA
ATOM      2  N   UNL     1      34.228 -19.101 -21.406  0.00  0.00    -0.280 N 
ATOM      3  C   UNL     1      35.077 -17.992 -21.378  0.00  0.00    +0.254 C 
ATOM      4  H   UNL     1      33.518 -19.085 -22.088  0.00  0.00    +0.155 HD
ENDROOT
BRANCH   2   6
ATOM      5  F   UNL     1      36.703 -22.416 -19.007  0.00  0.00    -0.201 F 
ATOM      6  C   UNL     1      34.263 -20.228 -20.584  0.00  0.00    +0.053 C 
ATOM      7  C   UNL     1      34.332 -22.483 -18.944  0.00  0.00    +0.173 C 
ATOM      8  C   UNL     1      35.488 -20.772 -20.197  0.00  0.00    +0.047 C 
ATOM      9  C   UNL     1      33.073 -20.811 -20.150  0.00  0.00    +0.018 C 
ATOM     10  C   UNL     1      35.523 -21.899 -19.377  0.00  0.00    +0.176 C 
ATOM     11  C   UNL     1      33.107 -21.939 -19.331  0.00  0.00    +0.041 C 
BRANCH   7  12
ATOM     12  O   UNL     1      34.366 -23.601 -18.132  0.00  0.00    -0.451 OA
BRANCH  12  16
ATOM     13  N   UNL     1      34.702 -23.515 -13.489  0.00  0.00    -0.297 N 
ATOM     14  N   UNL     1      32.469 -23.315 -14.370  0.00  0.00    -0.229 NA
ATOM     15  C   UNL     1      34.507 -23.553 -15.713  0.00  0.00    +0.067 C 
ATOM     16  C   UNL     1      33.768 -23.509 -16.906  0.00  0.00    +0.150 C 
ATOM     17  C   UNL     1      33.800 -23.451 -14.519  0.00  0.00    +0.135 C 
ATOM     18  C   UNL     1      35.879 -23.682 -15.370  0.00  0.00    +0.022 C 
ATOM     19  C   UNL     1      35.969 -23.656 -13.995  0.00  0.00    +0.063 C 
ATOM     20  C   UNL     1      32.384 -23.368 -16.810  0.00  0.00    +0.058 C 
ATOM     21  C   UNL     1      31.808 -23.279 -15.550  0.00  0.00    +0.103 C 
ATOM     22  H   UNL     1      34.476 -23.467 -12.531  0.00  0.00    +0.154 HD
ENDBRANCH  12  16
ENDBRANCH   7  12
ENDBRANCH   2   6
BRANCH   3  25
ATOM     23  O   UNL     1      33.919 -15.412 -20.882  0.00  0.00    -0.269 OA
ATOM     24  N   UNL     1      33.935 -14.771 -23.158  0.00  0.00    -0.233 N 
ATOM     25  C   UNL     1      34.734 -16.997 -22.400  0.00  0.00    +0.108 C 
ATOM     26  C   UNL     1      34.172 -15.646 -22.064  0.00  0.00    +0.261 C 
ATOM     27  C   UNL     1      34.156 -15.217 -24.461  0.00  0.00    +0.072 C 
ATOM     28  C   UNL     1      34.928 -17.350 -23.677  0.00  0.00    +0.010 C 
ATOM     29  C   UNL     1      34.622 -16.439 -24.739  0.00  0.00    +0.017 C 
BRANCH  24  31
ATOM     30  F   UNL     1      32.040  -9.608 -22.225  0.00  0.00    -0.204 F 
ATOM     31  C   UNL     1      33.443 -13.429 -22.915  0.00  0.00    +0.059 C 
ATOM     32  C   UNL     1      33.969 -12.353 -23.630  0.00  0.00    +0.018 C 
ATOM     33  C   UNL     1      32.442 -13.214 -21.967  0.00  0.00    +0.018 C 
ATOM     34  C   UNL     1      33.494 -11.062 -23.398  0.00  0.00    +0.031 C 
ATOM     35  C   UNL     1      31.967 -11.923 -21.734  0.00  0.00    +0.031 C 
ATOM     36  C   UNL     1      32.494 -10.848 -22.449  0.00  0.00    +0.140 C 
ENDBRANCH  24  31
ENDBRANCH   3  25
TORSDOF 5
ENDMDL
MODEL 2
REMARK VINA RESULT:     -13.0      3.366     11.508
REMARK  Name = 21081761
REMARK  5 active torsions:
REMARK  status: ('A' for Active; 'I' for Inactive)
REMARK    1  A    between atoms: N_2  and  C_6
REMARK    2  A    between atoms: C_3  and  C_25
REMARK    3  A    between atoms: C_7  and  O_12
REMARK    4  A    between atoms: O_12  and  C_16
REMARK    5  A    between atoms: N_24  and  C_31
REMARK                            x       y       z     vdW  Elec       q    Type
REMARK                         _______ _______ _______ _____ _____    ______ ____
ROOT
ATOM      1  O   UNL     1      35.226 -14.571 -22.867  0.00  0.00    -0.270 OA
ATOM      2  N   UNL     1      33.189 -15.128 -21.816  0.00  0.00    -0.280 N 
ATOM      3  C   UNL     1      34.400 -15.381 -22.463  0.00  0.00    +0.254 C 
ATOM      4  H   UNL     1      32.657 -15.919 -21.568  0.00  0.00    +0.155 HD
ENDROOT
BRANCH   2   6
ATOM      5  F   UNL     1      31.445 -12.114 -18.538  0.00  0.00    -0.201 F 
ATOM      6  C   UNL     1      32.639 -13.891 -21.478  0.00  0.00    +0.053 C 
ATOM      7  C   UNL     1      31.538 -11.418 -20.804  0.00  0.00    +0.173 C 
ATOM      8  C   UNL     1      32.309 -13.612 -20.152  0.00  0.00    +0.047 C 
ATOM      9  C   UNL     1      32.419 -12.933 -22.468  0.00  0.00    +0.018 C 
ATOM     10  C   UNL     1      31.758 -12.376 -19.814  0.00  0.00    +0.176 C 
ATOM     11  C   UNL     1      31.867 -11.697 -22.131  0.00  0.00    +0.041 C 
BRANCH   7  12
ATOM     12  O   UNL     1      30.991 -10.194 -20.471  0.00  0.00    -0.451 OA
BRANCH  12  16
ATOM     13  N   UNL     1      32.105  -6.673 -23.307  0.00  0.00    -0.297 N 
ATOM     14  N   UNL     1      33.318  -6.752 -21.228  0.00  0.00    -0.229 NA
ATOM     15  C   UNL     1      31.594  -8.350 -21.924  0.00  0.00    +0.067 C 
ATOM     16  C   UNL     1      31.736  -9.078 -20.731  0.00  0.00    +0.150 C 
ATOM     17  C   UNL     1      32.401  -7.229 -22.090  0.00  0.00    +0.135 C 
ATOM     18  C   UNL     1      30.791  -8.456 -23.092  0.00  0.00    +0.022 C 
ATOM     19  C   UNL     1      31.128  -7.411 -23.924  0.00  0.00    +0.063 C 
ATOM     20  C   UNL     1      32.672  -8.627 -19.802  0.00  0.00    +0.058 C 
ATOM     21  C   UNL     1      33.414  -7.492 -20.098  0.00  0.00    +0.103 C 
ATOM     22  H   UNL     1      32.528  -5.866 -23.681  0.00  0.00    +0.154 HD
ENDBRANCH  12  16
ENDBRANCH   7  12
ENDBRANCH   2   6
BRANCH   3  25
ATOM     23  O   UNL     1      34.820 -17.292 -20.362  0.00  0.00    -0.269 OA
ATOM     24  N   UNL     1      35.001 -19.134 -21.833  0.00  0.00    -0.233 N 
ATOM     25  C   UNL     1      34.649 -16.815 -22.648  0.00  0.00    +0.108 C 
ATOM     26  C   UNL     1      34.814 -17.767 -21.498  0.00  0.00    +0.261 C 
ATOM     27  C   UNL     1      35.095 -19.512 -23.173  0.00  0.00    +0.072 C 
ATOM     28  C   UNL     1      34.743 -17.255 -23.908  0.00  0.00    +0.010 C 
ATOM     29  C   UNL     1      34.983 -18.641 -24.181  0.00  0.00    +0.017 C 
BRANCH  24  31
ATOM     30  F   UNL     1      35.442 -22.950 -17.787  0.00  0.00    -0.204 F 
ATOM     31  C   UNL     1      35.116 -20.126 -20.781  0.00  0.00    +0.059 C 
ATOM     32  C   UNL     1      33.969 -20.726 -20.260  0.00  0.00    +0.018 C 
ATOM     33  C   UNL     1      36.373 -20.480 -20.291  0.00  0.00    +0.018 C 
ATOM     34  C   UNL     1      34.080 -21.680 -19.249  0.00  0.00    +0.031 C 
ATOM     35  C   UNL     1      36.484 -21.435 -19.280  0.00  0.00    +0.031 C 
ATOM     36  C   UNL     1      35.337 -22.035 -18.759  0.00  0.00    +0.140 C 
ENDBRANCH  24  31
ENDBRANCH   3  25
TORSDOF 5
ENDMDL
MODEL 3
REMARK VINA RESULT:     -12.9      2.846      4.980
REMARK  Name = 21081761
REMARK  5 active torsions:
REMARK  status: ('A' for Active; 'I' for Inactive)
REMARK    1  A    between atoms: N_2  and  C_6
REMARK    2  A    between atoms: C_3  and  C_25
REMARK    3  A    between atoms: C_7  and  O_12
REMARK    4  A    between atoms: O_12  and  C_16
REMARK    5  A    between atoms: N_24  and  C_31
REMARK                            x       y       z     vdW  Elec       q    Type
REMARK                         _______ _______ _______ _____ _____    ______ ____
ROOT
ATOM      1  O   UNL     1      32.311 -14.173 -22.081  0.00  0.00    -0.270 OA
ATOM      2  N   UNL     1      34.509 -14.538 -22.856  0.00  0.00    -0.280 N 
ATOM      3  C   UNL     1      33.355 -13.795 -22.599  0.00  0.00    +0.254 C 
ATOM      4  H   UNL     1      35.251 -14.052 -23.284  0.00  0.00    +0.155 HD
ENDROOT
BRANCH   2   6
ATOM      5  F   UNL     1      34.974 -19.059 -24.346  0.00  0.00    -0.201 F 
ATOM      6  C   UNL     1      34.739 -15.886 -22.582  0.00  0.00    +0.053 C 
ATOM      7  C   UNL     1      35.197 -18.583 -22.032  0.00  0.00    +0.173 C 
ATOM      8  C   UNL     1      34.743 -16.820 -23.619  0.00  0.00    +0.047 C 
ATOM      9  C   UNL     1      34.966 -16.302 -21.270  0.00  0.00    +0.018 C 
ATOM     10  C   UNL     1      34.971 -18.168 -23.345  0.00  0.00    +0.176 C 
ATOM     11  C   UNL     1      35.194 -17.650 -20.995  0.00  0.00    +0.041 C 
BRANCH   7  12
ATOM     12  O   UNL     1      35.423 -19.919 -21.759  0.00  0.00    -0.451 OA
BRANCH  12  16
ATOM     13  N   UNL     1      35.086 -22.481 -17.887  0.00  0.00    -0.297 N 
ATOM     14  N   UNL     1      32.996 -21.711 -18.805  0.00  0.00    -0.229 NA
ATOM     15  C   UNL     1      35.213 -21.249 -19.745  0.00  0.00    +0.067 C 
ATOM     16  C   UNL     1      34.652 -20.505 -20.795  0.00  0.00    +0.150 C 
ATOM     17  C   UNL     1      34.339 -21.804 -18.815  0.00  0.00    +0.135 C 
ATOM     18  C   UNL     1      36.526 -21.615 -19.345  0.00  0.00    +0.022 C 
ATOM     19  C   UNL     1      36.417 -22.372 -18.199  0.00  0.00    +0.063 C 
ATOM     20  C   UNL     1      33.264 -20.376 -20.833  0.00  0.00    +0.058 C 
ATOM     21  C   UNL     1      32.510 -20.985 -19.838  0.00  0.00    +0.103 C 
ATOM     22  H   UNL     1      34.723 -22.970 -17.112  0.00  0.00    +0.154 HD
ENDBRANCH  12  16
ENDBRANCH   7  12
ENDBRANCH   2   6
BRANCH   3  25
ATOM     23  O   UNL     1      31.865 -11.580 -21.542  0.00  0.00    -0.269 OA
ATOM     24  N   UNL     1      32.964  -9.973 -22.884  0.00  0.00    -0.233 N 
ATOM     25  C   UNL     1      33.481 -12.397 -23.027  0.00  0.00    +0.108 C 
ATOM     26  C   UNL     1      32.700 -11.280 -22.396  0.00  0.00    +0.261 C 
ATOM     27  C   UNL     1      33.852  -9.795 -23.945  0.00  0.00    +0.072 C 
ATOM     28  C   UNL     1      34.323 -12.147 -24.036  0.00  0.00    +0.010 C 
ATOM     29  C   UNL     1      34.508 -10.810 -24.517  0.00  0.00    +0.017 C 
BRANCH  24  31
ATOM     30  F   UNL     1      30.375  -5.586 -20.608  0.00  0.00    -0.204 F 
ATOM     31  C   UNL     1      32.291  -8.832 -22.292  0.00  0.00    +0.059 C 
ATOM     32  C   UNL     1      31.311  -8.150 -23.013  0.00  0.00    +0.018 C 
ATOM     33  C   UNL     1      32.624  -8.418 -21.002  0.00  0.00    +0.018 C 
ATOM     34  C   UNL     1      30.663  -7.054 -22.444  0.00  0.00    +0.031 C 
ATOM     35  C   UNL     1      31.976  -7.322 -20.432  0.00  0.00    +0.031 C 
ATOM     36  C   UNL     1      30.996  -6.640 -21.153  0.00  0.00    +0.140 C 
ENDBRANCH  24  31
ENDBRANCH   3  25
TORSDOF 5
ENDMDL
MODEL 4
REMARK VINA RESULT:     -12.8      0.410      1.741
REMARK  Name = 21081761
REMARK  5 active torsions:
REMARK  status: ('A' for Active; 'I' for Inactive)
REMARK    1  A    between atoms: N_2  and  C_6
REMARK    2  A    between atoms: C_3  and  C_25
REMARK    3  A    between atoms: C_7  and  O_12
REMARK    4  A    between atoms: O_12  and  C_16
REMARK    5  A    between atoms: N_24  and  C_31
REMARK                            x       y       z     vdW  Elec       q    Type
REMARK                         _______ _______ _______ _____ _____    ______ ____
ROOT
ATOM      1  O   UNL     1      36.030 -17.754 -20.599  0.00  0.00    -0.270 OA
ATOM      2  N   UNL     1      34.246 -19.073 -21.400  0.00  0.00    -0.280 N 
ATOM      3  C   UNL     1      35.090 -17.961 -21.356  0.00  0.00    +0.254 C 
ATOM      4  H   UNL     1      33.540 -19.054 -22.086  0.00  0.00    +0.155 HD
ENDROOT
BRANCH   2   6
ATOM      5  F   UNL     1      36.717 -22.489 -19.144  0.00  0.00    -0.201 F 
ATOM      6  C   UNL     1      34.281 -20.208 -20.591  0.00  0.00    +0.053 C 
ATOM      7  C   UNL     1      34.351 -22.480 -18.973  0.00  0.00    +0.173 C 
ATOM      8  C   UNL     1      35.504 -20.795 -20.264  0.00  0.00    +0.047 C 
ATOM      9  C   UNL     1      33.093 -20.758 -20.107  0.00  0.00    +0.018 C 
ATOM     10  C   UNL     1      35.539 -21.932 -19.455  0.00  0.00    +0.176 C 
ATOM     11  C   UNL     1      33.128 -21.894 -19.299  0.00  0.00    +0.041 C 
BRANCH   7  12
ATOM     12  O   UNL     1      34.385 -23.606 -18.172  0.00  0.00    -0.451 OA
BRANCH  12  16
ATOM     13  N   UNL     1      32.346 -23.257 -14.001  0.00  0.00    -0.297 N 
ATOM     14  N   UNL     1      34.743 -23.021 -14.006  0.00  0.00    -0.229 NA
ATOM     15  C   UNL     1      33.354 -23.420 -15.987  0.00  0.00    +0.067 C 
ATOM     16  C   UNL     1      34.483 -23.419 -16.822  0.00  0.00    +0.150 C 
ATOM     17  C   UNL     1      33.565 -23.219 -14.626  0.00  0.00    +0.135 C 
ATOM     18  C   UNL     1      31.955 -23.581 -16.167  0.00  0.00    +0.022 C 
ATOM     19  C   UNL     1      31.360 -23.476 -14.929  0.00  0.00    +0.063 C 
ATOM     20  C   UNL     1      35.730 -23.218 -16.232  0.00  0.00    +0.058 C 
ATOM     21  C   UNL     1      35.795 -23.029 -14.858  0.00  0.00    +0.103 C 
ATOM     22  H   UNL     1      32.200 -23.144 -13.034  0.00  0.00    +0.154 HD
ENDBRANCH  12  16
ENDBRANCH   7  12
ENDBRANCH   2   6
BRANCH   3  25
ATOM     23  O   UNL     1      33.887 -15.405 -20.843  0.00  0.00    -0.269 OA
ATOM     24  N   UNL     1      33.929 -14.733 -23.109  0.00  0.00    -0.233 N 
ATOM     25  C   UNL     1      34.748 -16.957 -22.370  0.00  0.00    +0.108 C 
ATOM     26  C   UNL     1      34.162 -15.618 -22.024  0.00  0.00    +0.261 C 
ATOM     27  C   UNL     1      34.176 -15.157 -24.415  0.00  0.00    +0.072 C 
ATOM     28  C   UNL     1      34.966 -17.290 -23.648  0.00  0.00    +0.010 C 
ATOM     29  C   UNL     1      34.663 -16.368 -24.703  0.00  0.00    +0.017 C 
BRANCH  24  31
ATOM     30  F   UNL     1      31.947  -9.610 -22.134  0.00  0.00    -0.204 F 
ATOM     31  C   UNL     1      33.414 -13.401 -22.856  0.00  0.00    +0.059 C 
ATOM     32  C   UNL     1      32.405 -13.212 -21.912  0.00  0.00    +0.018 C 
ATOM     33  C   UNL     1      33.928 -12.309 -23.556  0.00  0.00    +0.018 C 
ATOM     34  C   UNL     1      31.910 -11.931 -21.667  0.00  0.00    +0.031 C 
ATOM     35  C   UNL     1      33.433 -11.028 -23.312  0.00  0.00    +0.031 C 
ATOM     36  C   UNL     1      32.424 -10.839 -22.368  0.00  0.00    +0.140 C 
ENDBRANCH  24  31
ENDBRANCH   3  25
TORSDOF 5
ENDMDL
MODEL 5
REMARK VINA RESULT:     -12.8      3.733      6.501
REMARK  Name = 21081761
REMARK  5 active torsions:
REMARK  status: ('A' for Active; 'I' for Inactive)
REMARK    1  A    between atoms: N_2  and  C_6
REMARK    2  A    between atoms: C_3  and  C_25
REMARK    3  A    between atoms: C_7  and  O_12
REMARK    4  A    between atoms: O_12  and  C_16
REMARK    5  A    between atoms: N_24  and  C_31
REMARK                            x       y       z     vdW  Elec       q    Type
REMARK                         _______ _______ _______ _____ _____    ______ ____
ROOT
ATOM      1  O   UNL     1      31.262 -13.552 -21.328  0.00  0.00    -0.270 OA
ATOM      2  N   UNL     1      33.606 -13.318 -21.183  0.00  0.00    -0.280 N 
ATOM      3  C   UNL     1      32.275 -12.898 -21.114  0.00  0.00    +0.254 C 
ATOM      4  H   UNL     1      34.286 -12.638 -20.974  0.00  0.00    +0.155 HD
ENDROOT
BRANCH   2   6
ATOM      5  F   UNL     1      35.299 -16.403 -24.421  0.00  0.00    -0.201 F 
ATOM      6  C   UNL     1      34.088 -14.585 -21.513  0.00  0.00    +0.053 C 
ATOM      7  C   UNL     1      35.051 -17.118 -22.173  0.00  0.00    +0.173 C 
ATOM      8  C   UNL     1      34.461 -14.870 -22.827  0.00  0.00    +0.047 C 
ATOM      9  C   UNL     1      34.198 -15.567 -20.529  0.00  0.00    +0.018 C 
ATOM     10  C   UNL     1      34.942 -16.137 -23.157  0.00  0.00    +0.176 C 
ATOM     11  C   UNL     1      34.679 -16.834 -20.859  0.00  0.00    +0.041 C 
BRANCH   7  12
ATOM     12  O   UNL     1      35.527 -18.374 -22.499  0.00  0.00    -0.451 OA
BRANCH  12  16
ATOM     13  N   UNL     1      34.113 -21.521 -19.372  0.00  0.00    -0.297 N 
ATOM     14  N   UNL     1      36.463 -20.996 -19.324  0.00  0.00    -0.229 NA
ATOM     15  C   UNL     1      34.823 -20.015 -20.860  0.00  0.00    +0.067 C 
ATOM     16  C   UNL     1      35.813 -19.228 -21.471  0.00  0.00    +0.150 C 
ATOM     17  C   UNL     1      35.221 -20.851 -19.821  0.00  0.00    +0.135 C 
ATOM     18  C   UNL     1      33.425 -20.202 -21.027  0.00  0.00    +0.022 C 
ATOM     19  C   UNL     1      33.016 -21.134 -20.098  0.00  0.00    +0.063 C 
ATOM     20  C   UNL     1      37.119 -19.340 -20.995  0.00  0.00    +0.058 C 
ATOM     21  C   UNL     1      37.375 -20.215 -19.949  0.00  0.00    +0.103 C 
ATOM     22  H   UNL     1      34.105 -22.180 -18.641  0.00  0.00    +0.154 HD
ENDBRANCH  12  16
ENDBRANCH   7  12
ENDBRANCH   2   6
BRANCH   3  25
ATOM     23  O   UNL     1      32.726 -10.649 -22.841  0.00  0.00    -0.269 OA
ATOM     24  N   UNL     1      32.157  -9.048 -21.196  0.00  0.00    -0.233 N 
ATOM     25  C   UNL     1      32.152 -11.487 -20.731  0.00  0.00    +0.108 C 
ATOM     26  C   UNL     1      32.359 -10.360 -21.702  0.00  0.00    +0.261 C 
ATOM     27  C   UNL     1      31.860  -8.864 -19.846  0.00  0.00    +0.072 C 
ATOM     28  C   UNL     1      31.859 -11.231 -19.450  0.00  0.00    +0.010 C 
ATOM     29  C   UNL     1      31.718  -9.881 -18.991  0.00  0.00    +0.017 C 
BRANCH  24  31
ATOM     30  F   UNL     1      32.650  -4.657 -24.603  0.00  0.00    -0.204 F 
ATOM     31  C   UNL     1      32.285  -7.906 -22.082  0.00  0.00    +0.059 C 
ATOM     32  C   UNL     1      33.541  -7.532 -22.560  0.00  0.00    +0.018 C 
ATOM     33  C   UNL     1      31.152  -7.183 -22.456  0.00  0.00    +0.018 C 
ATOM     34  C   UNL     1      33.664  -6.434 -23.412  0.00  0.00    +0.031 C 
ATOM     35  C   UNL     1      31.275  -6.086 -23.308  0.00  0.00    +0.031 C 
ATOM     36  C   UNL     1      32.531  -5.711 -23.786  0.00  0.00    +0.140 C 
ENDBRANCH  24  31
ENDBRANCH   3  25
TORSDOF 5
ENDMDL
MODEL 6
REMARK VINA RESULT:     -12.5      2.865     10.836
REMARK  Name = 21081761
REMARK  5 active torsions:
REMARK  status: ('A' for Active; 'I' for Inactive)
REMARK    1  A    between atoms: N_2  and  C_6
REMARK    2  A    between atoms: C_3  and  C_25
REMARK    3  A    between atoms: C_7  and  O_12
REMARK    4  A    between atoms: O_12  and  C_16
REMARK    5  A    between atoms: N_24  and  C_31
REMARK                            x       y       z     vdW  Elec       q    Type
REMARK                         _______ _______ _______ _____ _____    ______ ____
ROOT
ATOM      1  O   UNL     1      32.771 -22.608 -19.653  0.00  0.00    -0.270 OA
ATOM      2  N   UNL     1      34.632 -21.350 -18.931  0.00  0.00    -0.280 N 
ATOM      3  C   UNL     1      33.602 -22.286 -18.812  0.00  0.00    +0.254 C 
ATOM      4  H   UNL     1      35.200 -21.229 -18.136  0.00  0.00    +0.155 HD
ENDROOT
BRANCH   2   6
ATOM      5  F   UNL     1      37.823 -18.837 -21.454  0.00  0.00    -0.201 F 
ATOM      6  C   UNL     1      34.953 -20.565 -20.038  0.00  0.00    +0.053 C 
ATOM      7  C   UNL     1      35.594 -18.993 -22.252  0.00  0.00    +0.173 C 
ATOM      8  C   UNL     1      36.252 -20.082 -20.199  0.00  0.00    +0.047 C 
ATOM      9  C   UNL     1      33.975 -20.262 -20.986  0.00  0.00    +0.018 C 
ATOM     10  C   UNL     1      36.573 -19.296 -21.305  0.00  0.00    +0.176 C 
ATOM     11  C   UNL     1      34.295 -19.475 -22.092  0.00  0.00    +0.041 C 
BRANCH   7  12
ATOM     12  O   UNL     1      35.911 -18.213 -23.348  0.00  0.00    -0.451 OA
BRANCH  12  16
ATOM     13  N   UNL     1      33.597 -14.455 -21.865  0.00  0.00    -0.297 N 
ATOM     14  N   UNL     1      33.421 -14.916 -24.222  0.00  0.00    -0.229 NA
ATOM     15  C   UNL     1      34.696 -16.251 -22.608  0.00  0.00    +0.067 C 
ATOM     16  C   UNL     1      35.106 -17.141 -23.614  0.00  0.00    +0.150 C 
ATOM     17  C   UNL     1      33.876 -15.193 -22.986  0.00  0.00    +0.135 C 
ATOM     18  C   UNL     1      34.906 -16.130 -21.208  0.00  0.00    +0.022 C 
ATOM     19  C   UNL     1      34.217 -15.017 -20.779  0.00  0.00    +0.063 C 
ATOM     20  C   UNL     1      34.664 -16.902 -24.915  0.00  0.00    +0.058 C 
ATOM     21  C   UNL     1      33.846 -15.805 -25.150  0.00  0.00    +0.103 C 
ATOM     22  H   UNL     1      33.036 -13.646 -21.842  0.00  0.00    +0.154 HD
ENDBRANCH  12  16
ENDBRANCH   7  12
ENDBRANCH   2   6
BRANCH   3  25
ATOM     23  O   UNL     1      35.899 -23.093 -17.291  0.00  0.00    -0.269 OA
ATOM     24  N   UNL     1      34.630 -23.844 -15.442  0.00  0.00    -0.233 N 
ATOM     25  C   UNL     1      33.572 -22.922 -17.491  0.00  0.00    +0.108 C 
ATOM     26  C   UNL     1      34.818 -23.277 -16.730  0.00  0.00    +0.261 C 
ATOM     27  C   UNL     1      33.339 -24.109 -14.983  0.00  0.00    +0.072 C 
ATOM     28  C   UNL     1      32.366 -23.199 -16.980  0.00  0.00    +0.010 C 
ATOM     29  C   UNL     1      32.245 -23.819 -15.693  0.00  0.00    +0.017 C 
BRANCH  24  31
ATOM     30  F   UNL     1      39.057 -25.083 -12.282  0.00  0.00    -0.204 F 
ATOM     31  C   UNL     1      35.781 -24.166 -14.620  0.00  0.00    +0.059 C 
ATOM     32  C   UNL     1      36.268 -23.232 -13.705  0.00  0.00    +0.018 C 
ATOM     33  C   UNL     1      36.401 -25.410 -14.745  0.00  0.00    +0.018 C 
ATOM     34  C   UNL     1      37.374 -23.542 -12.915  0.00  0.00    +0.031 C 
ATOM     35  C   UNL     1      37.507 -25.720 -13.955  0.00  0.00    +0.031 C 
ATOM     36  C   UNL     1      37.994 -24.786 -13.040  0.00  0.00    +0.140 C 
ENDBRANCH  24  31
ENDBRANCH   3  25
TORSDOF 5
ENDMDL
MODEL 7
REMARK VINA RESULT:     -12.5      1.229      2.046
REMARK  Name = 21081761
REMARK  5 active torsions:
REMARK  status: ('A' for Active; 'I' for Inactive)
REMARK    1  A    between atoms: N_2  and  C_6
REMARK    2  A    between atoms: C_3  and  C_25
REMARK    3  A    between atoms: C_7  and  O_12
REMARK    4  A    between atoms: O_12  and  C_16
REMARK    5  A    between atoms: N_24  and  C_31
REMARK                            x       y       z     vdW  Elec       q    Type
REMARK                         _______ _______ _______ _____ _____    ______ ____
ROOT
ATOM      1  O   UNL     1      36.544 -18.119 -21.695  0.00  0.00    -0.270 OA
ATOM      2  N   UNL     1      34.359 -18.997 -21.541  0.00  0.00    -0.280 N 
ATOM      3  C   UNL     1      35.354 -18.124 -21.987  0.00  0.00    +0.254 C 
ATOM      4  H   UNL     1      33.453 -18.837 -21.892  0.00  0.00    +0.155 HD
ENDROOT
BRANCH   2   6
ATOM      5  F   UNL     1      32.432 -22.097 -18.452  0.00  0.00    -0.201 F 
ATOM      6  C   UNL     1      34.493 -20.068 -20.658  0.00  0.00    +0.053 C 
ATOM      7  C   UNL     1      34.761 -22.210 -18.890  0.00  0.00    +0.173 C 
ATOM      8  C   UNL     1      33.376 -20.559 -19.981  0.00  0.00    +0.047 C 
ATOM      9  C   UNL     1      35.744 -20.650 -20.451  0.00  0.00    +0.018 C 
ATOM     10  C   UNL     1      33.509 -21.630 -19.097  0.00  0.00    +0.176 C 
ATOM     11  C   UNL     1      35.878 -21.720 -19.566  0.00  0.00    +0.041 C 
BRANCH   7  12
ATOM     12  O   UNL     1      34.894 -23.270 -18.013  0.00  0.00    -0.451 OA
BRANCH  12  16
ATOM     13  N   UNL     1      35.325 -23.640 -13.392  0.00  0.00    -0.297 N 
ATOM     14  N   UNL     1      37.178 -22.598 -14.525  0.00  0.00    -0.229 NA
ATOM     15  C   UNL     1      35.149 -23.447 -15.610  0.00  0.00    +0.067 C 
ATOM     16  C   UNL     1      35.621 -23.060 -16.875  0.00  0.00    +0.150 C 
ATOM     17  C   UNL     1      35.967 -23.187 -14.515  0.00  0.00    +0.135 C 
ATOM     18  C   UNL     1      33.979 -24.078 -15.109  0.00  0.00    +0.022 C 
ATOM     19  C   UNL     1      34.115 -24.182 -13.742  0.00  0.00    +0.063 C 
ATOM     20  C   UNL     1      36.870 -22.445 -16.944  0.00  0.00    +0.058 C 
ATOM     21  C   UNL     1      37.581 -22.246 -15.768  0.00  0.00    +0.103 C 
ATOM     22  H   UNL     1      35.678 -23.584 -12.474  0.00  0.00    +0.154 HD
ENDBRANCH  12  16
ENDBRANCH   7  12
ENDBRANCH   2   6
BRANCH   3  25
ATOM     23  O   UNL     1      34.304 -15.554 -21.255  0.00  0.00    -0.269 OA
ATOM     24  N   UNL     1      33.920 -14.878 -23.488  0.00  0.00    -0.233 N 
ATOM     25  C   UNL     1      34.837 -17.114 -22.918  0.00  0.00    +0.108 C 
ATOM     26  C   UNL     1      34.345 -15.768 -22.466  0.00  0.00    +0.261 C 
ATOM     27  C   UNL     1      33.907 -15.303 -24.817  0.00  0.00    +0.072 C 
ATOM     28  C   UNL     1      34.803 -17.447 -24.213  0.00  0.00    +0.010 C 
ATOM     29  C   UNL     1      34.315 -16.520 -25.191  0.00  0.00    +0.017 C 
BRANCH  24  31
ATOM     30  F   UNL     1      32.225  -9.732 -22.157  0.00  0.00    -0.204 F 
ATOM     31  C   UNL     1      33.479 -13.540 -23.142  0.00  0.00    +0.059 C 
ATOM     32  C   UNL     1      34.006 -12.437 -23.814  0.00  0.00    +0.018 C 
ATOM     33  C   UNL     1      32.529 -13.357 -22.137  0.00  0.00    +0.018 C 
ATOM     34  C   UNL     1      33.581 -11.151 -23.482  0.00  0.00    +0.031 C 
ATOM     35  C   UNL     1      32.104 -12.071 -21.804  0.00  0.00    +0.031 C 
ATOM     36  C   UNL     1      32.631 -10.967 -22.477  0.00  0.00    +0.140 C 
ENDBRANCH  24  31
ENDBRANCH   3  25
TORSDOF 5
ENDMDL
MODEL 8
REMARK VINA RESULT:     -12.5      2.135      3.276
REMARK  Name = 21081761
REMARK  5 active torsions:
REMARK  status: ('A' for Active; 'I' for Inactive)
REMARK    1  A    between atoms: N_2  and  C_6
REMARK    2  A    between atoms: C_3  and  C_25
REMARK    3  A    between atoms: C_7  and  O_12
REMARK    4  A    between atoms: O_12  and  C_16
REMARK    5  A    between atoms: N_24  and  C_31
REMARK                            x       y       z     vdW  Elec       q    Type
REMARK                         _______ _______ _______ _____ _____    ______ ____
ROOT
ATOM      1  O   UNL     1      36.694 -19.886 -20.138  0.00  0.00    -0.270 OA
ATOM      2  N   UNL     1      34.547 -20.864 -20.185  0.00  0.00    -0.280 N 
ATOM      3  C   UNL     1      35.583 -20.039 -20.629  0.00  0.00    +0.254 C 
ATOM      4  H   UNL     1      33.721 -20.848 -20.720  0.00  0.00    +0.155 HD
ENDROOT
BRANCH   2   6
ATOM      5  F   UNL     1      32.170 -23.565 -17.035  0.00  0.00    -0.201 F 
ATOM      6  C   UNL     1      34.541 -21.709 -19.075  0.00  0.00    +0.053 C 
ATOM      7  C   UNL     1      34.529 -23.396 -16.853  0.00  0.00    +0.173 C 
ATOM      8  C   UNL     1      33.337 -22.226 -18.598  0.00  0.00    +0.047 C 
ATOM      9  C   UNL     1      35.740 -22.036 -18.441  0.00  0.00    +0.018 C 
ATOM     10  C   UNL     1      33.330 -23.070 -17.487  0.00  0.00    +0.176 C 
ATOM     11  C   UNL     1      35.734 -22.878 -17.330  0.00  0.00    +0.041 C 
BRANCH   7  12
ATOM     12  O   UNL     1      34.524 -24.231 -15.752  0.00  0.00    -0.451 OA
BRANCH  12  16
ATOM     13  N   UNL     1      38.082 -26.467 -13.748  0.00  0.00    -0.297 N 
ATOM     14  N   UNL     1      37.913 -24.120 -13.235  0.00  0.00    -0.229 NA
ATOM     15  C   UNL     1      36.385 -25.366 -14.694  0.00  0.00    +0.067 C 
ATOM     16  C   UNL     1      35.623 -24.212 -14.940  0.00  0.00    +0.150 C 
ATOM     17  C   UNL     1      37.486 -25.238 -13.852  0.00  0.00    +0.135 C 
ATOM     18  C   UNL     1      36.333 -26.726 -15.100  0.00  0.00    +0.022 C 
ATOM     19  C   UNL     1      37.389 -27.379 -14.502  0.00  0.00    +0.063 C 
ATOM     20  C   UNL     1      36.022 -23.025 -14.326  0.00  0.00    +0.058 C 
ATOM     21  C   UNL     1      37.142 -23.041 -13.507  0.00  0.00    +0.103 C 
ATOM     22  H   UNL     1      38.884 -26.667 -13.214  0.00  0.00    +0.154 HD
ENDBRANCH  12  16
ENDBRANCH   7  12
ENDBRANCH   2   6
BRANCH   3  25
ATOM     23  O   UNL     1      34.896 -17.253 -20.736  0.00  0.00    -0.269 OA
ATOM     24  N   UNL     1      34.636 -17.225 -23.086  0.00  0.00    -0.233 N 
ATOM     25  C   UNL     1      35.224 -19.292 -21.840  0.00  0.00    +0.108 C 
ATOM     26  C   UNL     1      34.920 -17.821 -21.828  0.00  0.00    +0.261 C 
ATOM     27  C   UNL     1      34.579 -18.020 -24.232  0.00  0.00    +0.072 C 
ATOM     28  C   UNL     1      35.157 -19.986 -22.982  0.00  0.00    +0.010 C 
ATOM     29  C   UNL     1      34.816 -19.336 -24.212  0.00  0.00    +0.017 C 
BRANCH  24  31
ATOM     30  F   UNL     1      33.665 -11.741 -23.407  0.00  0.00    -0.204 F 
ATOM     31  C   UNL     1      34.384 -15.800 -23.170  0.00  0.00    +0.059 C 
ATOM     32  C   UNL     1      33.932 -15.240 -24.365  0.00  0.00    +0.018 C 
ATOM     33  C   UNL     1      34.593 -14.988 -22.054  0.00  0.00    +0.018 C 
ATOM     34  C   UNL     1      33.689 -13.869 -24.445  0.00  0.00    +0.031 C 
ATOM     35  C   UNL     1      34.349 -13.617 -22.134  0.00  0.00    +0.031 C 
ATOM     36  C   UNL     1      33.898 -13.058 -23.329  0.00  0.00    +0.140 C 
ENDBRANCH  24  31
ENDBRANCH   3  25
TORSDOF 5
ENDMDL
MODEL 9
REMARK VINA RESULT:     -12.4      2.854     11.085
REMARK  Name = 21081761
REMARK  5 active torsions:
REMARK  status: ('A' for Active; 'I' for Inactive)
REMARK    1  A    between atoms: N_2  and  C_6
REMARK    2  A    between atoms: C_3  and  C_25
REMARK    3  A    between atoms: C_7  and  O_12
REMARK    4  A    between atoms: O_12  and  C_16
REMARK    5  A    between atoms: N_24  and  C_31
REMARK                            x       y       z     vdW  Elec       q    Type
REMARK                         _______ _______ _______ _____ _____    ______ ____
ROOT
ATOM      1  O   UNL     1      36.815 -21.836 -19.532  0.00  0.00    -0.270 OA
ATOM      2  N   UNL     1      34.739 -20.749 -19.802  0.00  0.00    -0.280 N 
ATOM      3  C   UNL     1      35.643 -21.647 -19.231  0.00  0.00    +0.254 C 
ATOM      4  H   UNL     1      33.832 -20.745 -19.418  0.00  0.00    +0.155 HD
ENDROOT
BRANCH   2   6
ATOM      5  F   UNL     1      33.914 -19.329 -24.293  0.00  0.00    -0.201 F 
ATOM      6  C   UNL     1      34.963 -19.857 -20.851  0.00  0.00    +0.053 C 
ATOM      7  C   UNL     1      35.414 -18.075 -22.949  0.00  0.00    +0.173 C 
ATOM      8  C   UNL     1      34.316 -20.040 -22.073  0.00  0.00    +0.047 C 
ATOM      9  C   UNL     1      35.836 -18.783 -20.678  0.00  0.00    +0.018 C 
ATOM     10  C   UNL     1      34.541 -19.149 -23.123  0.00  0.00    +0.176 C 
ATOM     11  C   UNL     1      36.062 -17.892 -21.727  0.00  0.00    +0.041 C 
BRANCH   7  12
ATOM     12  O   UNL     1      35.639 -17.192 -23.988  0.00  0.00    -0.451 OA
BRANCH  12  16
ATOM     13  N   UNL     1      32.993 -13.659 -22.507  0.00  0.00    -0.297 N 
ATOM     14  N   UNL     1      32.669 -14.303 -24.805  0.00  0.00    -0.229 NA
ATOM     15  C   UNL     1      34.248 -15.351 -23.248  0.00  0.00    +0.067 C 
ATOM     16  C   UNL     1      34.679 -16.251 -24.236  0.00  0.00    +0.150 C 
ATOM     17  C   UNL     1      33.265 -14.433 -23.605  0.00  0.00    +0.135 C 
ATOM     18  C   UNL     1      34.565 -15.106 -21.885  0.00  0.00    +0.022 C 
ATOM     19  C   UNL     1      33.778 -14.060 -21.456  0.00  0.00    +0.063 C 
ATOM     20  C   UNL     1      34.095 -16.161 -25.499  0.00  0.00    +0.058 C 
ATOM     21  C   UNL     1      33.122 -15.195 -25.717  0.00  0.00    +0.103 C 
ATOM     22  H   UNL     1      32.336 -12.926 -22.476  0.00  0.00    +0.154 HD
ENDBRANCH  12  16
ENDBRANCH   7  12
ENDBRANCH   2   6
BRANCH   3  25
ATOM     23  O   UNL     1      37.057 -22.728 -16.978  0.00  0.00    -0.269 OA
ATOM     24  N   UNL     1      35.117 -23.622 -15.965  0.00  0.00    -0.233 N 
ATOM     25  C   UNL     1      35.047 -22.427 -18.141  0.00  0.00    +0.108 C 
ATOM     26  C   UNL     1      35.842 -22.923 -16.966  0.00  0.00    +0.261 C 
ATOM     27  C   UNL     1      33.756 -23.877 -16.145  0.00  0.00    +0.072 C 
ATOM     28  C   UNL     1      33.741 -22.703 -18.238  0.00  0.00    +0.010 C 
ATOM     29  C   UNL     1      33.077 -23.458 -17.217  0.00  0.00    +0.017 C 
BRANCH  24  31
ATOM     30  F   UNL     1      37.743 -25.417 -11.382  0.00  0.00    -0.204 F 
ATOM     31  C   UNL     1      35.799 -24.089 -14.773  0.00  0.00    +0.059 C 
ATOM     32  C   UNL     1      36.143 -25.435 -14.649  0.00  0.00    +0.018 C 
ATOM     33  C   UNL     1      36.112 -23.191 -13.752  0.00  0.00    +0.018 C 
ATOM     34  C   UNL     1      36.800 -25.884 -13.504  0.00  0.00    +0.031 C 
ATOM     35  C   UNL     1      36.769 -23.640 -12.606  0.00  0.00    +0.031 C 
ATOM     36  C   UNL     1      37.113 -24.986 -12.482  0.00  0.00    +0.140 C 
ENDBRANCH  24  31
ENDBRANCH   3  25
TORSDOF 5
ENDMDL
