MODEL 1
REMARK VINA RESULT:     -14.2      0.000      0.000
REMARK  Name = 89670174
REMARK  4 active torsions:
REMARK  status: ('A' for Active; 'I' for Inactive)
REMARK    1  A    between atoms: C_3  and  C_13
REMARK    2  A    between atoms: C_9  and  O_26
REMARK    3  A    between atoms: C_18  and  C_25
REMARK    4  A    between atoms: O_26  and  C_30
REMARK                            x       y       z     vdW  Elec       q    Type
REMARK                         _______ _______ _______ _____ _____    ______ ____
ROOT
ATOM      1  O   UNL     1      34.791 -19.782 -23.680  0.00  0.00    -0.479 OA
ATOM      2  C   UNL     1      35.263 -18.992 -21.415  0.00  0.00    +0.072 C 
ATOM      3  C   UNL     1      34.186 -20.044 -21.199  0.00  0.00    +0.085 C 
ATOM      4  C   UNL     1      35.185 -20.213 -22.323  0.00  0.00    +0.174 C 
ATOM      5  C   UNL     1      35.041 -17.879 -22.373  0.00  0.00    +0.018 C 
ATOM      6  C   UNL     1      34.787 -18.396 -23.650  0.00  0.00    +0.135 C 
ATOM      7  C   UNL     1      35.053 -16.505 -22.184  0.00  0.00    +0.036 C 
ATOM      8  C   UNL     1      34.538 -17.595 -24.747  0.00  0.00    +0.040 C 
ATOM      9  C   UNL     1      34.807 -15.673 -23.282  0.00  0.00    +0.145 C 
ATOM     10  C   UNL     1      34.551 -16.215 -24.553  0.00  0.00    +0.041 C 
ENDROOT
BRANCH   3  13
ATOM     11  N   UNL     1      35.399 -21.189 -19.276  0.00  0.00    -0.318 N 
ATOM     12  N   UNL     1      33.223 -21.590 -19.491  0.00  0.00    -0.318 N 
ATOM     13  C   UNL     1      34.255 -20.946 -19.986  0.00  0.00    +0.148 C 
ATOM     14  C   UNL     1      35.082 -22.047 -18.254  0.00  0.00    +0.059 C 
ATOM     15  C   UNL     1      33.719 -22.282 -18.409  0.00  0.00    +0.059 C 
ATOM     16  C   UNL     1      35.848 -22.620 -17.238  0.00  0.00    +0.019 C 
ATOM     17  C   UNL     1      33.064 -23.137 -17.507  0.00  0.00    +0.016 C 
ATOM     18  C   UNL     1      35.181 -23.469 -16.349  0.00  0.00    +0.073 C 
ATOM     19  C   UNL     1      33.813 -23.723 -16.479  0.00  0.00    +0.005 C 
ATOM     20  H   UNL     1      36.290 -20.815 -19.465  0.00  0.00    +0.148 HD
ATOM     21  H   UNL     1      32.295 -21.580 -19.821  0.00  0.00    +0.148 HD
BRANCH  18  25
ATOM     22  F   UNL     1      35.614 -25.418 -15.034  0.00  0.00    -0.166 F 
ATOM     23  F   UNL     1      37.296 -24.110 -15.434  0.00  0.00    -0.166 F 
ATOM     24  F   UNL     1      35.747 -23.488 -14.041  0.00  0.00    -0.166 F 
ATOM     25  C   UNL     1      35.945 -24.110 -15.239  0.00  0.00    +0.419 C 
ENDBRANCH  18  25
ENDBRANCH   3  13
BRANCH   9  26
ATOM     26  O   UNL     1      34.812 -14.300 -23.114  0.00  0.00    -0.454 OA
BRANCH  26  30
ATOM     27  O   UNL     1      31.924  -8.659 -23.196  0.00  0.00    -0.275 OA
ATOM     28  N   UNL     1      31.817 -10.670 -22.092  0.00  0.00    -0.270 N 
ATOM     29  N   UNL     1      31.711 -12.690 -20.867  0.00  0.00    -0.229 NA
ATOM     30  C   UNL     1      33.811 -13.748 -22.373  0.00  0.00    +0.146 C 
ATOM     31  C   UNL     1      33.356 -12.452 -22.622  0.00  0.00    +0.045 C 
ATOM     32  C   UNL     1      33.891 -11.639 -23.761  0.00  0.00    +0.042 C 
ATOM     33  C   UNL     1      33.228 -14.504 -21.362  0.00  0.00    +0.058 C 
ATOM     34  C   UNL     1      32.308 -11.965 -21.842  0.00  0.00    +0.133 C 
ATOM     35  C   UNL     1      33.781 -10.152 -23.463  0.00  0.00    +0.090 C 
ATOM     36  C   UNL     1      32.412  -9.760 -22.943  0.00  0.00    +0.227 C 
ATOM     37  C   UNL     1      32.190 -13.935 -20.648  0.00  0.00    +0.103 C 
ATOM     38  H   UNL     1      30.993 -10.393 -21.628  0.00  0.00    +0.156 HD
ENDBRANCH  26  30
ENDBRANCH   9  26
TORSDOF 4
ENDMDL
MODEL 2
REMARK VINA RESULT:     -13.2      5.947     11.479
REMARK  Name = 89670174
REMARK  4 active torsions:
REMARK  status: ('A' for Active; 'I' for Inactive)
REMARK    1  A    between atoms: C_3  and  C_13
REMARK    2  A    between atoms: C_9  and  O_26
REMARK    3  A    between atoms: C_18  and  C_25
REMARK    4  A    between atoms: O_26  and  C_30
REMARK                            x       y       z     vdW  Elec       q    Type
REMARK                         _______ _______ _______ _____ _____    ______ ____
ROOT
ATOM      1  O   UNL     1      37.169 -19.985 -20.648  0.00  0.00    -0.479 OA
ATOM      2  C   UNL     1      34.832 -19.547 -21.218  0.00  0.00    +0.072 C 
ATOM      3  C   UNL     1      35.404 -18.155 -20.999  0.00  0.00    +0.085 C 
ATOM      4  C   UNL     1      36.284 -19.245 -21.570  0.00  0.00    +0.174 C 
ATOM      5  C   UNL     1      34.978 -20.590 -20.171  0.00  0.00    +0.018 C 
ATOM      6  C   UNL     1      36.336 -20.801 -19.898  0.00  0.00    +0.135 C 
ATOM      7  C   UNL     1      34.023 -21.324 -19.485  0.00  0.00    +0.036 C 
ATOM      8  C   UNL     1      36.780 -21.714 -18.961  0.00  0.00    +0.040 C 
ATOM      9  C   UNL     1      34.448 -22.257 -18.533  0.00  0.00    +0.145 C 
ATOM     10  C   UNL     1      35.816 -22.450 -18.273  0.00  0.00    +0.041 C 
ENDROOT
BRANCH   3  13
ATOM     11  N   UNL     1      34.762 -17.115 -23.231  0.00  0.00    -0.318 N 
ATOM     12  N   UNL     1      34.687 -15.804 -21.438  0.00  0.00    -0.318 N 
ATOM     13  C   UNL     1      34.949 -17.013 -21.881  0.00  0.00    +0.148 C 
ATOM     14  C   UNL     1      34.352 -15.890 -23.691  0.00  0.00    +0.059 C 
ATOM     15  C   UNL     1      34.312 -15.089 -22.554  0.00  0.00    +0.059 C 
ATOM     16  C   UNL     1      34.022 -15.428 -24.966  0.00  0.00    +0.019 C 
ATOM     17  C   UNL     1      33.923 -13.744 -22.676  0.00  0.00    +0.016 C 
ATOM     18  C   UNL     1      33.637 -14.087 -25.070  0.00  0.00    +0.073 C 
ATOM     19  C   UNL     1      33.588 -13.259 -23.946  0.00  0.00    +0.005 C 
ATOM     20  H   UNL     1      34.898 -17.923 -23.776  0.00  0.00    +0.148 HD
ATOM     21  H   UNL     1      34.745 -15.479 -20.511  0.00  0.00    +0.148 HD
BRANCH  18  25
ATOM     22  F   UNL     1      34.104 -13.935 -27.410  0.00  0.00    -0.166 F 
ATOM     23  F   UNL     1      32.018 -13.889 -26.819  0.00  0.00    -0.166 F 
ATOM     24  F   UNL     1      33.292 -12.171 -26.432  0.00  0.00    -0.166 F 
ATOM     25  C   UNL     1      33.269 -13.534 -26.406  0.00  0.00    +0.419 C 
ENDBRANCH  18  25
ENDBRANCH   3  13
BRANCH   9  26
ATOM     26  O   UNL     1      33.511 -22.999 -17.836  0.00  0.00    -0.454 OA
BRANCH  26  30
ATOM     27  O   UNL     1      30.018 -24.556 -12.781  0.00  0.00    -0.275 OA
ATOM     28  N   UNL     1      32.221 -24.407 -13.414  0.00  0.00    -0.270 N 
ATOM     29  N   UNL     1      34.507 -24.196 -13.985  0.00  0.00    -0.229 NA
ATOM     30  C   UNL     1      33.818 -23.373 -16.562  0.00  0.00    +0.146 C 
ATOM     31  C   UNL     1      32.819 -23.672 -15.634  0.00  0.00    +0.045 C 
ATOM     32  C   UNL     1      31.371 -23.675 -16.016  0.00  0.00    +0.042 C 
ATOM     33  C   UNL     1      35.156 -23.468 -16.195  0.00  0.00    +0.058 C 
ATOM     34  C   UNL     1      33.211 -24.075 -14.359  0.00  0.00    +0.133 C 
ATOM     35  C   UNL     1      30.494 -23.372 -14.811  0.00  0.00    +0.090 C 
ATOM     36  C   UNL     1      30.869 -24.193 -13.594  0.00  0.00    +0.227 C 
ATOM     37  C   UNL     1      35.443 -23.883 -14.908  0.00  0.00    +0.103 C 
ATOM     38  H   UNL     1      32.512 -24.818 -12.568  0.00  0.00    +0.156 HD
ENDBRANCH  26  30
ENDBRANCH   9  26
TORSDOF 4
ENDMDL
MODEL 3
REMARK VINA RESULT:     -13.2      5.636     11.274
REMARK  Name = 89670174
REMARK  4 active torsions:
REMARK  status: ('A' for Active; 'I' for Inactive)
REMARK    1  A    between atoms: C_3  and  C_13
REMARK    2  A    between atoms: C_9  and  O_26
REMARK    3  A    between atoms: C_18  and  C_25
REMARK    4  A    between atoms: O_26  and  C_30
REMARK                            x       y       z     vdW  Elec       q    Type
REMARK                         _______ _______ _______ _____ _____    ______ ____
ROOT
ATOM      1  O   UNL     1      36.403 -19.606 -21.340  0.00  0.00    -0.479 OA
ATOM      2  C   UNL     1      34.088 -18.847 -21.126  0.00  0.00    +0.072 C 
ATOM      3  C   UNL     1      34.896 -17.604 -20.786  0.00  0.00    +0.085 C 
ATOM      4  C   UNL     1      35.432 -18.591 -21.799  0.00  0.00    +0.174 C 
ATOM      5  C   UNL     1      34.339 -20.123 -20.409  0.00  0.00    +0.018 C 
ATOM      6  C   UNL     1      35.676 -20.508 -20.579  0.00  0.00    +0.135 C 
ATOM      7  C   UNL     1      33.491 -20.920 -19.655  0.00  0.00    +0.036 C 
ATOM      8  C   UNL     1      36.202 -21.656 -20.019  0.00  0.00    +0.040 C 
ATOM      9  C   UNL     1      34.001 -22.089 -19.081  0.00  0.00    +0.145 C 
ATOM     10  C   UNL     1      35.346 -22.454 -19.263  0.00  0.00    +0.041 C 
ENDROOT
BRANCH   3  13
ATOM     11  N   UNL     1      33.508 -15.484 -20.546  0.00  0.00    -0.318 N 
ATOM     12  N   UNL     1      34.792 -15.662 -22.352  0.00  0.00    -0.318 N 
ATOM     13  C   UNL     1      34.406 -16.247 -21.241  0.00  0.00    +0.148 C 
ATOM     14  C   UNL     1      33.302 -14.329 -21.258  0.00  0.00    +0.059 C 
ATOM     15  C   UNL     1      34.114 -14.464 -22.380  0.00  0.00    +0.059 C 
ATOM     16  C   UNL     1      32.499 -13.212 -21.022  0.00  0.00    +0.019 C 
ATOM     17  C   UNL     1      34.140 -13.434 -23.335  0.00  0.00    +0.016 C 
ATOM     18  C   UNL     1      32.537 -12.196 -21.984  0.00  0.00    +0.073 C 
ATOM     19  C   UNL     1      33.342 -12.304 -23.119  0.00  0.00    +0.005 C 
ATOM     20  H   UNL     1      33.085 -15.721 -19.690  0.00  0.00    +0.148 HD
ATOM     21  H   UNL     1      35.428 -16.005 -23.020  0.00  0.00    +0.148 HD
BRANCH  18  25
ATOM     22  F   UNL     1      31.983 -10.303 -20.632  0.00  0.00    -0.166 F 
ATOM     23  F   UNL     1      31.844 -10.050 -22.781  0.00  0.00    -0.166 F 
ATOM     24  F   UNL     1      30.368 -11.256 -21.734  0.00  0.00    -0.166 F 
ATOM     25  C   UNL     1      31.702 -10.975 -21.787  0.00  0.00    +0.419 C 
ENDBRANCH  18  25
ENDBRANCH   3  13
BRANCH   9  26
ATOM     26  O   UNL     1      33.171 -22.897 -18.324  0.00  0.00    -0.454 OA
BRANCH  26  30
ATOM     27  O   UNL     1      30.072 -24.522 -13.039  0.00  0.00    -0.275 OA
ATOM     28  N   UNL     1      32.221 -24.246 -13.799  0.00  0.00    -0.270 N 
ATOM     29  N   UNL     1      34.453 -23.899 -14.502  0.00  0.00    -0.229 NA
ATOM     30  C   UNL     1      33.572 -23.208 -17.059  0.00  0.00    +0.146 C 
ATOM     31  C   UNL     1      32.647 -23.544 -16.069  0.00  0.00    +0.045 C 
ATOM     32  C   UNL     1      31.184 -23.657 -16.369  0.00  0.00    +0.042 C 
ATOM     33  C   UNL     1      34.931 -23.201 -16.765  0.00  0.00    +0.058 C 
ATOM     34  C   UNL     1      33.134 -23.879 -14.806  0.00  0.00    +0.133 C 
ATOM     35  C   UNL     1      30.354 -23.376 -15.126  0.00  0.00    +0.090 C 
ATOM     36  C   UNL     1      30.850 -24.130 -13.909  0.00  0.00    +0.227 C 
ATOM     37  C   UNL     1      35.315 -23.554 -15.484  0.00  0.00    +0.103 C 
ATOM     38  H   UNL     1      32.585 -24.609 -12.959  0.00  0.00    +0.156 HD
ENDBRANCH  26  30
ENDBRANCH   9  26
TORSDOF 4
ENDMDL
MODEL 4
REMARK VINA RESULT:     -13.0      2.627      4.442
REMARK  Name = 89670174
REMARK  4 active torsions:
REMARK  status: ('A' for Active; 'I' for Inactive)
REMARK    1  A    between atoms: C_3  and  C_13
REMARK    2  A    between atoms: C_9  and  O_26
REMARK    3  A    between atoms: C_18  and  C_25
REMARK    4  A    between atoms: O_26  and  C_30
REMARK                            x       y       z     vdW  Elec       q    Type
REMARK                         _______ _______ _______ _____ _____    ______ ____
ROOT
ATOM      1  O   UNL     1      32.956 -22.223 -19.625  0.00  0.00    -0.479 OA
ATOM      2  C   UNL     1      35.320 -22.150 -19.006  0.00  0.00    +0.072 C 
ATOM      3  C   UNL     1      34.615 -22.311 -17.669  0.00  0.00    +0.085 C 
ATOM      4  C   UNL     1      34.025 -22.948 -18.908  0.00  0.00    +0.174 C 
ATOM      5  C   UNL     1      34.937 -21.050 -19.928  0.00  0.00    +0.018 C 
ATOM      6  C   UNL     1      33.578 -21.154 -20.251  0.00  0.00    +0.135 C 
ATOM      7  C   UNL     1      35.689 -20.017 -20.467  0.00  0.00    +0.036 C 
ATOM      8  C   UNL     1      32.936 -20.263 -21.089  0.00  0.00    +0.040 C 
ATOM      9  C   UNL     1      35.061 -19.104 -21.321  0.00  0.00    +0.145 C 
ATOM     10  C   UNL     1      33.695 -19.226 -21.629  0.00  0.00    +0.041 C 
ENDROOT
BRANCH   3  13
ATOM     11  N   UNL     1      36.458 -22.943 -16.031  0.00  0.00    -0.318 N 
ATOM     12  N   UNL     1      34.663 -24.253 -16.100  0.00  0.00    -0.318 N 
ATOM     13  C   UNL     1      35.235 -23.180 -16.597  0.00  0.00    +0.148 C 
ATOM     14  C   UNL     1      36.689 -23.930 -15.107  0.00  0.00    +0.059 C 
ATOM     15  C   UNL     1      35.555 -24.735 -15.168  0.00  0.00    +0.059 C 
ATOM     16  C   UNL     1      37.761 -24.179 -14.248  0.00  0.00    +0.019 C 
ATOM     17  C   UNL     1      35.468 -25.860 -14.331  0.00  0.00    +0.016 C 
ATOM     18  C   UNL     1      37.657 -25.303 -13.422  0.00  0.00    +0.073 C 
ATOM     19  C   UNL     1      36.531 -26.129 -13.461  0.00  0.00    +0.005 C 
ATOM     20  H   UNL     1      37.063 -22.198 -16.248  0.00  0.00    +0.148 HD
ATOM     21  H   UNL     1      33.787 -24.632 -16.341  0.00  0.00    +0.148 HD
BRANCH  18  25
ATOM     22  F   UNL     1      39.930 -25.974 -13.106  0.00  0.00    -0.166 F 
ATOM     23  F   UNL     1      39.106 -24.583 -11.661  0.00  0.00    -0.166 F 
ATOM     24  F   UNL     1      38.470 -26.662 -11.649  0.00  0.00    -0.166 F 
ATOM     25  C   UNL     1      38.769 -25.622 -12.479  0.00  0.00    +0.419 C 
ENDBRANCH  18  25
ENDBRANCH   3  13
BRANCH   9  26
ATOM     26  O   UNL     1      35.794 -18.065 -21.868  0.00  0.00    -0.454 OA
BRANCH  26  30
ATOM     27  O   UNL     1      32.325 -12.899 -20.662  0.00  0.00    -0.275 OA
ATOM     28  N   UNL     1      33.124 -14.099 -22.450  0.00  0.00    -0.270 N 
ATOM     29  N   UNL     1      33.853 -15.338 -24.328  0.00  0.00    -0.229 NA
ATOM     30  C   UNL     1      35.134 -17.173 -22.658  0.00  0.00    +0.146 C 
ATOM     31  C   UNL     1      34.438 -16.095 -22.108  0.00  0.00    +0.045 C 
ATOM     32  C   UNL     1      34.450 -15.824 -20.635  0.00  0.00    +0.042 C 
ATOM     33  C   UNL     1      35.173 -17.340 -24.038  0.00  0.00    +0.058 C 
ATOM     34  C   UNL     1      33.811 -15.207 -22.981  0.00  0.00    +0.133 C 
ATOM     35  C   UNL     1      33.188 -15.090 -20.210  0.00  0.00    +0.090 C 
ATOM     36  C   UNL     1      32.867 -13.911 -21.106  0.00  0.00    +0.227 C 
ATOM     37  C   UNL     1      34.525 -16.402 -24.821  0.00  0.00    +0.103 C 
ATOM     38  H   UNL     1      32.805 -13.411 -23.078  0.00  0.00    +0.156 HD
ENDBRANCH  26  30
ENDBRANCH   9  26
TORSDOF 4
ENDMDL
MODEL 5
REMARK VINA RESULT:     -12.9      5.825     11.362
REMARK  Name = 89670174
REMARK  4 active torsions:
REMARK  status: ('A' for Active; 'I' for Inactive)
REMARK    1  A    between atoms: C_3  and  C_13
REMARK    2  A    between atoms: C_9  and  O_26
REMARK    3  A    between atoms: C_18  and  C_25
REMARK    4  A    between atoms: O_26  and  C_30
REMARK                            x       y       z     vdW  Elec       q    Type
REMARK                         _______ _______ _______ _____ _____    ______ ____
ROOT
ATOM      1  O   UNL     1      37.178 -19.891 -19.958  0.00  0.00    -0.479 OA
ATOM      2  C   UNL     1      35.000 -19.775 -21.062  0.00  0.00    +0.072 C 
ATOM      3  C   UNL     1      35.259 -18.334 -20.651  0.00  0.00    +0.085 C 
ATOM      4  C   UNL     1      36.421 -19.224 -21.036  0.00  0.00    +0.174 C 
ATOM      5  C   UNL     1      35.073 -20.866 -20.057  0.00  0.00    +0.018 C 
ATOM      6  C   UNL     1      36.345 -20.885 -19.470  0.00  0.00    +0.135 C 
ATOM      7  C   UNL     1      34.123 -21.793 -19.656  0.00  0.00    +0.036 C 
ATOM      8  C   UNL     1      36.706 -21.792 -18.492  0.00  0.00    +0.040 C 
ATOM      9  C   UNL     1      34.466 -22.724 -18.670  0.00  0.00    +0.145 C 
ATOM     10  C   UNL     1      35.748 -22.723 -18.093  0.00  0.00    +0.041 C 
ENDROOT
BRANCH   3  13
ATOM     11  N   UNL     1      34.749 -17.319 -22.928  0.00  0.00    -0.318 N 
ATOM     12  N   UNL     1      34.508 -16.006 -21.151  0.00  0.00    -0.318 N 
ATOM     13  C   UNL     1      34.835 -17.208 -21.568  0.00  0.00    +0.148 C 
ATOM     14  C   UNL     1      34.337 -16.107 -23.421  0.00  0.00    +0.059 C 
ATOM     15  C   UNL     1      34.193 -15.305 -22.293  0.00  0.00    +0.059 C 
ATOM     16  C   UNL     1      34.086 -15.657 -24.719  0.00  0.00    +0.019 C 
ATOM     17  C   UNL     1      33.775 -13.973 -22.448  0.00  0.00    +0.016 C 
ATOM     18  C   UNL     1      33.671 -14.328 -24.855  0.00  0.00    +0.073 C 
ATOM     19  C   UNL     1      33.517 -13.500 -23.741  0.00  0.00    +0.005 C 
ATOM     20  H   UNL     1      34.947 -18.124 -23.459  0.00  0.00    +0.148 HD
ATOM     21  H   UNL     1      34.489 -15.678 -20.223  0.00  0.00    +0.148 HD
BRANCH  18  25
ATOM     22  F   UNL     1      34.142 -14.359 -27.199  0.00  0.00    -0.166 F 
ATOM     23  F   UNL     1      32.091 -13.970 -26.615  0.00  0.00    -0.166 F 
ATOM     24  F   UNL     1      33.613 -12.448 -26.307  0.00  0.00    -0.166 F 
ATOM     25  C   UNL     1      33.384 -13.790 -26.217  0.00  0.00    +0.419 C 
ENDBRANCH  18  25
ENDBRANCH   3  13
BRANCH   9  26
ATOM     26  O   UNL     1      33.532 -23.657 -18.255  0.00  0.00    -0.454 OA
BRANCH  26  30
ATOM     27  O   UNL     1      35.237 -24.728 -12.245  0.00  0.00    -0.275 OA
ATOM     28  N   UNL     1      33.500 -23.820 -13.442  0.00  0.00    -0.270 N 
ATOM     29  N   UNL     1      31.646 -22.945 -14.623  0.00  0.00    -0.229 NA
ATOM     30  C   UNL     1      32.920 -23.450 -17.056  0.00  0.00    +0.146 C 
ATOM     31  C   UNL     1      33.550 -23.783 -15.855  0.00  0.00    +0.045 C 
ATOM     32  C   UNL     1      34.953 -24.306 -15.825  0.00  0.00    +0.042 C 
ATOM     33  C   UNL     1      31.651 -22.883 -17.038  0.00  0.00    +0.058 C 
ATOM     34  C   UNL     1      32.874 -23.516 -14.665  0.00  0.00    +0.133 C 
ATOM     35  C   UNL     1      35.179 -25.178 -14.600  0.00  0.00    +0.090 C 
ATOM     36  C   UNL     1      34.675 -24.535 -13.323  0.00  0.00    +0.227 C 
ATOM     37  C   UNL     1      31.065 -22.651 -15.807  0.00  0.00    +0.103 C 
ATOM     38  H   UNL     1      33.071 -23.502 -12.614  0.00  0.00    +0.156 HD
ENDBRANCH  26  30
ENDBRANCH   9  26
TORSDOF 4
ENDMDL
MODEL 6
REMARK VINA RESULT:     -12.9      1.049      1.680
REMARK  Name = 89670174
REMARK  4 active torsions:
REMARK  status: ('A' for Active; 'I' for Inactive)
REMARK    1  A    between atoms: C_3  and  C_13
REMARK    2  A    between atoms: C_9  and  O_26
REMARK    3  A    between atoms: C_18  and  C_25
REMARK    4  A    between atoms: O_26  and  C_30
REMARK                            x       y       z     vdW  Elec       q    Type
REMARK                         _______ _______ _______ _____ _____    ______ ____
ROOT
ATOM      1  O   UNL     1      34.707 -19.074 -24.275  0.00  0.00    -0.479 OA
ATOM      2  C   UNL     1      35.313 -18.287 -22.042  0.00  0.00    +0.072 C 
ATOM      3  C   UNL     1      34.324 -19.407 -21.759  0.00  0.00    +0.085 C 
ATOM      4  C   UNL     1      35.236 -19.498 -22.963  0.00  0.00    +0.174 C 
ATOM      5  C   UNL     1      34.946 -17.177 -22.958  0.00  0.00    +0.018 C 
ATOM      6  C   UNL     1      34.620 -17.692 -24.220  0.00  0.00    +0.135 C 
ATOM      7  C   UNL     1      34.889 -15.808 -22.745  0.00  0.00    +0.036 C 
ATOM      8  C   UNL     1      34.233 -16.894 -25.279  0.00  0.00    +0.040 C 
ATOM      9  C   UNL     1      34.503 -14.979 -23.804  0.00  0.00    +0.145 C 
ATOM     10  C   UNL     1      34.178 -15.518 -25.061  0.00  0.00    +0.041 C 
ENDROOT
BRANCH   3  13
ATOM     11  N   UNL     1      33.543 -20.946 -19.888  0.00  0.00    -0.318 N 
ATOM     12  N   UNL     1      35.731 -20.602 -20.078  0.00  0.00    -0.318 N 
ATOM     13  C   UNL     1      34.548 -20.320 -20.573  0.00  0.00    +0.148 C 
ATOM     14  C   UNL     1      34.118 -21.683 -18.884  0.00  0.00    +0.059 C 
ATOM     15  C   UNL     1      35.484 -21.452 -19.023  0.00  0.00    +0.059 C 
ATOM     16  C   UNL     1      33.576 -22.506 -17.896  0.00  0.00    +0.019 C 
ATOM     17  C   UNL     1      36.377 -22.071 -18.133  0.00  0.00    +0.016 C 
ATOM     18  C   UNL     1      34.480 -23.114 -17.018  0.00  0.00    +0.073 C 
ATOM     19  C   UNL     1      35.856 -22.902 -17.134  0.00  0.00    +0.005 C 
ATOM     20  H   UNL     1      32.581 -20.880 -20.081  0.00  0.00    +0.148 HD
ATOM     21  H   UNL     1      36.606 -20.278 -20.392  0.00  0.00    +0.148 HD
BRANCH  18  25
ATOM     22  F   UNL     1      34.115 -23.495 -14.686  0.00  0.00    -0.166 F 
ATOM     23  F   UNL     1      32.631 -24.286 -16.055  0.00  0.00    -0.166 F 
ATOM     24  F   UNL     1      34.589 -25.220 -15.922  0.00  0.00    -0.166 F 
ATOM     25  C   UNL     1      33.962 -24.009 -15.942  0.00  0.00    +0.419 C 
ENDBRANCH  18  25
ENDBRANCH   3  13
BRANCH   9  26
ATOM     26  O   UNL     1      34.438 -13.610 -23.612  0.00  0.00    -0.454 OA
BRANCH  26  30
ATOM     27  O   UNL     1      31.994  -7.859 -22.550  0.00  0.00    -0.275 OA
ATOM     28  N   UNL     1      31.753 -10.028 -21.835  0.00  0.00    -0.270 N 
ATOM     29  N   UNL     1      31.515 -12.230 -21.002  0.00  0.00    -0.229 NA
ATOM     30  C   UNL     1      33.497 -13.136 -22.748  0.00  0.00    +0.146 C 
ATOM     31  C   UNL     1      33.139 -11.786 -22.737  0.00  0.00    +0.045 C 
ATOM     32  C   UNL     1      33.712 -10.816 -23.724  0.00  0.00    +0.042 C 
ATOM     33  C   UNL     1      32.877 -14.024 -21.876  0.00  0.00    +0.058 C 
ATOM     34  C   UNL     1      32.147 -11.379 -21.846  0.00  0.00    +0.133 C 
ATOM     35  C   UNL     1      33.723  -9.407 -23.152  0.00  0.00    +0.090 C 
ATOM     36  C   UNL     1      32.400  -9.021 -22.522  0.00  0.00    +0.227 C 
ATOM     37  C   UNL     1      31.900 -13.525 -21.034  0.00  0.00    +0.103 C 
ATOM     38  H   UNL     1      30.962  -9.784 -21.301  0.00  0.00    +0.156 HD
ENDBRANCH  26  30
ENDBRANCH   9  26
TORSDOF 4
ENDMDL
MODEL 7
REMARK VINA RESULT:     -12.3      2.943      4.501
REMARK  Name = 89670174
REMARK  4 active torsions:
REMARK  status: ('A' for Active; 'I' for Inactive)
REMARK    1  A    between atoms: C_3  and  C_13
REMARK    2  A    between atoms: C_9  and  O_26
REMARK    3  A    between atoms: C_18  and  C_25
REMARK    4  A    between atoms: O_26  and  C_30
REMARK                            x       y       z     vdW  Elec       q    Type
REMARK                         _______ _______ _______ _____ _____    ______ ____
ROOT
ATOM      1  O   UNL     1      32.887 -22.408 -19.497  0.00  0.00    -0.479 OA
ATOM      2  C   UNL     1      35.261 -22.267 -18.932  0.00  0.00    +0.072 C 
ATOM      3  C   UNL     1      34.591 -22.447 -17.579  0.00  0.00    +0.085 C 
ATOM      4  C   UNL     1      33.992 -23.101 -18.805  0.00  0.00    +0.174 C 
ATOM      5  C   UNL     1      34.826 -21.179 -19.845  0.00  0.00    +0.018 C 
ATOM      6  C   UNL     1      33.463 -21.322 -20.138  0.00  0.00    +0.135 C 
ATOM      7  C   UNL     1      35.535 -20.125 -20.401  0.00  0.00    +0.036 C 
ATOM      8  C   UNL     1      32.777 -20.451 -20.961  0.00  0.00    +0.040 C 
ATOM      9  C   UNL     1      34.863 -19.231 -21.241  0.00  0.00    +0.145 C 
ATOM     10  C   UNL     1      33.494 -19.393 -21.518  0.00  0.00    +0.041 C 
ENDROOT
BRANCH   3  13
ATOM     11  N   UNL     1      36.595 -23.245 -16.228  0.00  0.00    -0.318 N 
ATOM     12  N   UNL     1      34.627 -24.173 -15.775  0.00  0.00    -0.318 N 
ATOM     13  C   UNL     1      35.260 -23.296 -16.521  0.00  0.00    +0.148 C 
ATOM     14  C   UNL     1      36.838 -24.149 -15.226  0.00  0.00    +0.059 C 
ATOM     15  C   UNL     1      35.595 -24.715 -14.960  0.00  0.00    +0.059 C 
ATOM     16  C   UNL     1      38.005 -24.508 -14.549  0.00  0.00    +0.019 C 
ATOM     17  C   UNL     1      35.490 -25.700 -13.964  0.00  0.00    +0.016 C 
ATOM     18  C   UNL     1      37.882 -25.491 -13.561  0.00  0.00    +0.073 C 
ATOM     19  C   UNL     1      36.647 -26.076 -13.272  0.00  0.00    +0.005 C 
ATOM     20  H   UNL     1      37.262 -22.664 -16.660  0.00  0.00    +0.148 HD
ATOM     21  H   UNL     1      33.668 -24.394 -15.794  0.00  0.00    +0.148 HD
BRANCH  18  25
ATOM     22  F   UNL     1      38.807 -26.661 -11.692  0.00  0.00    -0.166 F 
ATOM     23  F   UNL     1      39.957 -26.680 -13.530  0.00  0.00    -0.166 F 
ATOM     24  F   UNL     1      39.827 -24.858 -12.351  0.00  0.00    -0.166 F 
ATOM     25  C   UNL     1      39.093 -25.916 -12.800  0.00  0.00    +0.419 C 
ENDBRANCH  18  25
ENDBRANCH   3  13
BRANCH   9  26
ATOM     26  O   UNL     1      35.552 -18.172 -21.804  0.00  0.00    -0.454 OA
BRANCH  26  30
ATOM     27  O   UNL     1      33.150 -14.396 -26.292  0.00  0.00    -0.275 OA
ATOM     28  N   UNL     1      33.397 -14.472 -24.011  0.00  0.00    -0.270 N 
ATOM     29  N   UNL     1      33.694 -14.459 -21.664  0.00  0.00    -0.229 NA
ATOM     30  C   UNL     1      34.959 -16.945 -21.780  0.00  0.00    +0.146 C 
ATOM     31  C   UNL     1      34.507 -16.336 -22.952  0.00  0.00    +0.045 C 
ATOM     32  C   UNL     1      34.578 -17.035 -24.275  0.00  0.00    +0.042 C 
ATOM     33  C   UNL     1      34.795 -16.303 -20.558  0.00  0.00    +0.058 C 
ATOM     34  C   UNL     1      33.884 -15.094 -22.845  0.00  0.00    +0.133 C 
ATOM     35  C   UNL     1      34.669 -16.029 -25.412  0.00  0.00    +0.090 C 
ATOM     36  C   UNL     1      33.645 -14.918 -25.294  0.00  0.00    +0.227 C 
ATOM     37  C   UNL     1      34.159 -15.075 -20.555  0.00  0.00    +0.103 C 
ATOM     38  H   UNL     1      32.843 -13.666 -23.904  0.00  0.00    +0.156 HD
ENDBRANCH  26  30
ENDBRANCH   9  26
TORSDOF 4
ENDMDL
MODEL 8
REMARK VINA RESULT:     -12.3      8.551     14.251
REMARK  Name = 89670174
REMARK  4 active torsions:
REMARK  status: ('A' for Active; 'I' for Inactive)
REMARK    1  A    between atoms: C_3  and  C_13
REMARK    2  A    between atoms: C_9  and  O_26
REMARK    3  A    between atoms: C_18  and  C_25
REMARK    4  A    between atoms: O_26  and  C_30
REMARK                            x       y       z     vdW  Elec       q    Type
REMARK                         _______ _______ _______ _____ _____    ______ ____
ROOT
ATOM      1  O   UNL     1      32.137  -8.548 -19.256  0.00  0.00    -0.479 OA
ATOM      2  C   UNL     1      32.546  -8.699 -21.662  0.00  0.00    +0.072 C 
ATOM      3  C   UNL     1      31.600  -7.515 -21.543  0.00  0.00    +0.085 C 
ATOM      4  C   UNL     1      32.596  -7.792 -20.438  0.00  0.00    +0.174 C 
ATOM      5  C   UNL     1      32.187 -10.009 -21.061  0.00  0.00    +0.018 C 
ATOM      6  C   UNL     1      31.976  -9.857 -19.684  0.00  0.00    +0.135 C 
ATOM      7  C   UNL     1      32.045 -11.262 -21.637  0.00  0.00    +0.036 C 
ATOM      8  C   UNL     1      31.623 -10.907 -18.859  0.00  0.00    +0.040 C 
ATOM      9  C   UNL     1      31.691 -12.342 -20.821  0.00  0.00    +0.145 C 
ATOM     10  C   UNL     1      31.482 -12.165 -19.443  0.00  0.00    +0.041 C 
ENDROOT
BRANCH   3  13
ATOM     11  N   UNL     1      32.405  -6.363 -23.665  0.00  0.00    -0.318 N 
ATOM     12  N   UNL     1      31.377  -5.103 -22.149  0.00  0.00    -0.318 N 
ATOM     13  C   UNL     1      31.787  -6.315 -22.446  0.00  0.00    +0.148 C 
ATOM     14  C   UNL     1      32.391  -5.096 -24.190  0.00  0.00    +0.059 C 
ATOM     15  C   UNL     1      31.744  -4.328 -23.227  0.00  0.00    +0.059 C 
ATOM     16  C   UNL     1      32.874  -4.572 -25.390  0.00  0.00    +0.019 C 
ATOM     17  C   UNL     1      31.559  -2.955 -23.456  0.00  0.00    +0.016 C 
ATOM     18  C   UNL     1      32.682  -3.203 -25.602  0.00  0.00    +0.073 C 
ATOM     19  C   UNL     1      32.036  -2.407 -24.653  0.00  0.00    +0.005 C 
ATOM     20  H   UNL     1      32.790  -7.163 -24.089  0.00  0.00    +0.148 HD
ATOM     21  H   UNL     1      30.907  -4.811 -21.335  0.00  0.00    +0.148 HD
BRANCH  18  25
ATOM     22  F   UNL     1      32.251  -1.786 -27.479  0.00  0.00    -0.166 F 
ATOM     23  F   UNL     1      34.274  -1.793 -26.698  0.00  0.00    -0.166 F 
ATOM     24  F   UNL     1      33.531  -3.514 -27.800  0.00  0.00    -0.166 F 
ATOM     25  C   UNL     1      33.175  -2.584 -26.868  0.00  0.00    +0.419 C 
ENDBRANCH  18  25
ENDBRANCH   3  13
BRANCH   9  26
ATOM     26  O   UNL     1      31.542 -13.600 -21.378  0.00  0.00    -0.454 OA
BRANCH  26  30
ATOM     27  O   UNL     1      35.358 -16.230 -25.702  0.00  0.00    -0.275 OA
ATOM     28  N   UNL     1      35.082 -16.146 -23.424  0.00  0.00    -0.270 N 
ATOM     29  N   UNL     1      34.799 -16.160 -21.075  0.00  0.00    -0.229 NA
ATOM     30  C   UNL     1      32.599 -14.456 -21.299  0.00  0.00    +0.146 C 
ATOM     31  C   UNL     1      33.277 -14.876 -22.445  0.00  0.00    +0.045 C 
ATOM     32  C   UNL     1      32.928 -14.344 -23.801  0.00  0.00    +0.042 C 
ATOM     33  C   UNL     1      33.010 -14.902 -20.049  0.00  0.00    +0.058 C 
ATOM     34  C   UNL     1      34.368 -15.729 -22.284  0.00  0.00    +0.133 C 
ATOM     35  C   UNL     1      33.282 -15.351 -24.884  0.00  0.00    +0.090 C 
ATOM     36  C   UNL     1      34.679 -15.915 -24.724  0.00  0.00    +0.227 C 
ATOM     37  C   UNL     1      34.108 -15.742 -19.992  0.00  0.00    +0.103 C 
ATOM     38  H   UNL     1      35.926 -16.634 -23.284  0.00  0.00    +0.156 HD
ENDBRANCH  26  30
ENDBRANCH   9  26
TORSDOF 4
ENDMDL
MODEL 9
REMARK VINA RESULT:     -11.7      5.018      8.715
REMARK  Name = 89670174
REMARK  4 active torsions:
REMARK  status: ('A' for Active; 'I' for Inactive)
REMARK    1  A    between atoms: C_3  and  C_13
REMARK    2  A    between atoms: C_9  and  O_26
REMARK    3  A    between atoms: C_18  and  C_25
REMARK    4  A    between atoms: O_26  and  C_30
REMARK                            x       y       z     vdW  Elec       q    Type
REMARK                         _______ _______ _______ _____ _____    ______ ____
ROOT
ATOM      1  O   UNL     1      31.447 -10.843 -20.810  0.00  0.00    -0.479 OA
ATOM      2  C   UNL     1      32.830 -11.218 -22.790  0.00  0.00    +0.072 C 
ATOM      3  C   UNL     1      33.333 -12.267 -21.811  0.00  0.00    +0.085 C 
ATOM      4  C   UNL     1      31.875 -11.860 -21.791  0.00  0.00    +0.174 C 
ATOM      5  C   UNL     1      32.776  -9.788 -22.395  0.00  0.00    +0.018 C 
ATOM      6  C   UNL     1      31.962  -9.639 -21.264  0.00  0.00    +0.135 C 
ATOM      7  C   UNL     1      33.377  -8.670 -22.953  0.00  0.00    +0.036 C 
ATOM      8  C   UNL     1      31.728  -8.417 -20.664  0.00  0.00    +0.040 C 
ATOM      9  C   UNL     1      33.152  -7.421 -22.365  0.00  0.00    +0.145 C 
ATOM     10  C   UNL     1      32.333  -7.296 -21.229  0.00  0.00    +0.041 C 
ENDROOT
BRANCH   3  13
ATOM     11  N   UNL     1      34.201 -14.642 -21.523  0.00  0.00    -0.318 N 
ATOM     12  N   UNL     1      33.657 -13.999 -23.580  0.00  0.00    -0.318 N 
ATOM     13  C   UNL     1      33.728 -13.636 -22.319  0.00  0.00    +0.148 C 
ATOM     14  C   UNL     1      34.452 -15.726 -22.325  0.00  0.00    +0.059 C 
ATOM     15  C   UNL     1      34.104 -15.301 -23.603  0.00  0.00    +0.059 C 
ATOM     16  C   UNL     1      34.939 -17.005 -22.048  0.00  0.00    +0.019 C 
ATOM     17  C   UNL     1      34.244 -16.189 -24.682  0.00  0.00    +0.016 C 
ATOM     18  C   UNL     1      35.072 -17.876 -23.135  0.00  0.00    +0.073 C 
ATOM     19  C   UNL     1      34.730 -17.477 -24.429  0.00  0.00    +0.005 C 
ATOM     20  H   UNL     1      34.338 -14.596 -20.549  0.00  0.00    +0.148 HD
ATOM     21  H   UNL     1      33.350 -13.458 -24.343  0.00  0.00    +0.148 HD
BRANCH  18  25
ATOM     22  F   UNL     1      35.131 -19.821 -21.744  0.00  0.00    -0.166 F 
ATOM     23  F   UNL     1      35.241 -20.141 -23.886  0.00  0.00    -0.166 F 
ATOM     24  F   UNL     1      36.945 -19.306 -22.827  0.00  0.00    -0.166 F 
ATOM     25  C   UNL     1      35.584 -19.259 -22.903  0.00  0.00    +0.419 C 
ENDBRANCH  18  25
ENDBRANCH   3  13
BRANCH   9  26
ATOM     26  O   UNL     1      33.743  -6.293 -22.907  0.00  0.00    -0.454 OA
BRANCH  26  30
ATOM     27  O   UNL     1      33.778  -3.583 -28.636  0.00  0.00    -0.275 OA
ATOM     28  N   UNL     1      32.508  -3.627 -26.723  0.00  0.00    -0.270 N 
ATOM     29  N   UNL     1      31.204  -3.571 -24.750  0.00  0.00    -0.229 NA
ATOM     30  C   UNL     1      32.933  -5.385 -23.520  0.00  0.00    +0.146 C 
ATOM     31  C   UNL     1      33.181  -4.960 -24.826  0.00  0.00    +0.045 C 
ATOM     32  C   UNL     1      34.297  -5.539 -25.640  0.00  0.00    +0.042 C 
ATOM     33  C   UNL     1      31.834  -4.890 -22.827  0.00  0.00    +0.058 C 
ATOM     34  C   UNL     1      32.293  -4.051 -25.398  0.00  0.00    +0.133 C 
ATOM     35  C   UNL     1      34.781  -4.542 -26.681  0.00  0.00    +0.090 C 
ATOM     36  C   UNL     1      33.644  -3.907 -27.456  0.00  0.00    +0.227 C 
ATOM     37  C   UNL     1      31.007  -3.997 -23.483  0.00  0.00    +0.103 C 
ATOM     38  H   UNL     1      31.802  -3.095 -27.156  0.00  0.00    +0.156 HD
ENDBRANCH  26  30
ENDBRANCH   9  26
TORSDOF 4
ENDMDL
