MODEL 1
REMARK VINA RESULT:     -11.5      0.000      0.000
REMARK  Name = 24963046
REMARK  6 active torsions:
REMARK  status: ('A' for Active; 'I' for Inactive)
REMARK    1  A    between atoms: N_1  and  C_27
REMARK    2  A    between atoms: C_4  and  C_16
REMARK    3  A    between atoms: C_13  and  C_22
REMARK    4  A    between atoms: N_21  and  C_24
REMARK    5  A    between atoms: C_27  and  C_28
REMARK    6  A    between atoms: C_28  and  N_30
REMARK                            x       y       z     vdW  Elec       q    Type
REMARK                         _______ _______ _______ _____ _____    ______ ____
ROOT
ATOM      1  N   UNL     1      34.081 -24.061 -16.555  0.00  0.00    -0.270 N 
ATOM      2  N   UNL     1      35.144 -22.611 -18.028  0.00  0.00    -0.338 NA
ATOM      3  N   UNL     1      32.742 -22.786 -17.955  0.00  0.00    -0.170 NA
ATOM      4  C   UNL     1      34.895 -19.748 -21.047  0.00  0.00    -0.000 C 
ATOM      5  C   UNL     1      33.732 -20.301 -20.519  0.00  0.00    +0.004 C 
ATOM      6  C   UNL     1      33.812 -21.267 -19.501  0.00  0.00    +0.050 C 
ATOM      7  C   UNL     1      33.983 -23.110 -17.558  0.00  0.00    +0.145 C 
ATOM      8  C   UNL     1      36.132 -20.157 -20.560  0.00  0.00    +0.003 C 
ATOM      9  C   UNL     1      35.056 -21.688 -19.001  0.00  0.00    +0.146 C 
ATOM     10  C   UNL     1      36.203 -21.118 -19.547  0.00  0.00    +0.033 C 
ATOM     11  C   UNL     1      32.689 -21.859 -18.931  0.00  0.00    +0.114 C 
ATOM     12  H   UNL     1      33.248 -24.441 -16.192  0.00  0.00    +0.159 HD
ENDROOT
BRANCH   4  16
ATOM     13  C   UNL     1      34.533 -16.445 -22.743  0.00  0.00    +0.053 C 
ATOM     14  C   UNL     1      34.611 -17.420 -21.749  0.00  0.00    +0.004 C 
ATOM     15  C   UNL     1      34.662 -16.805 -24.084  0.00  0.00    +0.004 C 
ATOM     16  C   UNL     1      34.817 -18.755 -22.096  0.00  0.00    -0.004 C 
ATOM     17  C   UNL     1      34.947 -19.115 -23.438  0.00  0.00    -0.022 C 
ATOM     18  C   UNL     1      34.869 -18.139 -24.432  0.00  0.00    -0.004 C 
ATOM     19  C   UNL     1      35.170 -20.536 -23.848  0.00  0.00    +0.031 C 
BRANCH  13  22
ATOM     20  O   UNL     1      34.901 -14.141 -22.994  0.00  0.00    -0.270 OA
ATOM     21  N   UNL     1      33.448 -14.799 -21.313  0.00  0.00    -0.302 N 
ATOM     22  C   UNL     1      34.317 -15.053 -22.382  0.00  0.00    +0.246 C 
ATOM     23  H   UNL     1      33.017 -15.565 -20.869  0.00  0.00    +0.150 HD
BRANCH  21  24
ATOM     24  C   UNL     1      33.155 -13.477 -20.831  0.00  0.00    +0.072 C 
ATOM     25  C   UNL     1      32.057 -12.655 -21.437  0.00  0.00    +0.021 C 
ATOM     26  C   UNL     1      31.909 -13.197 -20.046  0.00  0.00    +0.021 C 
ENDBRANCH  21  24
ENDBRANCH  13  22
ENDBRANCH   4  16
BRANCH   1  27
ATOM     27  C   UNL     1      35.335 -24.524 -16.009  0.00  0.00    +0.075 C 
BRANCH  27  28
ATOM     28  C   UNL     1      35.422 -24.149 -14.535  0.00  0.00    -0.055 C 
BRANCH  28  30
ATOM     29  O   UNL     1      38.537 -26.707 -13.363  0.00  0.00    -0.358 OA
ATOM     30  N   UNL     1      36.195 -25.149 -13.801  0.00  0.00    +0.391 N 
ATOM     31  C   UNL     1      37.418 -24.556 -13.243  0.00  0.00    -0.045 C 
ATOM     32  C   UNL     1      36.535 -26.286 -14.668  0.00  0.00    -0.045 C 
ATOM     33  C   UNL     1      38.214 -25.620 -12.493  0.00  0.00    +0.119 C 
ATOM     34  C   UNL     1      37.351 -27.309 -13.884  0.00  0.00    +0.119 C 
ATOM     35  H   UNL     1      35.617 -25.487 -13.031  0.00  0.00    -0.079 HD
ENDBRANCH  28  30
ENDBRANCH  27  28
ENDBRANCH   1  27
TORSDOF 6
ENDMDL
MODEL 2
REMARK VINA RESULT:     -10.7      3.131     11.081
REMARK  Name = 24963046
REMARK  6 active torsions:
REMARK  status: ('A' for Active; 'I' for Inactive)
REMARK    1  A    between atoms: N_1  and  C_27
REMARK    2  A    between atoms: C_4  and  C_16
REMARK    3  A    between atoms: C_13  and  C_22
REMARK    4  A    between atoms: N_21  and  C_24
REMARK    5  A    between atoms: C_27  and  C_28
REMARK    6  A    between atoms: C_28  and  N_30
REMARK                            x       y       z     vdW  Elec       q    Type
REMARK                         _______ _______ _______ _____ _____    ______ ____
ROOT
ATOM      1  N   UNL     1      33.470 -13.790 -25.823  0.00  0.00    -0.270 N 
ATOM      2  N   UNL     1      33.971 -14.799 -23.790  0.00  0.00    -0.338 NA
ATOM      3  N   UNL     1      34.068 -16.031 -25.859  0.00  0.00    -0.170 NA
ATOM      4  C   UNL     1      35.120 -18.191 -21.657  0.00  0.00    -0.000 C 
ATOM      5  C   UNL     1      34.983 -18.256 -23.041  0.00  0.00    +0.004 C 
ATOM      6  C   UNL     1      34.594 -17.114 -23.763  0.00  0.00    +0.050 C 
ATOM      7  C   UNL     1      33.853 -14.925 -25.128  0.00  0.00    +0.145 C 
ATOM      8  C   UNL     1      34.873 -16.991 -20.999  0.00  0.00    +0.003 C 
ATOM      9  C   UNL     1      34.342 -15.897 -23.109  0.00  0.00    +0.146 C 
ATOM     10  C   UNL     1      34.488 -15.860 -21.725  0.00  0.00    +0.033 C 
ATOM     11  C   UNL     1      34.439 -17.112 -25.146  0.00  0.00    +0.114 C 
ATOM     12  H   UNL     1      33.378 -13.854 -26.802  0.00  0.00    +0.159 HD
ENDROOT
BRANCH   4  16
ATOM     13  C   UNL     1      34.892 -21.324 -19.645  0.00  0.00    +0.053 C 
ATOM     14  C   UNL     1      34.532 -20.187 -20.369  0.00  0.00    +0.004 C 
ATOM     15  C   UNL     1      36.239 -21.636 -19.462  0.00  0.00    +0.004 C 
ATOM     16  C   UNL     1      35.518 -19.363 -20.910  0.00  0.00    -0.004 C 
ATOM     17  C   UNL     1      36.866 -19.676 -20.726  0.00  0.00    -0.022 C 
ATOM     18  C   UNL     1      37.226 -20.812 -20.003  0.00  0.00    -0.004 C 
ATOM     19  C   UNL     1      37.952 -18.816 -21.291  0.00  0.00    +0.031 C 
BRANCH  13  22
ATOM     20  O   UNL     1      32.759 -22.301 -19.640  0.00  0.00    -0.270 OA
ATOM     21  N   UNL     1      34.172 -22.846 -17.886  0.00  0.00    -0.302 N 
ATOM     22  C   UNL     1      33.864 -22.184 -19.081  0.00  0.00    +0.246 C 
ATOM     23  H   UNL     1      35.065 -22.711 -17.493  0.00  0.00    +0.150 HD
BRANCH  21  24
ATOM     24  C   UNL     1      33.250 -23.710 -17.202  0.00  0.00    +0.072 C 
ATOM     25  C   UNL     1      33.184 -23.747 -15.704  0.00  0.00    +0.021 C 
ATOM     26  C   UNL     1      32.050 -23.159 -16.491  0.00  0.00    +0.021 C 
ENDBRANCH  21  24
ENDBRANCH  13  22
ENDBRANCH   4  16
BRANCH   1  27
ATOM     27  C   UNL     1      33.201 -12.519 -25.196  0.00  0.00    +0.075 C 
BRANCH  27  28
ATOM     28  C   UNL     1      34.187 -12.289 -24.058  0.00  0.00    -0.055 C 
BRANCH  28  30
ATOM     29  O   UNL     1      31.244 -10.506 -21.655  0.00  0.00    -0.358 OA
ATOM     30  N   UNL     1      33.515 -11.667 -22.919  0.00  0.00    +0.391 N 
ATOM     31  C   UNL     1      32.382 -12.489 -22.471  0.00  0.00    -0.045 C 
ATOM     32  C   UNL     1      33.053 -10.314 -23.261  0.00  0.00    -0.045 C 
ATOM     33  C   UNL     1      31.689 -11.814 -21.291  0.00  0.00    +0.119 C 
ATOM     34  C   UNL     1      32.345  -9.691 -22.061  0.00  0.00    +0.119 C 
ATOM     35  H   UNL     1      34.190 -11.599 -22.157  0.00  0.00    -0.079 HD
ENDBRANCH  28  30
ENDBRANCH  27  28
ENDBRANCH   1  27
TORSDOF 6
ENDMDL
MODEL 3
REMARK VINA RESULT:     -10.6      2.318      3.265
REMARK  Name = 24963046
REMARK  6 active torsions:
REMARK  status: ('A' for Active; 'I' for Inactive)
REMARK    1  A    between atoms: N_1  and  C_27
REMARK    2  A    between atoms: C_4  and  C_16
REMARK    3  A    between atoms: C_13  and  C_22
REMARK    4  A    between atoms: N_21  and  C_24
REMARK    5  A    between atoms: C_27  and  C_28
REMARK    6  A    between atoms: C_28  and  N_30
REMARK                            x       y       z     vdW  Elec       q    Type
REMARK                         _______ _______ _______ _____ _____    ______ ____
ROOT
ATOM      1  N   UNL     1      35.455 -23.735 -16.424  0.00  0.00    -0.270 N 
ATOM      2  N   UNL     1      34.373 -22.472 -18.047  0.00  0.00    -0.338 NA
ATOM      3  N   UNL     1      36.759 -22.336 -17.736  0.00  0.00    -0.170 NA
ATOM      4  C   UNL     1      34.567 -19.678 -21.135  0.00  0.00    -0.000 C 
ATOM      5  C   UNL     1      35.731 -20.065 -20.477  0.00  0.00    +0.004 C 
ATOM      6  C   UNL     1      35.669 -21.007 -19.435  0.00  0.00    +0.050 C 
ATOM      7  C   UNL     1      35.535 -22.806 -17.448  0.00  0.00    +0.145 C 
ATOM      8  C   UNL     1      33.348 -20.230 -20.755  0.00  0.00    +0.003 C 
ATOM      9  C   UNL     1      34.444 -21.571 -19.042  0.00  0.00    +0.146 C 
ATOM     10  C   UNL     1      33.296 -21.166 -19.718  0.00  0.00    +0.033 C 
ATOM     11  C   UNL     1      36.794 -21.435 -18.737  0.00  0.00    +0.114 C 
ATOM     12  H   UNL     1      36.288 -23.998 -15.969  0.00  0.00    +0.159 HD
ENDROOT
BRANCH   4  16
ATOM     13  C   UNL     1      34.495 -16.407 -22.926  0.00  0.00    +0.053 C 
ATOM     14  C   UNL     1      34.443 -17.359 -21.909  0.00  0.00    +0.004 C 
ATOM     15  C   UNL     1      34.731 -16.804 -24.242  0.00  0.00    +0.004 C 
ATOM     16  C   UNL     1      34.625 -18.709 -22.207  0.00  0.00    -0.004 C 
ATOM     17  C   UNL     1      34.861 -19.107 -23.524  0.00  0.00    -0.022 C 
ATOM     18  C   UNL     1      34.915 -18.154 -24.541  0.00  0.00    -0.004 C 
ATOM     19  C   UNL     1      35.062 -20.545 -23.882  0.00  0.00    +0.031 C 
BRANCH  13  22
ATOM     20  O   UNL     1      34.905 -14.120 -23.261  0.00  0.00    -0.270 OA
ATOM     21  N   UNL     1      33.442 -14.690 -21.557  0.00  0.00    -0.302 N 
ATOM     22  C   UNL     1      34.305 -14.998 -22.616  0.00  0.00    +0.246 C 
ATOM     23  H   UNL     1      32.997 -15.432 -21.086  0.00  0.00    +0.150 HD
BRANCH  21  24
ATOM     24  C   UNL     1      33.173 -13.347 -21.123  0.00  0.00    +0.072 C 
ATOM     25  C   UNL     1      31.957 -12.607 -21.596  0.00  0.00    +0.021 C 
ATOM     26  C   UNL     1      32.058 -13.050 -20.166  0.00  0.00    +0.021 C 
ENDBRANCH  21  24
ENDBRANCH  13  22
ENDBRANCH   4  16
BRANCH   1  27
ATOM     27  C   UNL     1      34.220 -24.341 -15.986  0.00  0.00    +0.075 C 
BRANCH  27  28
ATOM     28  C   UNL     1      34.062 -24.154 -14.482  0.00  0.00    -0.055 C 
BRANCH  28  30
ATOM     29  O   UNL     1      29.897 -24.655 -14.349  0.00  0.00    -0.358 OA
ATOM     30  N   UNL     1      32.653 -23.976 -14.137  0.00  0.00    +0.391 N 
ATOM     31  C   UNL     1      32.112 -25.191 -13.513  0.00  0.00    -0.045 C 
ATOM     32  C   UNL     1      31.865 -23.626 -15.327  0.00  0.00    -0.045 C 
ATOM     33  C   UNL     1      30.639 -24.986 -13.173  0.00  0.00    +0.119 C 
ATOM     34  C   UNL     1      30.397 -23.456 -14.943  0.00  0.00    +0.119 C 
ATOM     35  H   UNL     1      32.591 -23.210 -13.466  0.00  0.00    -0.079 HD
ENDBRANCH  28  30
ENDBRANCH  27  28
ENDBRANCH   1  27
TORSDOF 6
ENDMDL
MODEL 4
REMARK VINA RESULT:     -10.6      0.764      1.721
REMARK  Name = 24963046
REMARK  6 active torsions:
REMARK  status: ('A' for Active; 'I' for Inactive)
REMARK    1  A    between atoms: N_1  and  C_27
REMARK    2  A    between atoms: C_4  and  C_16
REMARK    3  A    between atoms: C_13  and  C_22
REMARK    4  A    between atoms: N_21  and  C_24
REMARK    5  A    between atoms: C_27  and  C_28
REMARK    6  A    between atoms: C_28  and  N_30
REMARK                            x       y       z     vdW  Elec       q    Type
REMARK                         _______ _______ _______ _____ _____    ______ ____
ROOT
ATOM      1  N   UNL     1      35.808 -23.736 -16.210  0.00  0.00    -0.270 N 
ATOM      2  N   UNL     1      34.662 -22.569 -17.862  0.00  0.00    -0.338 NA
ATOM      3  N   UNL     1      37.034 -22.287 -17.543  0.00  0.00    -0.170 NA
ATOM      4  C   UNL     1      34.706 -19.826 -21.000  0.00  0.00    -0.000 C 
ATOM      5  C   UNL     1      35.888 -20.132 -20.331  0.00  0.00    +0.004 C 
ATOM      6  C   UNL     1      35.876 -21.056 -19.271  0.00  0.00    +0.050 C 
ATOM      7  C   UNL     1      35.838 -22.822 -17.251  0.00  0.00    +0.145 C 
ATOM      8  C   UNL     1      33.520 -20.442 -20.615  0.00  0.00    +0.003 C 
ATOM      9  C   UNL     1      34.684 -21.684 -18.873  0.00  0.00    +0.146 C 
ATOM     10  C   UNL     1      33.518 -21.360 -19.561  0.00  0.00    +0.033 C 
ATOM     11  C   UNL     1      37.021 -21.404 -18.561  0.00  0.00    +0.114 C 
ATOM     12  H   UNL     1      36.653 -23.940 -15.747  0.00  0.00    +0.159 HD
ENDROOT
BRANCH   4  16
ATOM     13  C   UNL     1      34.528 -16.588 -22.843  0.00  0.00    +0.053 C 
ATOM     14  C   UNL     1      34.525 -17.523 -21.808  0.00  0.00    +0.004 C 
ATOM     15  C   UNL     1      34.720 -17.005 -24.160  0.00  0.00    +0.004 C 
ATOM     16  C   UNL     1      34.713 -18.876 -22.090  0.00  0.00    -0.004 C 
ATOM     17  C   UNL     1      34.905 -19.293 -23.408  0.00  0.00    -0.022 C 
ATOM     18  C   UNL     1      34.909 -18.358 -24.443  0.00  0.00    -0.004 C 
ATOM     19  C   UNL     1      35.110 -20.735 -23.749  0.00  0.00    +0.031 C 
BRANCH  13  22
ATOM     20  O   UNL     1      34.902 -14.303 -23.228  0.00  0.00    -0.270 OA
ATOM     21  N   UNL     1      33.500 -14.860 -21.470  0.00  0.00    -0.302 N 
ATOM     22  C   UNL     1      34.333 -15.176 -22.550  0.00  0.00    +0.246 C 
ATOM     23  H   UNL     1      33.078 -15.598 -20.972  0.00  0.00    +0.150 HD
BRANCH  21  24
ATOM     24  C   UNL     1      33.230 -13.512 -21.049  0.00  0.00    +0.072 C 
ATOM     25  C   UNL     1      32.119 -12.714 -21.665  0.00  0.00    +0.021 C 
ATOM     26  C   UNL     1      32.009 -13.181 -20.243  0.00  0.00    +0.021 C 
ENDBRANCH  21  24
ENDBRANCH  13  22
ENDBRANCH   4  16
BRANCH   1  27
ATOM     27  C   UNL     1      34.609 -24.406 -15.766  0.00  0.00    +0.075 C 
BRANCH  27  28
ATOM     28  C   UNL     1      34.882 -25.127 -14.452  0.00  0.00    -0.055 C 
BRANCH  28  30
ATOM     29  O   UNL     1      38.567 -26.509 -12.993  0.00  0.00    -0.358 OA
ATOM     30  N   UNL     1      36.319 -25.304 -14.258  0.00  0.00    +0.391 N 
ATOM     31  C   UNL     1      36.720 -26.686 -14.558  0.00  0.00    -0.045 C 
ATOM     32  C   UNL     1      36.708 -24.952 -12.886  0.00  0.00    -0.045 C 
ATOM     33  C   UNL     1      38.221 -26.850 -14.337  0.00  0.00    +0.119 C 
ATOM     34  C   UNL     1      38.210 -25.156 -12.705  0.00  0.00    +0.119 C 
ATOM     35  H   UNL     1      36.801 -24.678 -14.905  0.00  0.00    -0.079 HD
ENDBRANCH  28  30
ENDBRANCH  27  28
ENDBRANCH   1  27
TORSDOF 6
ENDMDL
MODEL 5
REMARK VINA RESULT:     -10.4      4.508     13.245
REMARK  Name = 24963046
REMARK  6 active torsions:
REMARK  status: ('A' for Active; 'I' for Inactive)
REMARK    1  A    between atoms: N_1  and  C_27
REMARK    2  A    between atoms: C_4  and  C_16
REMARK    3  A    between atoms: C_13  and  C_22
REMARK    4  A    between atoms: N_21  and  C_24
REMARK    5  A    between atoms: C_27  and  C_28
REMARK    6  A    between atoms: C_28  and  N_30
REMARK                            x       y       z     vdW  Elec       q    Type
REMARK                         _______ _______ _______ _____ _____    ______ ____
ROOT
ATOM      1  N   UNL     1      31.518  -9.283 -21.063  0.00  0.00    -0.270 N 
ATOM      2  N   UNL     1      32.684 -10.849 -22.323  0.00  0.00    -0.338 NA
ATOM      3  N   UNL     1      31.487 -11.483 -20.330  0.00  0.00    -0.170 NA
ATOM      4  C   UNL     1      33.897 -14.794 -22.911  0.00  0.00    -0.000 C 
ATOM      5  C   UNL     1      33.099 -14.470 -21.817  0.00  0.00    +0.004 C 
ATOM      6  C   UNL     1      32.689 -13.140 -21.615  0.00  0.00    +0.050 C 
ATOM      7  C   UNL     1      31.914 -10.598 -21.245  0.00  0.00    +0.145 C 
ATOM      8  C   UNL     1      34.281 -13.795 -23.799  0.00  0.00    +0.003 C 
ATOM      9  C   UNL     1      33.071 -12.123 -22.506  0.00  0.00    +0.146 C 
ATOM     10  C   UNL     1      33.868 -12.476 -23.592  0.00  0.00    +0.033 C 
ATOM     11  C   UNL     1      31.892 -12.750 -20.543  0.00  0.00    +0.114 C 
ATOM     12  H   UNL     1      30.954  -9.071 -20.284  0.00  0.00    +0.159 HD
ENDROOT
BRANCH   4  16
ATOM     13  C   UNL     1      35.226 -18.210 -22.218  0.00  0.00    +0.053 C 
ATOM     14  C   UNL     1      34.810 -16.891 -22.039  0.00  0.00    +0.004 C 
ATOM     15  C   UNL     1      35.152 -18.799 -23.480  0.00  0.00    +0.004 C 
ATOM     16  C   UNL     1      34.322 -16.160 -23.121  0.00  0.00    -0.004 C 
ATOM     17  C   UNL     1      34.248 -16.749 -24.384  0.00  0.00    -0.022 C 
ATOM     18  C   UNL     1      34.663 -18.069 -24.563  0.00  0.00    -0.004 C 
ATOM     19  C   UNL     1      33.729 -15.998 -25.568  0.00  0.00    +0.031 C 
BRANCH  13  22
ATOM     20  O   UNL     1      36.808 -18.656 -20.542  0.00  0.00    -0.270 OA
ATOM     21  N   UNL     1      34.980 -20.075 -20.672  0.00  0.00    -0.302 N 
ATOM     22  C   UNL     1      35.736 -18.973 -21.089  0.00  0.00    +0.246 C 
ATOM     23  H   UNL     1      34.140 -20.273 -21.147  0.00  0.00    +0.150 HD
BRANCH  21  24
ATOM     24  C   UNL     1      35.368 -20.932 -19.586  0.00  0.00    +0.072 C 
ATOM     25  C   UNL     1      34.450 -22.003 -19.075  0.00  0.00    +0.021 C 
ATOM     26  C   UNL     1      35.699 -22.376 -19.818  0.00  0.00    +0.021 C 
ENDBRANCH  21  24
ENDBRANCH  13  22
ENDBRANCH   4  16
BRANCH   1  27
ATOM     27  C   UNL     1      31.886  -8.205 -21.950  0.00  0.00    +0.075 C 
BRANCH  27  28
ATOM     28  C   UNL     1      32.556  -7.092 -21.154  0.00  0.00    -0.055 C 
BRANCH  28  30
ATOM     29  O   UNL     1      30.303  -4.134 -23.102  0.00  0.00    -0.358 OA
ATOM     30  N   UNL     1      32.019  -5.791 -21.549  0.00  0.00    +0.391 N 
ATOM     31  C   UNL     1      30.575  -5.721 -21.286  0.00  0.00    -0.045 C 
ATOM     32  C   UNL     1      32.287  -5.525 -22.969  0.00  0.00    -0.045 C 
ATOM     33  C   UNL     1      30.036  -4.360 -21.717  0.00  0.00    +0.119 C 
ATOM     34  C   UNL     1      31.708  -4.168 -23.359  0.00  0.00    +0.119 C 
ATOM     35  H   UNL     1      32.487  -5.078 -20.989  0.00  0.00    -0.079 HD
ENDBRANCH  28  30
ENDBRANCH  27  28
ENDBRANCH   1  27
TORSDOF 6
ENDMDL
MODEL 6
REMARK VINA RESULT:     -10.3      2.844     10.721
REMARK  Name = 24963046
REMARK  6 active torsions:
REMARK  status: ('A' for Active; 'I' for Inactive)
REMARK    1  A    between atoms: N_1  and  C_27
REMARK    2  A    between atoms: C_4  and  C_16
REMARK    3  A    between atoms: C_13  and  C_22
REMARK    4  A    between atoms: N_21  and  C_24
REMARK    5  A    between atoms: C_27  and  C_28
REMARK    6  A    between atoms: C_28  and  N_30
REMARK                            x       y       z     vdW  Elec       q    Type
REMARK                         _______ _______ _______ _____ _____    ______ ____
ROOT
ATOM      1  N   UNL     1      34.458 -19.427 -22.413  0.00  0.00    -0.270 N 
ATOM      2  N   UNL     1      35.540 -20.421 -20.612  0.00  0.00    -0.338 NA
ATOM      3  N   UNL     1      33.148 -20.560 -20.870  0.00  0.00    -0.170 NA
ATOM      4  C   UNL     1      35.340 -22.650 -17.096  0.00  0.00    -0.000 C 
ATOM      5  C   UNL     1      34.175 -22.358 -17.798  0.00  0.00    +0.004 C 
ATOM      6  C   UNL     1      34.238 -21.606 -18.984  0.00  0.00    +0.050 C 
ATOM      7  C   UNL     1      34.376 -20.169 -21.246  0.00  0.00    +0.145 C 
ATOM      8  C   UNL     1      36.563 -22.195 -17.577  0.00  0.00    +0.003 C 
ATOM      9  C   UNL     1      35.467 -21.140 -19.479  0.00  0.00    +0.146 C 
ATOM     10  C   UNL     1      36.618 -21.448 -18.757  0.00  0.00    +0.033 C 
ATOM     11  C   UNL     1      33.111 -21.279 -19.732  0.00  0.00    +0.114 C 
ATOM     12  H   UNL     1      33.623 -19.230 -22.897  0.00  0.00    +0.159 HD
ENDROOT
BRANCH   4  16
ATOM     13  C   UNL     1      33.951 -24.532 -14.190  0.00  0.00    +0.053 C 
ATOM     14  C   UNL     1      34.034 -23.787 -15.366  0.00  0.00    +0.004 C 
ATOM     15  C   UNL     1      35.114 -24.914 -13.523  0.00  0.00    +0.004 C 
ATOM     16  C   UNL     1      35.280 -23.422 -15.875  0.00  0.00    -0.004 C 
ATOM     17  C   UNL     1      36.444 -23.804 -15.206  0.00  0.00    -0.022 C 
ATOM     18  C   UNL     1      36.361 -24.550 -14.031  0.00  0.00    -0.004 C 
ATOM     19  C   UNL     1      37.798 -23.432 -15.721  0.00  0.00    +0.031 C 
BRANCH  13  22
ATOM     20  O   UNL     1      32.565 -25.624 -12.642  0.00  0.00    -0.270 OA
ATOM     21  N   UNL     1      31.522 -24.461 -14.353  0.00  0.00    -0.302 N 
ATOM     22  C   UNL     1      32.651 -24.913 -13.659  0.00  0.00    +0.246 C 
ATOM     23  H   UNL     1      31.658 -23.901 -15.152  0.00  0.00    +0.150 HD
BRANCH  21  24
ATOM     24  C   UNL     1      30.176 -24.774 -13.960  0.00  0.00    +0.072 C 
ATOM     25  C   UNL     1      29.034 -24.643 -14.925  0.00  0.00    +0.021 C 
ATOM     26  C   UNL     1      29.484 -26.002 -14.472  0.00  0.00    +0.021 C 
ENDBRANCH  21  24
ENDBRANCH  13  22
ENDBRANCH   4  16
BRANCH   1  27
ATOM     27  C   UNL     1      35.697 -18.928 -22.961  0.00  0.00    +0.075 C 
BRANCH  27  28
ATOM     28  C   UNL     1      35.826 -17.440 -22.662  0.00  0.00    -0.055 C 
BRANCH  28  30
ATOM     29  O   UNL     1      33.648 -14.545 -24.782  0.00  0.00    -0.358 OA
ATOM     30  N   UNL     1      34.717 -16.702 -23.263  0.00  0.00    +0.391 N 
ATOM     31  C   UNL     1      34.857 -16.649 -24.725  0.00  0.00    -0.045 C 
ATOM     32  C   UNL     1      34.636 -15.342 -22.714  0.00  0.00    -0.045 C 
ATOM     33  C   UNL     1      33.695 -15.865 -25.328  0.00  0.00    +0.119 C 
ATOM     34  C   UNL     1      33.478 -14.589 -23.364  0.00  0.00    +0.119 C 
ATOM     35  H   UNL     1      33.854 -17.198 -23.037  0.00  0.00    -0.079 HD
ENDBRANCH  28  30
ENDBRANCH  27  28
ENDBRANCH   1  27
TORSDOF 6
ENDMDL
MODEL 7
REMARK VINA RESULT:     -10.3      2.065     11.184
REMARK  Name = 24963046
REMARK  6 active torsions:
REMARK  status: ('A' for Active; 'I' for Inactive)
REMARK    1  A    between atoms: N_1  and  C_27
REMARK    2  A    between atoms: C_4  and  C_16
REMARK    3  A    between atoms: C_13  and  C_22
REMARK    4  A    between atoms: N_21  and  C_24
REMARK    5  A    between atoms: C_27  and  C_28
REMARK    6  A    between atoms: C_28  and  N_30
REMARK                            x       y       z     vdW  Elec       q    Type
REMARK                         _______ _______ _______ _____ _____    ______ ____
ROOT
ATOM      1  N   UNL     1      34.317 -19.379 -22.421  0.00  0.00    -0.270 N 
ATOM      2  N   UNL     1      35.272 -20.482 -20.611  0.00  0.00    -0.338 NA
ATOM      3  N   UNL     1      32.893 -20.524 -20.993  0.00  0.00    -0.170 NA
ATOM      4  C   UNL     1      34.818 -22.840 -17.204  0.00  0.00    -0.000 C 
ATOM      5  C   UNL     1      33.700 -22.478 -17.950  0.00  0.00    +0.004 C 
ATOM      6  C   UNL     1      33.849 -21.682 -19.099  0.00  0.00    +0.050 C 
ATOM      7  C   UNL     1      34.151 -20.163 -21.291  0.00  0.00    +0.145 C 
ATOM      8  C   UNL     1      36.079 -22.411 -17.605  0.00  0.00    +0.003 C 
ATOM      9  C   UNL     1      35.118 -21.242 -19.514  0.00  0.00    +0.146 C 
ATOM     10  C   UNL     1      36.218 -21.620 -18.749  0.00  0.00    +0.033 C 
ATOM     11  C   UNL     1      32.774 -21.286 -19.888  0.00  0.00    +0.114 C 
ATOM     12  H   UNL     1      33.516 -19.132 -22.937  0.00  0.00    +0.159 HD
ENDROOT
BRANCH   4  16
ATOM     13  C   UNL     1      35.674 -25.081 -14.347  0.00  0.00    +0.053 C 
ATOM     14  C   UNL     1      35.794 -24.287 -15.488  0.00  0.00    +0.004 C 
ATOM     15  C   UNL     1      34.430 -25.243 -13.738  0.00  0.00    +0.004 C 
ATOM     16  C   UNL     1      34.669 -23.658 -16.021  0.00  0.00    -0.004 C 
ATOM     17  C   UNL     1      33.425 -23.821 -15.411  0.00  0.00    -0.022 C 
ATOM     18  C   UNL     1      33.305 -24.613 -14.269  0.00  0.00    -0.004 C 
ATOM     19  C   UNL     1      32.197 -23.161 -15.953  0.00  0.00    +0.031 C 
BRANCH  13  22
ATOM     20  O   UNL     1      36.866 -26.098 -12.600  0.00  0.00    -0.270 OA
ATOM     21  N   UNL     1      37.940 -25.921 -14.646  0.00  0.00    -0.302 N 
ATOM     22  C   UNL     1      36.846 -25.738 -13.790  0.00  0.00    +0.246 C 
ATOM     23  H   UNL     1      37.861 -25.613 -15.578  0.00  0.00    +0.150 HD
BRANCH  21  24
ATOM     24  C   UNL     1      39.171 -26.535 -14.232  0.00  0.00    +0.072 C 
ATOM     25  C   UNL     1      40.478 -26.160 -14.867  0.00  0.00    +0.021 C 
ATOM     26  C   UNL     1      40.194 -25.770 -13.446  0.00  0.00    +0.021 C 
ENDBRANCH  21  24
ENDBRANCH  13  22
ENDBRANCH   4  16
BRANCH   1  27
ATOM     27  C   UNL     1      35.599 -18.904 -22.885  0.00  0.00    +0.075 C 
BRANCH  27  28
ATOM     28  C   UNL     1      35.721 -17.410 -22.613  0.00  0.00    -0.055 C 
BRANCH  28  30
ATOM     29  O   UNL     1      33.696 -14.564 -24.941  0.00  0.00    -0.358 OA
ATOM     30  N   UNL     1      34.654 -16.680 -23.295  0.00  0.00    +0.391 N 
ATOM     31  C   UNL     1      34.870 -16.680 -24.749  0.00  0.00    -0.045 C 
ATOM     32  C   UNL     1      34.565 -15.300 -22.798  0.00  0.00    -0.045 C 
ATOM     33  C   UNL     1      33.752 -15.903 -25.438  0.00  0.00    +0.119 C 
ATOM     34  C   UNL     1      33.453 -14.556 -23.533  0.00  0.00    +0.119 C 
ATOM     35  H   UNL     1      33.774 -17.156 -23.097  0.00  0.00    -0.079 HD
ENDBRANCH  28  30
ENDBRANCH  27  28
ENDBRANCH   1  27
TORSDOF 6
ENDMDL
MODEL 8
REMARK VINA RESULT:     -10.2      4.596     13.451
REMARK  Name = 24963046
REMARK  6 active torsions:
REMARK  status: ('A' for Active; 'I' for Inactive)
REMARK    1  A    between atoms: N_1  and  C_27
REMARK    2  A    between atoms: C_4  and  C_16
REMARK    3  A    between atoms: C_13  and  C_22
REMARK    4  A    between atoms: N_21  and  C_24
REMARK    5  A    between atoms: C_27  and  C_28
REMARK    6  A    between atoms: C_28  and  N_30
REMARK                            x       y       z     vdW  Elec       q    Type
REMARK                         _______ _______ _______ _____ _____    ______ ____
ROOT
ATOM      1  N   UNL     1      31.518  -9.274 -21.278  0.00  0.00    -0.270 N 
ATOM      2  N   UNL     1      32.707 -10.863 -22.488  0.00  0.00    -0.338 NA
ATOM      3  N   UNL     1      31.449 -11.466 -20.523  0.00  0.00    -0.170 NA
ATOM      4  C   UNL     1      33.905 -14.823 -22.998  0.00  0.00    -0.000 C 
ATOM      5  C   UNL     1      33.079 -14.481 -21.931  0.00  0.00    +0.004 C 
ATOM      6  C   UNL     1      32.673 -13.146 -21.755  0.00  0.00    +0.050 C 
ATOM      7  C   UNL     1      31.908 -10.594 -21.435  0.00  0.00    +0.145 C 
ATOM      8  C   UNL     1      34.322 -13.837 -23.886  0.00  0.00    +0.003 C 
ATOM      9  C   UNL     1      33.089 -12.142 -22.646  0.00  0.00    +0.146 C 
ATOM     10  C   UNL     1      33.914 -12.513 -23.704  0.00  0.00    +0.033 C 
ATOM     11  C   UNL     1      31.850 -12.738 -20.710  0.00  0.00    +0.114 C 
ATOM     12  H   UNL     1      30.934  -9.049 -20.518  0.00  0.00    +0.159 HD
ENDROOT
BRANCH   4  16
ATOM     13  C   UNL     1      35.234 -18.225 -22.240  0.00  0.00    +0.053 C 
ATOM     14  C   UNL     1      34.823 -16.901 -22.087  0.00  0.00    +0.004 C 
ATOM     15  C   UNL     1      35.147 -18.842 -23.488  0.00  0.00    +0.004 C 
ATOM     16  C   UNL     1      34.325 -16.194 -23.181  0.00  0.00    -0.004 C 
ATOM     17  C   UNL     1      34.238 -16.812 -24.429  0.00  0.00    -0.022 C 
ATOM     18  C   UNL     1      34.648 -18.137 -24.583  0.00  0.00    -0.004 C 
ATOM     19  C   UNL     1      33.709 -16.087 -25.625  0.00  0.00    +0.031 C 
BRANCH  13  22
ATOM     20  O   UNL     1      36.841 -18.649 -20.584  0.00  0.00    -0.270 OA
ATOM     21  N   UNL     1      34.988 -20.039 -20.635  0.00  0.00    -0.302 N 
ATOM     22  C   UNL     1      35.754 -18.963 -21.100  0.00  0.00    +0.246 C 
ATOM     23  H   UNL     1      34.135 -20.236 -21.087  0.00  0.00    +0.150 HD
BRANCH  21  24
ATOM     24  C   UNL     1      35.383 -20.871 -19.532  0.00  0.00    +0.072 C 
ATOM     25  C   UNL     1      34.608 -22.104 -19.171  0.00  0.00    +0.021 C 
ATOM     26  C   UNL     1      35.984 -22.226 -19.758  0.00  0.00    +0.021 C 
ENDBRANCH  21  24
ENDBRANCH  13  22
ENDBRANCH   4  16
BRANCH   1  27
ATOM     27  C   UNL     1      31.919  -8.209 -22.166  0.00  0.00    +0.075 C 
BRANCH  27  28
ATOM     28  C   UNL     1      31.130  -6.946 -21.840  0.00  0.00    -0.055 C 
BRANCH  28  30
ATOM     29  O   UNL     1      32.131  -3.625 -24.203  0.00  0.00    -0.358 OA
ATOM     30  N   UNL     1      31.193  -6.006 -22.957  0.00  0.00    +0.391 N 
ATOM     31  C   UNL     1      32.565  -5.898 -23.472  0.00  0.00    -0.045 C 
ATOM     32  C   UNL     1      30.701  -4.682 -22.553  0.00  0.00    -0.045 C 
ATOM     33  C   UNL     1      32.607  -4.903 -24.628  0.00  0.00    +0.119 C 
ATOM     34  C   UNL     1      30.786  -3.716 -23.732  0.00  0.00    +0.119 C 
ATOM     35  H   UNL     1      30.593  -6.365 -23.701  0.00  0.00    -0.079 HD
ENDBRANCH  28  30
ENDBRANCH  27  28
ENDBRANCH   1  27
TORSDOF 6
ENDMDL
MODEL 9
REMARK VINA RESULT:      -9.9      5.547     13.909
REMARK  Name = 24963046
REMARK  6 active torsions:
REMARK  status: ('A' for Active; 'I' for Inactive)
REMARK    1  A    between atoms: N_1  and  C_27
REMARK    2  A    between atoms: C_4  and  C_16
REMARK    3  A    between atoms: C_13  and  C_22
REMARK    4  A    between atoms: N_21  and  C_24
REMARK    5  A    between atoms: C_27  and  C_28
REMARK    6  A    between atoms: C_28  and  N_30
REMARK                            x       y       z     vdW  Elec       q    Type
REMARK                         _______ _______ _______ _____ _____    ______ ____
ROOT
ATOM      1  N   UNL     1      31.685  -7.888 -20.600  0.00  0.00    -0.270 N 
ATOM      2  N   UNL     1      32.740  -9.280 -22.133  0.00  0.00    -0.338 NA
ATOM      3  N   UNL     1      31.322 -10.170 -20.400  0.00  0.00    -0.170 NA
ATOM      4  C   UNL     1      33.492 -13.123 -23.562  0.00  0.00    -0.000 C 
ATOM      5  C   UNL     1      32.658 -12.943 -22.462  0.00  0.00    +0.004 C 
ATOM      6  C   UNL     1      32.403 -11.649 -21.977  0.00  0.00    +0.050 C 
ATOM      7  C   UNL     1      31.925  -9.171 -21.064  0.00  0.00    +0.145 C 
ATOM      8  C   UNL     1      34.066 -12.014 -24.176  0.00  0.00    +0.003 C 
ATOM      9  C   UNL     1      32.978 -10.522 -22.588  0.00  0.00    +0.146 C 
ATOM     10  C   UNL     1      33.806 -10.731 -23.688  0.00  0.00    +0.033 C 
ATOM     11  C   UNL     1      31.581 -11.401 -20.882  0.00  0.00    +0.114 C 
ATOM     12  H   UNL     1      31.093  -7.779 -19.820  0.00  0.00    +0.159 HD
ENDROOT
BRANCH   4  16
ATOM     13  C   UNL     1      34.611 -16.679 -23.677  0.00  0.00    +0.053 C 
ATOM     14  C   UNL     1      34.346 -15.390 -23.215  0.00  0.00    +0.004 C 
ATOM     15  C   UNL     1      34.289 -17.031 -24.987  0.00  0.00    +0.004 C 
ATOM     16  C   UNL     1      33.758 -14.453 -24.064  0.00  0.00    -0.004 C 
ATOM     17  C   UNL     1      33.435 -14.805 -25.375  0.00  0.00    -0.022 C 
ATOM     18  C   UNL     1      33.700 -16.094 -25.837  0.00  0.00    -0.004 C 
ATOM     19  C   UNL     1      32.803 -13.827 -26.314  0.00  0.00    +0.031 C 
BRANCH  13  22
ATOM     20  O   UNL     1      36.212 -17.355 -22.099  0.00  0.00    -0.270 OA
ATOM     21  N   UNL     1      34.667 -18.942 -22.779  0.00  0.00    -0.302 N 
ATOM     22  C   UNL     1      35.224 -17.658 -22.792  0.00  0.00    +0.246 C 
ATOM     23  H   UNL     1      33.885 -19.119 -23.352  0.00  0.00    +0.150 HD
BRANCH  21  24
ATOM     24  C   UNL     1      35.177 -20.016 -21.973  0.00  0.00    +0.072 C 
ATOM     25  C   UNL     1      35.909 -19.746 -20.691  0.00  0.00    +0.021 C 
ATOM     26  C   UNL     1      34.544 -20.370 -20.660  0.00  0.00    +0.021 C 
ENDBRANCH  21  24
ENDBRANCH  13  22
ENDBRANCH   4  16
BRANCH   1  27
ATOM     27  C   UNL     1      32.252  -6.701 -21.195  0.00  0.00    +0.075 C 
BRANCH  27  28
ATOM     28  C   UNL     1      31.134  -5.797 -21.699  0.00  0.00    -0.055 C 
BRANCH  28  30
ATOM     29  O   UNL     1      32.963  -4.122 -25.085  0.00  0.00    -0.358 OA
ATOM     30  N   UNL     1      31.392  -5.391 -23.079  0.00  0.00    +0.391 N 
ATOM     31  C   UNL     1      32.637  -5.994 -23.575  0.00  0.00    -0.045 C 
ATOM     32  C   UNL     1      31.462  -3.928 -23.189  0.00  0.00    -0.045 C 
ATOM     33  C   UNL     1      32.892  -5.547 -25.012  0.00  0.00    +0.119 C 
ATOM     34  C   UNL     1      31.743  -3.530 -24.635  0.00  0.00    +0.119 C 
ATOM     35  H   UNL     1      30.617  -5.725 -23.653  0.00  0.00    -0.079 HD
ENDBRANCH  28  30
ENDBRANCH  27  28
ENDBRANCH   1  27
TORSDOF 6
ENDMDL
