MODEL 1
REMARK VINA RESULT:     -11.3      0.000      0.000
REMARK  Name = 2765355
REMARK  2 active torsions:
REMARK  status: ('A' for Active; 'I' for Inactive)
REMARK    1  A    between atoms: C_4  and  C_20
REMARK    2  A    between atoms: C_6  and  C_13
REMARK                            x       y       z     vdW  Elec       q    Type
REMARK                         _______ _______ _______ _____ _____    ______ ____
ROOT
ATOM      1  O   UNL     1      31.695 -22.932 -17.419  0.00  0.00    -0.353 OA
ATOM      2  N   UNL     1      31.236 -23.623 -16.306  0.00  0.00    -0.077 NA
ATOM      3  C   UNL     1      33.485 -23.381 -16.212  0.00  0.00    +0.058 A 
ATOM      4  C   UNL     1      33.045 -22.789 -17.357  0.00  0.00    +0.177 A 
ATOM      5  C   UNL     1      32.316 -23.905 -15.555  0.00  0.00    +0.123 A 
ATOM      6  C   UNL     1      34.885 -24.136 -14.550  0.00  0.00    +0.031 C 
ATOM      7  C   UNL     1      34.800 -23.452 -15.779  0.00  0.00    +0.007 C 
ATOM      8  C   UNL     1      32.427 -24.585 -14.330  0.00  0.00    +0.023 C 
ATOM      9  C   UNL     1      33.756 -24.677 -13.857  0.00  0.00    +0.004 C 
ENDROOT
BRANCH   6  13
ATOM     10  N   UNL     1      37.127 -24.833 -14.764  0.00  0.00    -0.338 NA
ATOM     11  N   UNL     1      38.698 -24.668 -12.944  0.00  0.00    -0.170 NA
ATOM     12  N   UNL     1      39.349 -25.542 -15.023  0.00  0.00    -0.293 N 
ATOM     13  C   UNL     1      36.195 -24.302 -13.950  0.00  0.00    +0.146 C 
ATOM     14  C   UNL     1      36.426 -23.933 -12.644  0.00  0.00    +0.055 C 
ATOM     15  C   UNL     1      37.712 -24.141 -12.189  0.00  0.00    +0.114 C 
ATOM     16  C   UNL     1      38.341 -24.987 -14.203  0.00  0.00    +0.141 C 
ATOM     17  H   UNL     1      39.144 -25.793 -15.953  0.00  0.00    +0.155 HD
ATOM     18  H   UNL     1      40.256 -25.676 -14.665  0.00  0.00    +0.155 HD
ENDBRANCH   6  13
BRANCH   4  20
ATOM     19 CL   UNL     1      35.516 -19.876 -21.923  0.00  0.00    -0.082 Cl
ATOM     20  C   UNL     1      33.641 -22.088 -18.459  0.00  0.00    +0.037 C 
ATOM     21  C   UNL     1      35.010 -22.209 -18.712  0.00  0.00    +0.004 C 
ATOM     22  C   UNL     1      32.857 -21.277 -19.285  0.00  0.00    +0.004 C 
ATOM     23  C   UNL     1      35.590 -21.526 -19.783  0.00  0.00    +0.011 C 
ATOM     24  C   UNL     1      33.436 -20.595 -20.354  0.00  0.00    +0.011 C 
ATOM     25  C   UNL     1      34.802 -20.718 -20.603  0.00  0.00    +0.058 C 
ENDBRANCH   4  20
TORSDOF 2
ENDMDL
MODEL 2
REMARK VINA RESULT:     -10.9     11.310     13.846
REMARK  Name = 2765355
REMARK  2 active torsions:
REMARK  status: ('A' for Active; 'I' for Inactive)
REMARK    1  A    between atoms: C_4  and  C_20
REMARK    2  A    between atoms: C_6  and  C_13
REMARK                            x       y       z     vdW  Elec       q    Type
REMARK                         _______ _______ _______ _____ _____    ______ ____
ROOT
ATOM      1  O   UNL     1      31.535 -10.061 -20.121  0.00  0.00    -0.353 OA
ATOM      2  N   UNL     1      31.427 -11.259 -19.428  0.00  0.00    -0.077 NA
ATOM      3  C   UNL     1      32.234 -11.622 -21.512  0.00  0.00    +0.058 A 
ATOM      4  C   UNL     1      32.019 -10.284 -21.370  0.00  0.00    +0.177 A 
ATOM      5  C   UNL     1      31.851 -12.226 -20.262  0.00  0.00    +0.123 A 
ATOM      6  C   UNL     1      32.819 -13.648 -22.431  0.00  0.00    +0.031 C 
ATOM      7  C   UNL     1      32.726 -12.258 -22.642  0.00  0.00    +0.007 C 
ATOM      8  C   UNL     1      31.952 -13.615 -20.077  0.00  0.00    +0.023 C 
ATOM      9  C   UNL     1      32.451 -14.298 -21.210  0.00  0.00    +0.004 C 
ENDROOT
BRANCH   6  13
ATOM     10  N   UNL     1      34.129 -15.476 -23.137  0.00  0.00    -0.338 NA
ATOM     11  N   UNL     1      34.323 -16.092 -25.459  0.00  0.00    -0.170 NA
ATOM     12  N   UNL     1      35.446 -17.305 -23.793  0.00  0.00    -0.293 N 
ATOM     13  C   UNL     1      33.318 -14.471 -23.516  0.00  0.00    +0.146 C 
ATOM     14  C   UNL     1      32.965 -14.210 -24.821  0.00  0.00    +0.055 C 
ATOM     15  C   UNL     1      33.504 -15.064 -25.762  0.00  0.00    +0.114 C 
ATOM     16  C   UNL     1      34.590 -16.238 -24.147  0.00  0.00    +0.141 C 
ATOM     17  H   UNL     1      35.675 -17.459 -22.847  0.00  0.00    +0.155 HD
ATOM     18  H   UNL     1      35.812 -17.894 -24.490  0.00  0.00    +0.155 HD
ENDBRANCH   6  13
BRANCH   4  20
ATOM     19 CL   UNL     1      32.666  -5.433 -24.759  0.00  0.00    -0.082 Cl
ATOM     20  C   UNL     1      32.176  -9.115 -22.188  0.00  0.00    +0.037 C 
ATOM     21  C   UNL     1      33.418  -8.480 -22.278  0.00  0.00    +0.004 C 
ATOM     22  C   UNL     1      31.087  -8.602 -22.899  0.00  0.00    +0.004 C 
ATOM     23  C   UNL     1      33.570  -7.343 -23.073  0.00  0.00    +0.011 C 
ATOM     24  C   UNL     1      31.238  -7.466 -23.694  0.00  0.00    +0.011 C 
ATOM     25  C   UNL     1      32.479  -6.835 -23.780  0.00  0.00    +0.058 C 
ENDBRANCH   4  20
TORSDOF 2
ENDMDL
MODEL 3
REMARK VINA RESULT:     -10.7      1.943      5.175
REMARK  Name = 2765355
REMARK  2 active torsions:
REMARK  status: ('A' for Active; 'I' for Inactive)
REMARK    1  A    between atoms: C_4  and  C_20
REMARK    2  A    between atoms: C_6  and  C_13
REMARK                            x       y       z     vdW  Elec       q    Type
REMARK                         _______ _______ _______ _____ _____    ______ ____
ROOT
ATOM      1  O   UNL     1      36.658 -23.000 -16.412  0.00  0.00    -0.353 OA
ATOM      2  N   UNL     1      36.636 -23.699 -15.213  0.00  0.00    -0.077 NA
ATOM      3  C   UNL     1      34.536 -23.458 -16.024  0.00  0.00    +0.058 A 
ATOM      4  C   UNL     1      35.396 -22.858 -16.894  0.00  0.00    +0.177 A 
ATOM      5  C   UNL     1      35.347 -23.989 -14.959  0.00  0.00    +0.123 A 
ATOM      6  C   UNL     1      32.591 -24.229 -15.068  0.00  0.00    +0.031 C 
ATOM      7  C   UNL     1      33.158 -23.534 -16.155  0.00  0.00    +0.007 C 
ATOM      8  C   UNL     1      34.758 -24.678 -13.885  0.00  0.00    +0.023 C 
ATOM      9  C   UNL     1      33.352 -24.775 -13.985  0.00  0.00    +0.004 C 
ENDROOT
BRANCH   6  13
ATOM     10  N   UNL     1      30.471 -23.606 -15.889  0.00  0.00    -0.338 NA
ATOM     11  N   UNL     1      28.439 -24.629 -15.095  0.00  0.00    -0.170 NA
ATOM     12  N   UNL     1      28.383 -22.951 -16.736  0.00  0.00    -0.293 N 
ATOM     13  C   UNL     1      31.151 -24.403 -15.044  0.00  0.00    +0.146 C 
ATOM     14  C   UNL     1      30.565 -25.323 -14.205  0.00  0.00    +0.055 C 
ATOM     15  C   UNL     1      29.188 -25.394 -14.274  0.00  0.00    +0.114 C 
ATOM     16  C   UNL     1      29.135 -23.769 -15.863  0.00  0.00    +0.141 C 
ATOM     17  H   UNL     1      28.840 -22.305 -17.321  0.00  0.00    +0.155 HD
ATOM     18  H   UNL     1      27.402 -23.029 -16.759  0.00  0.00    +0.155 HD
ENDBRANCH   6  13
BRANCH   4  20
ATOM     19 CL   UNL     1      34.942 -19.906 -22.044  0.00  0.00    -0.082 Cl
ATOM     20  C   UNL     1      35.287 -22.147 -18.137  0.00  0.00    +0.037 C 
ATOM     21  C   UNL     1      36.431 -21.648 -18.765  0.00  0.00    +0.004 C 
ATOM     22  C   UNL     1      34.035 -21.948 -18.726  0.00  0.00    +0.004 C 
ATOM     23  C   UNL     1      36.326 -20.956 -19.973  0.00  0.00    +0.011 C 
ATOM     24  C   UNL     1      33.929 -21.256 -19.933  0.00  0.00    +0.011 C 
ATOM     25  C   UNL     1      35.073 -20.760 -20.556  0.00  0.00    +0.058 C 
ENDBRANCH   4  20
TORSDOF 2
ENDMDL
MODEL 4
REMARK VINA RESULT:     -10.6      3.040      6.533
REMARK  Name = 2765355
REMARK  2 active torsions:
REMARK  status: ('A' for Active; 'I' for Inactive)
REMARK    1  A    between atoms: C_4  and  C_20
REMARK    2  A    between atoms: C_6  and  C_13
REMARK                            x       y       z     vdW  Elec       q    Type
REMARK                         _______ _______ _______ _____ _____    ______ ____
ROOT
ATOM      1  O   UNL     1      34.381 -23.750 -16.371  0.00  0.00    -0.353 OA
ATOM      2  N   UNL     1      33.912 -24.450 -15.268  0.00  0.00    -0.077 NA
ATOM      3  C   UNL     1      32.211 -23.372 -16.302  0.00  0.00    +0.058 A 
ATOM      4  C   UNL     1      33.357 -23.105 -16.988  0.00  0.00    +0.177 A 
ATOM      5  C   UNL     1      32.586 -24.232 -15.210  0.00  0.00    +0.123 A 
ATOM      6  C   UNL     1      29.994 -23.381 -15.685  0.00  0.00    +0.031 C 
ATOM      7  C   UNL     1      30.943 -22.901 -16.610  0.00  0.00    +0.007 C 
ATOM      8  C   UNL     1      31.621 -24.696 -14.299  0.00  0.00    +0.023 C 
ATOM      9  C   UNL     1      30.315 -24.236 -14.582  0.00  0.00    +0.004 C 
ENDROOT
BRANCH   6  13
ATOM     10  N   UNL     1      28.207 -22.883 -17.139  0.00  0.00    -0.338 NA
ATOM     11  N   UNL     1      26.031 -22.247 -16.322  0.00  0.00    -0.170 NA
ATOM     12  N   UNL     1      26.457 -22.394 -18.625  0.00  0.00    -0.293 N 
ATOM     13  C   UNL     1      28.610 -22.985 -15.858  0.00  0.00    +0.146 C 
ATOM     14  C   UNL     1      27.803 -22.741 -14.770  0.00  0.00    +0.055 C 
ATOM     15  C   UNL     1      26.507 -22.371 -15.066  0.00  0.00    +0.114 C 
ATOM     16  C   UNL     1      26.922 -22.514 -17.296  0.00  0.00    +0.141 C 
ATOM     17  H   UNL     1      27.066 -22.578 -19.377  0.00  0.00    +0.155 HD
ATOM     18  H   UNL     1      25.526 -22.128 -18.798  0.00  0.00    +0.155 HD
ENDBRANCH   6  13
BRANCH   4  20
ATOM     19 CL   UNL     1      34.859 -19.943 -21.803  0.00  0.00    -0.082 Cl
ATOM     20  C   UNL     1      33.719 -22.341 -18.148  0.00  0.00    +0.037 C 
ATOM     21  C   UNL     1      32.738 -21.667 -18.882  0.00  0.00    +0.004 C 
ATOM     22  C   UNL     1      35.055 -22.268 -18.554  0.00  0.00    +0.004 C 
ATOM     23  C   UNL     1      33.090 -20.925 -20.010  0.00  0.00    +0.011 C 
ATOM     24  C   UNL     1      35.406 -21.527 -19.682  0.00  0.00    +0.011 C 
ATOM     25  C   UNL     1      34.425 -20.856 -20.411  0.00  0.00    +0.058 C 
ENDBRANCH   4  20
TORSDOF 2
ENDMDL
MODEL 5
REMARK VINA RESULT:     -10.5      1.567      2.290
REMARK  Name = 2765355
REMARK  2 active torsions:
REMARK  status: ('A' for Active; 'I' for Inactive)
REMARK    1  A    between atoms: C_4  and  C_20
REMARK    2  A    between atoms: C_6  and  C_13
REMARK                            x       y       z     vdW  Elec       q    Type
REMARK                         _______ _______ _______ _____ _____    ______ ____
ROOT
ATOM      1  O   UNL     1      31.168 -23.123 -17.150  0.00  0.00    -0.353 OA
ATOM      2  N   UNL     1      30.500 -23.764 -16.116  0.00  0.00    -0.077 NA
ATOM      3  C   UNL     1      32.727 -23.730 -15.715  0.00  0.00    +0.058 A 
ATOM      4  C   UNL     1      32.504 -23.105 -16.904  0.00  0.00    +0.177 A 
ATOM      5  C   UNL     1      31.436 -24.142 -15.228  0.00  0.00    +0.123 A 
ATOM      6  C   UNL     1      33.812 -24.604 -13.884  0.00  0.00    +0.031 C 
ATOM      7  C   UNL     1      33.959 -23.920 -15.107  0.00  0.00    +0.007 C 
ATOM      8  C   UNL     1      31.316 -24.824 -14.005  0.00  0.00    +0.023 C 
ATOM      9  C   UNL     1      32.553 -25.036 -13.356  0.00  0.00    +0.004 C 
ENDROOT
BRANCH   6  13
ATOM     10  N   UNL     1      34.948 -24.514 -11.820  0.00  0.00    -0.338 NA
ATOM     11  N   UNL     1      37.187 -25.366 -11.553  0.00  0.00    -0.170 NA
ATOM     12  N   UNL     1      36.040 -24.402  -9.746  0.00  0.00    -0.293 N 
ATOM     13  C   UNL     1      35.007 -24.888 -13.112  0.00  0.00    +0.146 C 
ATOM     14  C   UNL     1      36.096 -25.496 -13.694  0.00  0.00    +0.055 C 
ATOM     15  C   UNL     1      37.171 -25.713 -12.856  0.00  0.00    +0.114 C 
ATOM     16  C   UNL     1      36.059 -24.779 -11.107  0.00  0.00    +0.141 C 
ATOM     17  H   UNL     1      35.241 -23.969  -9.366  0.00  0.00    +0.155 HD
ATOM     18  H   UNL     1      36.825 -24.572  -9.178  0.00  0.00    +0.155 HD
ENDBRANCH   6  13
BRANCH   4  20
ATOM     19 CL   UNL     1      35.836 -20.459 -21.068  0.00  0.00    -0.082 Cl
ATOM     20  C   UNL     1      33.307 -22.466 -17.907  0.00  0.00    +0.037 C 
ATOM     21  C   UNL     1      32.710 -21.651 -18.874  0.00  0.00    +0.004 C 
ATOM     22  C   UNL     1      34.692 -22.655 -17.927  0.00  0.00    +0.004 C 
ATOM     23  C   UNL     1      33.491 -21.030 -19.850  0.00  0.00    +0.011 C 
ATOM     24  C   UNL     1      35.473 -22.035 -18.902  0.00  0.00    +0.011 C 
ATOM     25  C   UNL     1      34.873 -21.223 -19.864  0.00  0.00    +0.058 C 
ENDBRANCH   4  20
TORSDOF 2
ENDMDL
MODEL 6
REMARK VINA RESULT:     -10.4      8.097     11.541
REMARK  Name = 2765355
REMARK  2 active torsions:
REMARK  status: ('A' for Active; 'I' for Inactive)
REMARK    1  A    between atoms: C_4  and  C_20
REMARK    2  A    between atoms: C_6  and  C_13
REMARK                            x       y       z     vdW  Elec       q    Type
REMARK                         _______ _______ _______ _____ _____    ______ ____
ROOT
ATOM      1  O   UNL     1      35.189 -17.798 -24.631  0.00  0.00    -0.353 OA
ATOM      2  N   UNL     1      34.756 -16.821 -25.518  0.00  0.00    -0.077 NA
ATOM      3  C   UNL     1      34.267 -16.229 -23.388  0.00  0.00    +0.058 A 
ATOM      4  C   UNL     1      34.893 -17.438 -23.356  0.00  0.00    +0.177 A 
ATOM      5  C   UNL     1      34.190 -15.852 -24.776  0.00  0.00    +0.123 A 
ATOM      6  C   UNL     1      33.210 -14.304 -22.701  0.00  0.00    +0.031 C 
ATOM      7  C   UNL     1      33.804 -15.515 -22.293  0.00  0.00    +0.007 C 
ATOM      8  C   UNL     1      33.592 -14.639 -25.158  0.00  0.00    +0.023 C 
ATOM      9  C   UNL     1      33.107 -13.884 -24.065  0.00  0.00    +0.004 C 
ENDROOT
BRANCH   6  13
ATOM     10  N   UNL     1      32.383 -12.182 -22.093  0.00  0.00    -0.338 NA
ATOM     11  N   UNL     1      31.649 -11.687 -19.852  0.00  0.00    -0.170 NA
ATOM     12  N   UNL     1      31.568 -10.053 -21.535  0.00  0.00    -0.293 N 
ATOM     13  C   UNL     1      32.670 -13.430 -21.678  0.00  0.00    +0.146 C 
ATOM     14  C   UNL     1      32.480 -13.881 -20.391  0.00  0.00    +0.055 C 
ATOM     15  C   UNL     1      31.960 -12.954 -19.510  0.00  0.00    +0.114 C 
ATOM     16  C   UNL     1      31.882 -11.373 -21.140  0.00  0.00    +0.141 C 
ATOM     17  H   UNL     1      31.718  -9.769 -22.466  0.00  0.00    +0.155 HD
ATOM     18  H   UNL     1      31.198  -9.419 -20.879  0.00  0.00    +0.155 HD
ENDBRANCH   6  13
BRANCH   4  20
ATOM     19 CL   UNL     1      36.549 -21.320 -19.157  0.00  0.00    -0.082 Cl
ATOM     20  C   UNL     1      35.293 -18.373 -22.343  0.00  0.00    +0.037 C 
ATOM     21  C   UNL     1      36.612 -18.390 -21.880  0.00  0.00    +0.004 C 
ATOM     22  C   UNL     1      34.365 -19.275 -21.812  0.00  0.00    +0.004 C 
ATOM     23  C   UNL     1      37.000 -19.299 -20.896  0.00  0.00    +0.011 C 
ATOM     24  C   UNL     1      34.753 -20.184 -20.828  0.00  0.00    +0.011 C 
ATOM     25  C   UNL     1      36.070 -20.197 -20.370  0.00  0.00    +0.058 C 
ENDBRANCH   4  20
TORSDOF 2
ENDMDL
MODEL 7
REMARK VINA RESULT:     -10.3      1.219      2.068
REMARK  Name = 2765355
REMARK  2 active torsions:
REMARK  status: ('A' for Active; 'I' for Inactive)
REMARK    1  A    between atoms: C_4  and  C_20
REMARK    2  A    between atoms: C_6  and  C_13
REMARK                            x       y       z     vdW  Elec       q    Type
REMARK                         _______ _______ _______ _____ _____    ______ ____
ROOT
ATOM      1  O   UNL     1      32.595 -22.508 -18.481  0.00  0.00    -0.353 OA
ATOM      2  N   UNL     1      31.934 -23.276 -17.533  0.00  0.00    -0.077 NA
ATOM      3  C   UNL     1      34.115 -23.041 -16.976  0.00  0.00    +0.058 A 
ATOM      4  C   UNL     1      33.904 -22.370 -18.142  0.00  0.00    +0.177 A 
ATOM      5  C   UNL     1      32.847 -23.611 -16.603  0.00  0.00    +0.123 A 
ATOM      6  C   UNL     1      35.168 -23.912 -15.125  0.00  0.00    +0.031 C 
ATOM      7  C   UNL     1      35.320 -23.143 -16.296  0.00  0.00    +0.007 C 
ATOM      8  C   UNL     1      32.721 -24.376 -15.431  0.00  0.00    +0.023 C 
ATOM      9  C   UNL     1      33.931 -24.501 -14.711  0.00  0.00    +0.004 C 
ENDROOT
BRANCH   6  13
ATOM     10  N   UNL     1      36.284 -23.519 -13.086  0.00  0.00    -0.338 NA
ATOM     11  N   UNL     1      38.464 -24.434 -12.622  0.00  0.00    -0.170 NA
ATOM     12  N   UNL     1      37.357 -23.098 -11.042  0.00  0.00    -0.293 N 
ATOM     13  C   UNL     1      36.334 -24.121 -14.289  0.00  0.00    +0.146 C 
ATOM     14  C   UNL     1      37.392 -24.885 -14.729  0.00  0.00    +0.055 C 
ATOM     15  C   UNL     1      38.442 -25.008 -13.843  0.00  0.00    +0.114 C 
ATOM     16  C   UNL     1      37.369 -23.714 -12.313  0.00  0.00    +0.141 C 
ATOM     17  H   UNL     1      36.580 -22.560 -10.763  0.00  0.00    +0.155 HD
ATOM     18  H   UNL     1      38.123 -23.208 -10.435  0.00  0.00    +0.155 HD
ENDBRANCH   6  13
BRANCH   4  20
ATOM     19 CL   UNL     1      37.196 -19.149 -21.914  0.00  0.00    -0.082 Cl
ATOM     20  C   UNL     1      34.697 -21.593 -19.051  0.00  0.00    +0.037 C 
ATOM     21  C   UNL     1      34.080 -20.769 -19.997  0.00  0.00    +0.004 C 
ATOM     22  C   UNL     1      36.093 -21.655 -18.998  0.00  0.00    +0.004 C 
ATOM     23  C   UNL     1      34.852 -20.013 -20.881  0.00  0.00    +0.011 C 
ATOM     24  C   UNL     1      36.864 -20.900 -19.882  0.00  0.00    +0.011 C 
ATOM     25  C   UNL     1      36.244 -20.080 -20.824  0.00  0.00    +0.058 C 
ENDBRANCH   4  20
TORSDOF 2
ENDMDL
MODEL 8
REMARK VINA RESULT:     -10.3      7.126     10.250
REMARK  Name = 2765355
REMARK  2 active torsions:
REMARK  status: ('A' for Active; 'I' for Inactive)
REMARK    1  A    between atoms: C_4  and  C_20
REMARK    2  A    between atoms: C_6  and  C_13
REMARK                            x       y       z     vdW  Elec       q    Type
REMARK                         _______ _______ _______ _____ _____    ______ ____
ROOT
ATOM      1  O   UNL     1      32.947 -13.727 -24.190  0.00  0.00    -0.353 OA
ATOM      2  N   UNL     1      33.484 -14.533 -25.185  0.00  0.00    -0.077 NA
ATOM      3  C   UNL     1      33.855 -15.443 -23.146  0.00  0.00    +0.058 A 
ATOM      4  C   UNL     1      33.172 -14.278 -22.969  0.00  0.00    +0.177 A 
ATOM      5  C   UNL     1      34.043 -15.588 -24.566  0.00  0.00    +0.123 A 
ATOM      6  C   UNL     1      34.951 -17.415 -22.695  0.00  0.00    +0.031 C 
ATOM      7  C   UNL     1      34.275 -16.307 -22.146  0.00  0.00    +0.007 C 
ATOM      8  C   UNL     1      34.722 -16.702 -25.089  0.00  0.00    +0.023 C 
ATOM      9  C   UNL     1      35.165 -17.606 -24.097  0.00  0.00    +0.004 C 
ENDROOT
BRANCH   6  13
ATOM     10  N   UNL     1      34.531 -19.261 -21.291  0.00  0.00    -0.338 NA
ATOM     11  N   UNL     1      36.288 -20.364 -20.065  0.00  0.00    -0.170 NA
ATOM     12  N   UNL     1      34.064 -21.096 -19.903  0.00  0.00    -0.293 N 
ATOM     13  C   UNL     1      35.461 -18.423 -21.785  0.00  0.00    +0.146 C 
ATOM     14  C   UNL     1      36.801 -18.485 -21.478  0.00  0.00    +0.055 C 
ATOM     15  C   UNL     1      37.162 -19.488 -20.601  0.00  0.00    +0.114 C 
ATOM     16  C   UNL     1      35.008 -20.196 -20.447  0.00  0.00    +0.141 C 
ATOM     17  H   UNL     1      33.113 -21.020 -20.148  0.00  0.00    +0.155 HD
ATOM     18  H   UNL     1      34.358 -21.799 -19.281  0.00  0.00    +0.155 HD
ENDBRANCH   6  13
BRANCH   4  20
ATOM     19 CL   UNL     1      31.052 -11.188 -18.343  0.00  0.00    -0.082 Cl
ATOM     20  C   UNL     1      32.662 -13.533 -21.853  0.00  0.00    +0.037 C 
ATOM     21  C   UNL     1      32.558 -14.132 -20.594  0.00  0.00    +0.004 C 
ATOM     22  C   UNL     1      32.263 -12.203 -22.018  0.00  0.00    +0.004 C 
ATOM     23  C   UNL     1      32.062 -13.408 -19.509  0.00  0.00    +0.011 C 
ATOM     24  C   UNL     1      31.767 -11.479 -20.934  0.00  0.00    +0.011 C 
ATOM     25  C   UNL     1      31.665 -12.081 -19.680  0.00  0.00    +0.058 C 
ENDBRANCH   4  20
TORSDOF 2
ENDMDL
MODEL 9
REMARK VINA RESULT:     -10.0      2.089      4.872
REMARK  Name = 2765355
REMARK  2 active torsions:
REMARK  status: ('A' for Active; 'I' for Inactive)
REMARK    1  A    between atoms: C_4  and  C_20
REMARK    2  A    between atoms: C_6  and  C_13
REMARK                            x       y       z     vdW  Elec       q    Type
REMARK                         _______ _______ _______ _____ _____    ______ ____
ROOT
ATOM      1  O   UNL     1      37.516 -22.403 -17.169  0.00  0.00    -0.353 OA
ATOM      2  N   UNL     1      37.677 -23.093 -15.975  0.00  0.00    -0.077 NA
ATOM      3  C   UNL     1      35.481 -22.920 -16.496  0.00  0.00    +0.058 A 
ATOM      4  C   UNL     1      36.196 -22.303 -17.477  0.00  0.00    +0.177 A 
ATOM      5  C   UNL     1      36.444 -23.418 -15.549  0.00  0.00    +0.123 A 
ATOM      6  C   UNL     1      33.707 -23.741 -15.283  0.00  0.00    +0.031 C 
ATOM      7  C   UNL     1      34.100 -23.038 -16.439  0.00  0.00    +0.007 C 
ATOM      8  C   UNL     1      36.026 -24.115 -14.402  0.00  0.00    +0.023 C 
ATOM      9  C   UNL     1      34.622 -24.255 -14.310  0.00  0.00    +0.004 C 
ENDROOT
BRANCH   6  13
ATOM     10  N   UNL     1      31.982 -24.564 -13.903  0.00  0.00    -0.338 NA
ATOM     11  N   UNL     1      29.660 -24.420 -14.531  0.00  0.00    -0.170 NA
ATOM     12  N   UNL     1      30.299 -25.399 -12.496  0.00  0.00    -0.293 N 
ATOM     13  C   UNL     1      32.289 -23.956 -15.064  0.00  0.00    +0.146 C 
ATOM     14  C   UNL     1      31.361 -23.555 -15.998  0.00  0.00    +0.055 C 
ATOM     15  C   UNL     1      30.045 -23.816 -15.674  0.00  0.00    +0.114 C 
ATOM     16  C   UNL     1      30.665 -24.763 -13.703  0.00  0.00    +0.141 C 
ATOM     17  H   UNL     1      30.994 -25.671 -11.853  0.00  0.00    +0.155 HD
ATOM     18  H   UNL     1      29.351 -25.569 -12.298  0.00  0.00    +0.155 HD
ENDBRANCH   6  13
BRANCH   4  20
ATOM     19 CL   UNL     1      34.969 -19.414 -22.536  0.00  0.00    -0.082 Cl
ATOM     20  C   UNL     1      35.900 -21.605 -18.696  0.00  0.00    +0.037 C 
ATOM     21  C   UNL     1      34.606 -21.631 -19.226  0.00  0.00    +0.004 C 
ATOM     22  C   UNL     1      36.903 -20.897 -19.364  0.00  0.00    +0.004 C 
ATOM     23  C   UNL     1      34.318 -20.954 -20.411  0.00  0.00    +0.011 C 
ATOM     24  C   UNL     1      36.616 -20.220 -20.549  0.00  0.00    +0.011 C 
ATOM     25  C   UNL     1      35.324 -20.249 -21.073  0.00  0.00    +0.058 C 
ENDBRANCH   4  20
TORSDOF 2
ENDMDL
