MODEL 1
REMARK VINA RESULT:     -11.3      0.000      0.000
REMARK  Name = 44177328
REMARK  2 active torsions:
REMARK  status: ('A' for Active; 'I' for Inactive)
REMARK    1  A    between atoms: N_1  and  C_15
REMARK    2  A    between atoms: C_6  and  C_23
REMARK                            x       y       z     vdW  Elec       q    Type
REMARK                         _______ _______ _______ _____ _____    ______ ____
ROOT
ATOM      1  N   UNL     1      32.530 -22.908 -17.858  0.00  0.00    -0.286 N 
ATOM      2  N   UNL     1      33.517 -23.809 -15.904  0.00  0.00    -0.386 NA
ATOM      3  N   UNL     1      30.991 -23.881 -14.687  0.00  0.00    -0.246 NA
ATOM      4  N   UNL     1      30.031 -22.978 -16.660  0.00  0.00    -0.340 N 
ATOM      5  C   UNL     1      32.405 -23.392 -16.542  0.00  0.00    +0.214 C 
ATOM      6  C   UNL     1      33.343 -24.263 -14.647  0.00  0.00    +0.135 C 
ATOM      7  C   UNL     1      31.164 -23.427 -15.945  0.00  0.00    +0.166 C 
ATOM      8  C   UNL     1      32.102 -24.297 -14.049  0.00  0.00    +0.185 C 
ATOM      9  H   UNL     1      31.731 -23.059 -18.412  0.00  0.00    +0.155 HD
ATOM     10  H   UNL     1      29.141 -23.001 -16.238  0.00  0.00    +0.144 HD
ATOM     11  H   UNL     1      30.131 -22.642 -17.580  0.00  0.00    +0.144 HD
ENDROOT
BRANCH   1  15
ATOM     12  N   UNL     1      36.459 -20.188 -20.645  0.00  0.00    -0.312 N 
ATOM     13  C   UNL     1      34.323 -20.613 -20.163  0.00  0.00    +0.016 C 
ATOM     14  C   UNL     1      35.640 -20.966 -19.858  0.00  0.00    +0.048 C 
ATOM     15  C   UNL     1      33.578 -22.248 -18.538  0.00  0.00    +0.050 C 
ATOM     16  C   UNL     1      33.272 -21.268 -19.489  0.00  0.00    +0.016 C 
ATOM     17  C   UNL     1      35.959 -21.942 -18.909  0.00  0.00    +0.016 C 
ATOM     18  C   UNL     1      34.901 -22.579 -18.254  0.00  0.00    +0.016 C 
ATOM     19  C   UNL     1      34.381 -19.599 -21.159  0.00  0.00    +0.017 C 
ATOM     20  C   UNL     1      35.708 -19.360 -21.435  0.00  0.00    +0.062 C 
ATOM     21  H   UNL     1      37.443 -20.224 -20.642  0.00  0.00    +0.152 HD
ENDBRANCH   1  15
BRANCH   6  23
ATOM     22  N   UNL     1      36.842 -25.562 -12.643  0.00  0.00    -0.242 NA
ATOM     23  C   UNL     1      34.533 -24.704 -13.966  0.00  0.00    +0.031 C 
ATOM     24  C   UNL     1      35.604 -25.216 -14.691  0.00  0.00    +0.023 C 
ATOM     25  C   UNL     1      34.616 -24.620 -12.580  0.00  0.00    +0.023 C 
ATOM     26  C   UNL     1      36.725 -25.628 -13.989  0.00  0.00    +0.099 C 
ATOM     27  C   UNL     1      35.782 -25.058 -11.972  0.00  0.00    +0.099 C 
ENDBRANCH   6  23
TORSDOF 2
ENDMDL
MODEL 2
REMARK VINA RESULT:     -10.5      6.267     10.299
REMARK  Name = 44177328
REMARK  2 active torsions:
REMARK  status: ('A' for Active; 'I' for Inactive)
REMARK    1  A    between atoms: N_1  and  C_15
REMARK    2  A    between atoms: C_6  and  C_23
REMARK                            x       y       z     vdW  Elec       q    Type
REMARK                         _______ _______ _______ _____ _____    ______ ____
ROOT
ATOM      1  N   UNL     1      33.623 -14.289 -23.428  0.00  0.00    -0.286 N 
ATOM      2  N   UNL     1      34.501 -16.400 -22.816  0.00  0.00    -0.386 NA
ATOM      3  N   UNL     1      34.389 -17.201 -25.502  0.00  0.00    -0.246 NA
ATOM      4  N   UNL     1      33.512 -15.075 -26.084  0.00  0.00    -0.340 N 
ATOM      5  C   UNL     1      34.049 -15.581 -23.786  0.00  0.00    +0.214 C 
ATOM      6  C   UNL     1      34.897 -17.626 -23.212  0.00  0.00    +0.135 C 
ATOM      7  C   UNL     1      33.994 -15.974 -25.106  0.00  0.00    +0.166 C 
ATOM      8  C   UNL     1      34.841 -18.019 -24.531  0.00  0.00    +0.185 C 
ATOM      9  H   UNL     1      33.752 -13.619 -24.137  0.00  0.00    +0.155 HD
ATOM     10  H   UNL     1      33.470 -15.351 -27.029  0.00  0.00    +0.144 HD
ATOM     11  H   UNL     1      33.217 -14.174 -25.821  0.00  0.00    +0.144 HD
ENDROOT
BRANCH   1  15
ATOM     12  N   UNL     1      31.339 -12.016 -18.931  0.00  0.00    -0.312 N 
ATOM     13  C   UNL     1      32.048 -11.916 -21.044  0.00  0.00    +0.016 C 
ATOM     14  C   UNL     1      31.922 -12.757 -19.935  0.00  0.00    +0.048 C 
ATOM     15  C   UNL     1      33.047 -13.765 -22.249  0.00  0.00    +0.050 C 
ATOM     16  C   UNL     1      32.622 -12.432 -22.223  0.00  0.00    +0.016 C 
ATOM     17  C   UNL     1      32.341 -14.091 -19.947  0.00  0.00    +0.016 C 
ATOM     18  C   UNL     1      32.909 -14.580 -21.128  0.00  0.00    +0.016 C 
ATOM     19  C   UNL     1      31.522 -10.648 -20.669  0.00  0.00    +0.017 C 
ATOM     20  C   UNL     1      31.094 -10.741 -19.365  0.00  0.00    +0.062 C 
ATOM     21  H   UNL     1      31.130 -12.355 -18.030  0.00  0.00    +0.152 HD
ENDBRANCH   1  15
BRANCH   6  23
ATOM     22  N   UNL     1      36.305 -20.198 -20.154  0.00  0.00    -0.242 NA
ATOM     23  C   UNL     1      35.376 -18.500 -22.172  0.00  0.00    +0.031 C 
ATOM     24  C   UNL     1      36.691 -18.405 -21.730  0.00  0.00    +0.023 C 
ATOM     25  C   UNL     1      34.524 -19.443 -21.605  0.00  0.00    +0.023 C 
ATOM     26  C   UNL     1      37.103 -19.269 -20.729  0.00  0.00    +0.099 C 
ATOM     27  C   UNL     1      35.033 -20.261 -20.609  0.00  0.00    +0.099 C 
ENDBRANCH   6  23
TORSDOF 2
ENDMDL
MODEL 3
REMARK VINA RESULT:     -10.0      1.797      6.767
REMARK  Name = 44177328
REMARK  2 active torsions:
REMARK  status: ('A' for Active; 'I' for Inactive)
REMARK    1  A    between atoms: N_1  and  C_15
REMARK    2  A    between atoms: C_6  and  C_23
REMARK                            x       y       z     vdW  Elec       q    Type
REMARK                         _______ _______ _______ _____ _____    ______ ____
ROOT
ATOM      1  N   UNL     1      34.083 -24.780 -13.958  0.00  0.00    -0.286 N 
ATOM      2  N   UNL     1      35.000 -23.531 -15.748  0.00  0.00    -0.386 NA
ATOM      3  N   UNL     1      37.351 -23.169 -14.263  0.00  0.00    -0.246 NA
ATOM      4  N   UNL     1      36.406 -24.426 -12.487  0.00  0.00    -0.340 N 
ATOM      5  C   UNL     1      35.147 -24.044 -14.510  0.00  0.00    +0.214 C 
ATOM      6  C   UNL     1      36.047 -22.835 -16.231  0.00  0.00    +0.135 C 
ATOM      7  C   UNL     1      36.302 -23.866 -13.781  0.00  0.00    +0.166 C 
ATOM      8  C   UNL     1      37.202 -22.657 -15.500  0.00  0.00    +0.185 C 
ATOM      9  H   UNL     1      34.371 -25.482 -13.331  0.00  0.00    +0.155 HD
ATOM     10  H   UNL     1      37.229 -24.302 -11.961  0.00  0.00    +0.144 HD
ATOM     11  H   UNL     1      35.654 -24.939 -12.111  0.00  0.00    +0.144 HD
ENDROOT
BRANCH   1  15
ATOM     12  N   UNL     1      28.635 -24.335 -14.814  0.00  0.00    -0.312 N 
ATOM     13  C   UNL     1      30.751 -23.788 -15.264  0.00  0.00    +0.016 C 
ATOM     14  C   UNL     1      29.940 -24.585 -14.452  0.00  0.00    +0.048 C 
ATOM     15  C   UNL     1      32.682 -24.710 -14.129  0.00  0.00    +0.050 C 
ATOM     16  C   UNL     1      32.149 -23.853 -15.098  0.00  0.00    +0.016 C 
ATOM     17  C   UNL     1      30.460 -25.447 -13.481  0.00  0.00    +0.016 C 
ATOM     18  C   UNL     1      31.850 -25.494 -13.334  0.00  0.00    +0.016 C 
ATOM     19  C   UNL     1      29.887 -23.052 -16.123  0.00  0.00    +0.017 C 
ATOM     20  C   UNL     1      28.593 -23.410 -15.822  0.00  0.00    +0.062 C 
ATOM     21  H   UNL     1      27.847 -24.760 -14.405  0.00  0.00    +0.152 HD
ENDBRANCH   1  15
BRANCH   6  23
ATOM     22  N   UNL     1      35.571 -21.220 -20.117  0.00  0.00    -0.242 NA
ATOM     23  C   UNL     1      35.885 -22.286 -17.552  0.00  0.00    +0.031 C 
ATOM     24  C   UNL     1      34.666 -22.402 -18.212  0.00  0.00    +0.023 C 
ATOM     25  C   UNL     1      36.947 -21.636 -18.173  0.00  0.00    +0.023 C 
ATOM     26  C   UNL     1      34.562 -21.857 -19.481  0.00  0.00    +0.099 C 
ATOM     27  C   UNL     1      36.740 -21.125 -19.445  0.00  0.00    +0.099 C 
ENDBRANCH   6  23
TORSDOF 2
ENDMDL
MODEL 4
REMARK VINA RESULT:      -9.9      1.783      6.640
REMARK  Name = 44177328
REMARK  2 active torsions:
REMARK  status: ('A' for Active; 'I' for Inactive)
REMARK    1  A    between atoms: N_1  and  C_15
REMARK    2  A    between atoms: C_6  and  C_23
REMARK                            x       y       z     vdW  Elec       q    Type
REMARK                         _______ _______ _______ _____ _____    ______ ____
ROOT
ATOM      1  N   UNL     1      34.761 -24.816 -13.344  0.00  0.00    -0.286 N 
ATOM      2  N   UNL     1      34.525 -23.768 -15.453  0.00  0.00    -0.386 NA
ATOM      3  N   UNL     1      31.759 -24.216 -15.342  0.00  0.00    -0.246 NA
ATOM      4  N   UNL     1      32.027 -25.260 -13.229  0.00  0.00    -0.340 N 
ATOM      5  C   UNL     1      33.944 -24.387 -14.406  0.00  0.00    +0.214 C 
ATOM      6  C   UNL     1      33.700 -23.377 -16.443  0.00  0.00    +0.135 C 
ATOM      7  C   UNL     1      32.586 -24.606 -14.351  0.00  0.00    +0.166 C 
ATOM      8  C   UNL     1      32.341 -23.597 -16.388  0.00  0.00    +0.185 C 
ATOM      9  H   UNL     1      34.307 -24.817 -12.470  0.00  0.00    +0.155 HD
ATOM     10  H   UNL     1      31.056 -25.420 -13.184  0.00  0.00    +0.144 HD
ATOM     11  H   UNL     1      32.609 -25.555 -12.492  0.00  0.00    +0.144 HD
ENDROOT
BRANCH   1  15
ATOM     12  N   UNL     1      40.067 -26.384 -13.340  0.00  0.00    -0.312 N 
ATOM     13  C   UNL     1      38.315 -25.364 -14.273  0.00  0.00    +0.016 C 
ATOM     14  C   UNL     1      38.734 -26.091 -13.155  0.00  0.00    +0.048 C 
ATOM     15  C   UNL     1      36.106 -25.245 -13.285  0.00  0.00    +0.050 C 
ATOM     16  C   UNL     1      36.975 -24.934 -14.337  0.00  0.00    +0.016 C 
ATOM     17  C   UNL     1      37.877 -26.408 -12.097  0.00  0.00    +0.016 C 
ATOM     18  C   UNL     1      36.552 -25.971 -12.183  0.00  0.00    +0.016 C 
ATOM     19  C   UNL     1      39.442 -25.233 -15.132  0.00  0.00    +0.017 C 
ATOM     20  C   UNL     1      40.503 -25.870 -14.532  0.00  0.00    +0.062 C 
ATOM     21  H   UNL     1      40.624 -26.892 -12.707  0.00  0.00    +0.152 HD
ENDBRANCH   1  15
BRANCH   6  23
ATOM     22  N   UNL     1      35.534 -21.442 -19.735  0.00  0.00    -0.242 NA
ATOM     23  C   UNL     1      34.324 -22.719 -17.562  0.00  0.00    +0.031 C 
ATOM     24  C   UNL     1      35.703 -22.540 -17.587  0.00  0.00    +0.023 C 
ATOM     25  C   UNL     1      33.550 -22.261 -18.623  0.00  0.00    +0.023 C 
ATOM     26  C   UNL     1      36.254 -21.902 -18.686  0.00  0.00    +0.099 C 
ATOM     27  C   UNL     1      34.197 -21.634 -19.676  0.00  0.00    +0.099 C 
ENDBRANCH   6  23
TORSDOF 2
ENDMDL
MODEL 5
REMARK VINA RESULT:      -9.9      1.561      3.999
REMARK  Name = 44177328
REMARK  2 active torsions:
REMARK  status: ('A' for Active; 'I' for Inactive)
REMARK    1  A    between atoms: N_1  and  C_15
REMARK    2  A    between atoms: C_6  and  C_23
REMARK                            x       y       z     vdW  Elec       q    Type
REMARK                         _______ _______ _______ _____ _____    ______ ____
ROOT
ATOM      1  N   UNL     1      36.656 -22.619 -16.684  0.00  0.00    -0.286 N 
ATOM      2  N   UNL     1      34.820 -23.455 -15.444  0.00  0.00    -0.386 NA
ATOM      3  N   UNL     1      36.551 -25.208 -14.103  0.00  0.00    -0.246 NA
ATOM      4  N   UNL     1      38.371 -24.349 -15.359  0.00  0.00    -0.340 N 
ATOM      5  C   UNL     1      36.142 -23.492 -15.706  0.00  0.00    +0.214 C 
ATOM      6  C   UNL     1      34.379 -24.310 -14.501  0.00  0.00    +0.135 C 
ATOM      7  C   UNL     1      36.993 -24.352 -15.047  0.00  0.00    +0.166 C 
ATOM      8  C   UNL     1      35.230 -25.171 -13.842  0.00  0.00    +0.185 C 
ATOM      9  H   UNL     1      37.587 -22.347 -16.521  0.00  0.00    +0.155 HD
ATOM     10  H   UNL     1      38.983 -24.962 -14.892  0.00  0.00    +0.144 HD
ATOM     11  H   UNL     1      38.718 -23.734 -16.045  0.00  0.00    +0.144 HD
ENDROOT
BRANCH   1  15
ATOM     12  N   UNL     1      34.681 -20.300 -21.302  0.00  0.00    -0.312 N 
ATOM     13  C   UNL     1      36.296 -20.627 -19.797  0.00  0.00    +0.016 C 
ATOM     14  C   UNL     1      34.985 -20.970 -20.138  0.00  0.00    +0.048 C 
ATOM     15  C   UNL     1      36.095 -22.058 -17.853  0.00  0.00    +0.050 C 
ATOM     16  C   UNL     1      36.861 -21.183 -18.632  0.00  0.00    +0.016 C 
ATOM     17  C   UNL     1      34.209 -21.844 -19.369  0.00  0.00    +0.016 C 
ATOM     18  C   UNL     1      34.790 -22.382 -18.217  0.00  0.00    +0.016 C 
ATOM     19  C   UNL     1      36.767 -19.730 -20.797  0.00  0.00    +0.017 C 
ATOM     20  C   UNL     1      35.751 -19.548 -21.707  0.00  0.00    +0.062 C 
ATOM     21  H   UNL     1      33.819 -20.353 -21.773  0.00  0.00    +0.152 HD
ENDBRANCH   1  15
BRANCH   6  23
ATOM     22  N   UNL     1      30.222 -24.196 -13.694  0.00  0.00    -0.242 NA
ATOM     23  C   UNL     1      32.965 -24.271 -14.226  0.00  0.00    +0.031 C 
ATOM     24  C   UNL     1      32.380 -25.256 -13.438  0.00  0.00    +0.023 C 
ATOM     25  C   UNL     1      32.181 -23.248 -14.748  0.00  0.00    +0.023 C 
ATOM     26  C   UNL     1      31.017 -25.174 -13.204  0.00  0.00    +0.099 C 
ATOM     27  C   UNL     1      30.826 -23.256 -14.455  0.00  0.00    +0.099 C 
ENDBRANCH   6  23
TORSDOF 2
ENDMDL
MODEL 6
REMARK VINA RESULT:      -9.8      7.875     12.043
REMARK  Name = 44177328
REMARK  2 active torsions:
REMARK  status: ('A' for Active; 'I' for Inactive)
REMARK    1  A    between atoms: N_1  and  C_15
REMARK    2  A    between atoms: C_6  and  C_23
REMARK                            x       y       z     vdW  Elec       q    Type
REMARK                         _______ _______ _______ _____ _____    ______ ____
ROOT
ATOM      1  N   UNL     1      33.379 -12.269 -24.303  0.00  0.00    -0.286 N 
ATOM      2  N   UNL     1      34.055 -14.434 -23.625  0.00  0.00    -0.386 NA
ATOM      3  N   UNL     1      33.761 -15.330 -26.267  0.00  0.00    -0.246 NA
ATOM      4  N   UNL     1      33.088 -13.149 -26.916  0.00  0.00    -0.340 N 
ATOM      5  C   UNL     1      33.654 -13.613 -24.616  0.00  0.00    +0.214 C 
ATOM      6  C   UNL     1      34.306 -15.710 -23.977  0.00  0.00    +0.135 C 
ATOM      7  C   UNL     1      33.510 -14.052 -25.914  0.00  0.00    +0.166 C 
ATOM      8  C   UNL     1      34.161 -16.150 -25.275  0.00  0.00    +0.185 C 
ATOM      9  H   UNL     1      33.550 -11.646 -25.046  0.00  0.00    +0.155 HD
ATOM     10  H   UNL     1      32.982 -13.458 -27.845  0.00  0.00    +0.144 HD
ATOM     11  H   UNL     1      32.898 -12.211 -26.684  0.00  0.00    +0.144 HD
ENDROOT
BRANCH   1  15
ATOM     12  N   UNL     1      31.484 -10.031 -19.611  0.00  0.00    -0.312 N 
ATOM     13  C   UNL     1      31.988 -11.787 -20.893  0.00  0.00    +0.016 C 
ATOM     14  C   UNL     1      31.984 -10.390 -20.843  0.00  0.00    +0.048 C 
ATOM     15  C   UNL     1      32.906 -11.639 -23.130  0.00  0.00    +0.050 C 
ATOM     16  C   UNL     1      32.458 -12.422 -22.060  0.00  0.00    +0.016 C 
ATOM     17  C   UNL     1      32.430  -9.596 -21.905  0.00  0.00    +0.016 C 
ATOM     18  C   UNL     1      32.891 -10.248 -23.052  0.00  0.00    +0.016 C 
ATOM     19  C   UNL     1      31.473 -12.251 -19.650  0.00  0.00    +0.017 C 
ATOM     20  C   UNL     1      31.172 -11.148 -18.884  0.00  0.00    +0.062 C 
ATOM     21  H   UNL     1      31.367  -9.105 -19.300  0.00  0.00    +0.152 HD
ENDBRANCH   1  15
BRANCH   6  23
ATOM     22  N   UNL     1      35.555 -18.286 -20.855  0.00  0.00    -0.242 NA
ATOM     23  C   UNL     1      34.731 -16.586 -22.915  0.00  0.00    +0.031 C 
ATOM     24  C   UNL     1      34.584 -16.197 -21.589  0.00  0.00    +0.023 C 
ATOM     25  C   UNL     1      35.288 -17.825 -23.214  0.00  0.00    +0.023 C 
ATOM     26  C   UNL     1      35.008 -17.075 -20.605  0.00  0.00    +0.099 C 
ATOM     27  C   UNL     1      35.681 -18.630 -22.157  0.00  0.00    +0.099 C 
ENDBRANCH   6  23
TORSDOF 2
ENDMDL
MODEL 7
REMARK VINA RESULT:      -9.8      1.796      7.048
REMARK  Name = 44177328
REMARK  2 active torsions:
REMARK  status: ('A' for Active; 'I' for Inactive)
REMARK    1  A    between atoms: N_1  and  C_15
REMARK    2  A    between atoms: C_6  and  C_23
REMARK                            x       y       z     vdW  Elec       q    Type
REMARK                         _______ _______ _______ _____ _____    ______ ____
ROOT
ATOM      1  N   UNL     1      34.497 -24.423 -15.139  0.00  0.00    -0.286 N 
ATOM      2  N   UNL     1      34.817 -23.017 -17.016  0.00  0.00    -0.386 NA
ATOM      3  N   UNL     1      37.503 -22.682 -16.280  0.00  0.00    -0.246 NA
ATOM      4  N   UNL     1      37.151 -24.096 -14.408  0.00  0.00    -0.340 N 
ATOM      5  C   UNL     1      35.337 -23.612 -15.925  0.00  0.00    +0.214 C 
ATOM      6  C   UNL     1      35.663 -22.252 -17.734  0.00  0.00    +0.135 C 
ATOM      7  C   UNL     1      36.656 -23.449 -15.563  0.00  0.00    +0.166 C 
ATOM      8  C   UNL     1      36.982 -22.087 -17.372  0.00  0.00    +0.185 C 
ATOM      9  H   UNL     1      34.968 -25.158 -14.685  0.00  0.00    +0.155 HD
ATOM     10  H   UNL     1      38.093 -23.982 -14.145  0.00  0.00    +0.144 HD
ATOM     11  H   UNL     1      36.554 -24.661 -13.867  0.00  0.00    +0.144 HD
ENDROOT
BRANCH   1  15
ATOM     12  N   UNL     1      29.032 -24.153 -14.322  0.00  0.00    -0.312 N 
ATOM     13  C   UNL     1      30.875 -23.676 -15.485  0.00  0.00    +0.016 C 
ATOM     14  C   UNL     1      30.397 -24.333 -14.349  0.00  0.00    +0.048 C 
ATOM     15  C   UNL     1      33.109 -24.389 -14.876  0.00  0.00    +0.050 C 
ATOM     16  C   UNL     1      32.259 -23.705 -15.752  0.00  0.00    +0.016 C 
ATOM     17  C   UNL     1      31.235 -25.021 -13.466  0.00  0.00    +0.016 C 
ATOM     18  C   UNL     1      32.604 -25.036 -13.751  0.00  0.00    +0.016 C 
ATOM     19  C   UNL     1      29.751 -23.095 -16.136  0.00  0.00    +0.017 C 
ATOM     20  C   UNL     1      28.633 -23.405 -15.397  0.00  0.00    +0.062 C 
ATOM     21  H   UNL     1      28.431 -24.508 -13.628  0.00  0.00    +0.152 HD
ENDBRANCH   1  15
BRANCH   6  23
ATOM     22  N   UNL     1      34.016 -20.377 -21.157  0.00  0.00    -0.242 NA
ATOM     23  C   UNL     1      35.104 -21.614 -18.898  0.00  0.00    +0.031 C 
ATOM     24  C   UNL     1      35.936 -20.993 -19.823  0.00  0.00    +0.023 C 
ATOM     25  C   UNL     1      33.728 -21.618 -19.102  0.00  0.00    +0.023 C 
ATOM     26  C   UNL     1      35.349 -20.394 -20.925  0.00  0.00    +0.099 C 
ATOM     27  C   UNL     1      33.239 -20.991 -20.237  0.00  0.00    +0.099 C 
ENDBRANCH   6  23
TORSDOF 2
ENDMDL
MODEL 8
REMARK VINA RESULT:      -9.8      1.973      4.803
REMARK  Name = 44177328
REMARK  2 active torsions:
REMARK  status: ('A' for Active; 'I' for Inactive)
REMARK    1  A    between atoms: N_1  and  C_15
REMARK    2  A    between atoms: C_6  and  C_23
REMARK                            x       y       z     vdW  Elec       q    Type
REMARK                         _______ _______ _______ _____ _____    ______ ____
ROOT
ATOM      1  N   UNL     1      34.729 -23.418 -14.402  0.00  0.00    -0.286 N 
ATOM      2  N   UNL     1      32.441 -23.840 -14.834  0.00  0.00    -0.386 NA
ATOM      3  N   UNL     1      32.369 -25.584 -12.639  0.00  0.00    -0.246 NA
ATOM      4  N   UNL     1      34.663 -25.141 -12.230  0.00  0.00    -0.340 N 
ATOM      5  C   UNL     1      33.528 -24.075 -14.074  0.00  0.00    +0.214 C 
ATOM      6  C   UNL     1      31.317 -24.493 -14.478  0.00  0.00    +0.135 C 
ATOM      7  C   UNL     1      33.494 -24.931 -12.995  0.00  0.00    +0.166 C 
ATOM      8  C   UNL     1      31.282 -25.350 -13.400  0.00  0.00    +0.185 C 
ATOM      9  H   UNL     1      35.309 -23.242 -13.626  0.00  0.00    +0.155 HD
ATOM     10  H   UNL     1      34.645 -25.752 -11.459  0.00  0.00    +0.144 HD
ATOM     11  H   UNL     1      35.498 -24.676 -12.470  0.00  0.00    +0.144 HD
ENDROOT
BRANCH   1  15
ATOM     12  N   UNL     1      36.601 -21.669 -19.305  0.00  0.00    -0.312 N 
ATOM     13  C   UNL     1      34.987 -22.450 -17.978  0.00  0.00    +0.016 C 
ATOM     14  C   UNL     1      36.330 -22.068 -18.015  0.00  0.00    +0.048 C 
ATOM     15  C   UNL     1      35.266 -22.963 -15.627  0.00  0.00    +0.050 C 
ATOM     16  C   UNL     1      34.446 -22.906 -16.759  0.00  0.00    +0.016 C 
ATOM     17  C   UNL     1      37.161 -22.118 -16.891  0.00  0.00    +0.016 C 
ATOM     18  C   UNL     1      36.602 -22.575 -15.693  0.00  0.00    +0.016 C 
ATOM     19  C   UNL     1      34.464 -22.267 -19.289  0.00  0.00    +0.017 C 
ATOM     20  C   UNL     1      35.480 -21.786 -20.082  0.00  0.00    +0.062 C 
ATOM     21  H   UNL     1      37.476 -21.347 -19.622  0.00  0.00    +0.152 HD
ENDBRANCH   1  15
BRANCH   6  23
ATOM     22  N   UNL     1      27.906 -23.756 -16.881  0.00  0.00    -0.242 NA
ATOM     23  C   UNL     1      30.157 -24.243 -15.295  0.00  0.00    +0.031 C 
ATOM     24  C   UNL     1      29.347 -25.298 -15.700  0.00  0.00    +0.023 C 
ATOM     25  C   UNL     1      29.842 -22.944 -15.681  0.00  0.00    +0.023 C 
ATOM     26  C   UNL     1      28.244 -25.005 -16.485  0.00  0.00    +0.099 C 
ATOM     27  C   UNL     1      28.716 -22.756 -16.468  0.00  0.00    +0.099 C 
ENDBRANCH   6  23
TORSDOF 2
ENDMDL
MODEL 9
REMARK VINA RESULT:      -9.8      1.639      6.706
REMARK  Name = 44177328
REMARK  2 active torsions:
REMARK  status: ('A' for Active; 'I' for Inactive)
REMARK    1  A    between atoms: N_1  and  C_15
REMARK    2  A    between atoms: C_6  and  C_23
REMARK                            x       y       z     vdW  Elec       q    Type
REMARK                         _______ _______ _______ _____ _____    ______ ____
ROOT
ATOM      1  N   UNL     1      34.479 -24.767 -14.156  0.00  0.00    -0.286 N 
ATOM      2  N   UNL     1      34.270 -23.543 -16.172  0.00  0.00    -0.386 NA
ATOM      3  N   UNL     1      31.479 -23.628 -15.909  0.00  0.00    -0.246 NA
ATOM      4  N   UNL     1      31.721 -24.852 -13.891  0.00  0.00    -0.340 N 
ATOM      5  C   UNL     1      33.670 -24.156 -15.132  0.00  0.00    +0.214 C 
ATOM      6  C   UNL     1      33.451 -22.974 -17.078  0.00  0.00    +0.135 C 
ATOM      7  C   UNL     1      32.299 -24.197 -15.002  0.00  0.00    +0.166 C 
ATOM      8  C   UNL     1      32.080 -23.016 -16.948  0.00  0.00    +0.185 C 
ATOM      9  H   UNL     1      34.079 -24.772 -13.257  0.00  0.00    +0.155 HD
ATOM     10  H   UNL     1      30.742 -24.886 -13.794  0.00  0.00    +0.144 HD
ATOM     11  H   UNL     1      32.298 -25.276 -13.215  0.00  0.00    +0.144 HD
ENDROOT
BRANCH   1  15
ATOM     12  N   UNL     1      39.562 -26.949 -14.247  0.00  0.00    -0.312 N 
ATOM     13  C   UNL     1      38.110 -25.364 -13.650  0.00  0.00    +0.016 C 
ATOM     14  C   UNL     1      38.241 -26.573 -14.338  0.00  0.00    +0.048 C 
ATOM     15  C   UNL     1      35.754 -25.373 -14.215  0.00  0.00    +0.050 C 
ATOM     16  C   UNL     1      36.841 -24.753 -13.589  0.00  0.00    +0.016 C 
ATOM     17  C   UNL     1      37.163 -27.204 -14.967  0.00  0.00    +0.016 C 
ATOM     18  C   UNL     1      35.914 -26.579 -14.893  0.00  0.00    +0.016 C 
ATOM     19  C   UNL     1      39.398 -25.028 -13.146  0.00  0.00    +0.017 C 
ATOM     20  C   UNL     1      40.269 -26.021 -13.530  0.00  0.00    +0.062 C 
ATOM     21  H   UNL     1      39.944 -27.765 -14.643  0.00  0.00    +0.152 HD
ENDBRANCH   1  15
BRANCH   6  23
ATOM     22  N   UNL     1      35.347 -21.061 -20.347  0.00  0.00    -0.242 NA
ATOM     23  C   UNL     1      34.096 -22.323 -18.190  0.00  0.00    +0.031 C 
ATOM     24  C   UNL     1      33.339 -21.627 -19.126  0.00  0.00    +0.023 C 
ATOM     25  C   UNL     1      35.478 -22.388 -18.331  0.00  0.00    +0.023 C 
ATOM     26  C   UNL     1      34.006 -21.019 -20.176  0.00  0.00    +0.099 C 
ATOM     27  C   UNL     1      36.050 -21.747 -19.418  0.00  0.00    +0.099 C 
ENDBRANCH   6  23
TORSDOF 2
ENDMDL
