MODEL 1
REMARK VINA RESULT:     -12.2      0.000      0.000
REMARK  Name = 9999276
REMARK  5 active torsions:
REMARK  status: ('A' for Active; 'I' for Inactive)
REMARK    1  A    between atoms: C_3  and  C_11
REMARK    2  A    between atoms: C_6  and  C_20
REMARK    3  A    between atoms: C_14  and  N_19
REMARK    4  A    between atoms: C_25  and  C_27
REMARK    5  A    between atoms: C_27  and  O_28
REMARK                            x       y       z     vdW  Elec       q    Type
REMARK                         _______ _______ _______ _____ _____    ______ ____
ROOT
ATOM      1  N   UNL     1      34.781 -23.393 -16.262  0.00  0.00    -0.400 NA
ATOM      2  N   UNL     1      32.917 -25.171 -13.676  0.00  0.00    -0.242 NA
ATOM      3  C   UNL     1      34.447 -24.109 -15.162  0.00  0.00    +0.149 C 
ATOM      4  C   UNL     1      33.158 -24.453 -14.790  0.00  0.00    +0.107 C 
ATOM      5  C   UNL     1      32.128 -24.014 -15.639  0.00  0.00    +0.005 C 
ATOM      6  C   UNL     1      33.763 -22.992 -17.048  0.00  0.00    +0.131 C 
ATOM      7  C   UNL     1      32.434 -23.271 -16.787  0.00  0.00    +0.030 C 
ATOM      8  C   UNL     1      30.809 -24.342 -15.298  0.00  0.00    +0.056 C 
ATOM      9  C   UNL     1      30.550 -25.081 -14.151  0.00  0.00    -0.001 C 
ATOM     10  C   UNL     1      31.629 -25.468 -13.381  0.00  0.00    +0.095 C 
ENDROOT
BRANCH   3  11
ATOM     11  C   UNL     1      35.593 -24.505 -14.369  0.00  0.00    +0.033 C 
ATOM     12  C   UNL     1      35.993 -23.724 -13.286  0.00  0.00    +0.027 C 
ATOM     13  C   UNL     1      36.294 -25.666 -14.693  0.00  0.00    +0.003 C 
ATOM     14  C   UNL     1      37.096 -24.106 -12.523  0.00  0.00    +0.143 C 
ATOM     15  C   UNL     1      37.398 -26.048 -13.930  0.00  0.00    +0.002 C 
ATOM     16  C   UNL     1      37.800 -25.267 -12.846  0.00  0.00    +0.024 C 
BRANCH  14  19
ATOM     17  O   UNL     1      38.386 -22.439 -11.599  0.00  0.00    -0.126 OA
ATOM     18  O   UNL     1      36.971 -23.510 -10.303  0.00  0.00    -0.126 OA
ATOM     19  N   UNL     1      37.505 -23.312 -11.419  0.00  0.00    +0.058 N 
ENDBRANCH  14  19
ENDBRANCH   3  11
BRANCH   6  20
ATOM     20  C   UNL     1      34.151 -22.231 -18.211  0.00  0.00    +0.030 C 
ATOM     21  C   UNL     1      33.180 -21.621 -19.009  0.00  0.00    +0.003 C 
ATOM     22  C   UNL     1      35.502 -22.102 -18.545  0.00  0.00    +0.003 C 
ATOM     23  C   UNL     1      33.556 -20.885 -20.132  0.00  0.00    +0.007 C 
ATOM     24  C   UNL     1      35.878 -21.366 -19.669  0.00  0.00    +0.007 C 
ATOM     25  C   UNL     1      34.905 -20.758 -20.462  0.00  0.00    +0.075 C 
BRANCH  25  27
ATOM     26  O   UNL     1      34.725 -20.012 -22.728  0.00  0.00    -0.245 OA
ATOM     27  C   UNL     1      35.298 -19.991 -21.634  0.00  0.00    +0.338 C 
BRANCH  27  28
ATOM     28  O   UNL     1      36.396 -19.220 -21.407  0.00  0.00    -0.477 OA
ATOM     29  H   UNL     1      37.255 -19.586 -21.497  0.00  0.00    +0.295 HD
ENDBRANCH  27  28
ENDBRANCH  25  27
ENDBRANCH   6  20
TORSDOF 5
ENDMDL
MODEL 2
REMARK VINA RESULT:     -11.9      1.789      2.072
REMARK  Name = 9999276
REMARK  5 active torsions:
REMARK  status: ('A' for Active; 'I' for Inactive)
REMARK    1  A    between atoms: C_3  and  C_11
REMARK    2  A    between atoms: C_6  and  C_20
REMARK    3  A    between atoms: C_14  and  N_19
REMARK    4  A    between atoms: C_25  and  C_27
REMARK    5  A    between atoms: C_27  and  O_28
REMARK                            x       y       z     vdW  Elec       q    Type
REMARK                         _______ _______ _______ _____ _____    ______ ____
ROOT
ATOM      1  N   UNL     1      34.820 -23.224 -16.390  0.00  0.00    -0.400 NA
ATOM      2  N   UNL     1      33.061 -25.052 -13.766  0.00  0.00    -0.242 NA
ATOM      3  C   UNL     1      34.528 -23.938 -15.278  0.00  0.00    +0.149 C 
ATOM      4  C   UNL     1      33.260 -24.341 -14.893  0.00  0.00    +0.107 C 
ATOM      5  C   UNL     1      32.205 -23.967 -15.742  0.00  0.00    +0.005 C 
ATOM      6  C   UNL     1      33.779 -22.886 -17.176  0.00  0.00    +0.131 C 
ATOM      7  C   UNL     1      32.467 -23.228 -16.903  0.00  0.00    +0.030 C 
ATOM      8  C   UNL     1      30.906 -24.356 -15.389  0.00  0.00    +0.056 C 
ATOM      9  C   UNL     1      30.691 -25.089 -14.229  0.00  0.00    -0.001 C 
ATOM     10  C   UNL     1      31.792 -25.409 -13.460  0.00  0.00    +0.095 C 
ENDROOT
BRANCH   3  11
ATOM     11  C   UNL     1      35.696 -24.263 -14.486  0.00  0.00    +0.033 C 
ATOM     12  C   UNL     1      36.447 -25.398 -14.787  0.00  0.00    +0.027 C 
ATOM     13  C   UNL     1      36.066 -23.440 -13.422  0.00  0.00    +0.003 C 
ATOM     14  C   UNL     1      37.572 -25.711 -14.024  0.00  0.00    +0.143 C 
ATOM     15  C   UNL     1      37.191 -23.753 -12.659  0.00  0.00    +0.002 C 
ATOM     16  C   UNL     1      37.944 -24.889 -12.959  0.00  0.00    +0.024 C 
BRANCH  14  19
ATOM     17  O   UNL     1      37.739 -27.944 -14.554  0.00  0.00    -0.126 OA
ATOM     18  O   UNL     1      39.587 -26.770 -14.366  0.00  0.00    -0.126 OA
ATOM     19  N   UNL     1      38.339 -26.866 -14.330  0.00  0.00    +0.058 N 
ENDBRANCH  14  19
ENDBRANCH   3  11
BRANCH   6  20
ATOM     20  C   UNL     1      34.122 -22.125 -18.354  0.00  0.00    +0.030 C 
ATOM     21  C   UNL     1      33.123 -21.494 -19.098  0.00  0.00    +0.003 C 
ATOM     22  C   UNL     1      35.457 -22.017 -18.753  0.00  0.00    +0.003 C 
ATOM     23  C   UNL     1      33.456 -20.758 -20.235  0.00  0.00    +0.007 C 
ATOM     24  C   UNL     1      35.789 -21.280 -19.891  0.00  0.00    +0.007 C 
ATOM     25  C   UNL     1      34.790 -20.652 -20.631  0.00  0.00    +0.075 C 
BRANCH  25  27
ATOM     26  O   UNL     1      34.507 -19.883 -22.880  0.00  0.00    -0.245 OA
ATOM     27  C   UNL     1      35.137 -19.885 -21.817  0.00  0.00    +0.338 C 
BRANCH  27  28
ATOM     28  O   UNL     1      36.263 -19.139 -21.643  0.00  0.00    -0.477 OA
ATOM     29  H   UNL     1      37.097 -19.481 -21.900  0.00  0.00    +0.295 HD
ENDBRANCH  27  28
ENDBRANCH  25  27
ENDBRANCH   6  20
TORSDOF 5
ENDMDL
MODEL 3
REMARK VINA RESULT:     -11.1      3.257      5.241
REMARK  Name = 9999276
REMARK  5 active torsions:
REMARK  status: ('A' for Active; 'I' for Inactive)
REMARK    1  A    between atoms: C_3  and  C_11
REMARK    2  A    between atoms: C_6  and  C_20
REMARK    3  A    between atoms: C_14  and  N_19
REMARK    4  A    between atoms: C_25  and  C_27
REMARK    5  A    between atoms: C_27  and  O_28
REMARK                            x       y       z     vdW  Elec       q    Type
REMARK                         _______ _______ _______ _____ _____    ______ ____
ROOT
ATOM      1  N   UNL     1      33.338 -23.008 -16.937  0.00  0.00    -0.400 NA
ATOM      2  N   UNL     1      34.126 -24.850 -13.886  0.00  0.00    -0.242 NA
ATOM      3  C   UNL     1      33.244 -23.725 -15.793  0.00  0.00    +0.149 C 
ATOM      4  C   UNL     1      34.313 -24.138 -15.014  0.00  0.00    +0.107 C 
ATOM      5  C   UNL     1      35.591 -23.770 -15.468  0.00  0.00    +0.005 C 
ATOM      6  C   UNL     1      34.581 -22.677 -17.336  0.00  0.00    +0.131 C 
ATOM      7  C   UNL     1      35.729 -23.028 -16.648  0.00  0.00    +0.030 C 
ATOM      8  C   UNL     1      36.699 -24.168 -14.708  0.00  0.00    +0.056 C 
ATOM      9  C   UNL     1      36.516 -24.902 -13.544  0.00  0.00    -0.001 C 
ATOM     10  C   UNL     1      35.222 -25.214 -13.180  0.00  0.00    +0.095 C 
ENDROOT
BRANCH   3  11
ATOM     11  C   UNL     1      31.878 -24.041 -15.428  0.00  0.00    +0.033 C 
ATOM     12  C   UNL     1      30.822 -23.556 -16.198  0.00  0.00    +0.027 C 
ATOM     13  C   UNL     1      31.622 -24.830 -14.306  0.00  0.00    +0.003 C 
ATOM     14  C   UNL     1      29.507 -23.861 -15.847  0.00  0.00    +0.143 C 
ATOM     15  C   UNL     1      30.307 -25.134 -13.955  0.00  0.00    +0.002 C 
ATOM     16  C   UNL     1      29.250 -24.649 -14.724  0.00  0.00    +0.024 C 
BRANCH  14  19
ATOM     17  O   UNL     1      27.755 -24.180 -17.305  0.00  0.00    -0.126 OA
ATOM     18  O   UNL     1      28.191 -22.137 -16.620  0.00  0.00    -0.126 OA
ATOM     19  N   UNL     1      28.430 -23.367 -16.630  0.00  0.00    +0.058 N 
ENDBRANCH  14  19
ENDBRANCH   3  11
BRANCH   6  20
ATOM     20  C   UNL     1      34.649 -21.914 -18.560  0.00  0.00    +0.030 C 
ATOM     21  C   UNL     1      33.476 -21.488 -19.188  0.00  0.00    +0.003 C 
ATOM     22  C   UNL     1      35.889 -21.600 -19.122  0.00  0.00    +0.003 C 
ATOM     23  C   UNL     1      33.542 -20.750 -20.370  0.00  0.00    +0.007 C 
ATOM     24  C   UNL     1      35.954 -20.861 -20.304  0.00  0.00    +0.007 C 
ATOM     25  C   UNL     1      34.782 -20.438 -20.927  0.00  0.00    +0.075 C 
BRANCH  25  27
ATOM     26  O   UNL     1      34.814 -20.141 -23.302  0.00  0.00    -0.245 OA
ATOM     27  C   UNL     1      34.852 -19.669 -22.160  0.00  0.00    +0.338 C 
BRANCH  27  28
ATOM     28  O   UNL     1      34.965 -18.332 -21.934  0.00  0.00    -0.477 OA
ATOM     29  H   UNL     1      34.953 -17.731 -22.654  0.00  0.00    +0.295 HD
ENDBRANCH  27  28
ENDBRANCH  25  27
ENDBRANCH   6  20
TORSDOF 5
ENDMDL
MODEL 4
REMARK VINA RESULT:      -9.8      2.179      4.511
REMARK  Name = 9999276
REMARK  5 active torsions:
REMARK  status: ('A' for Active; 'I' for Inactive)
REMARK    1  A    between atoms: C_3  and  C_11
REMARK    2  A    between atoms: C_6  and  C_20
REMARK    3  A    between atoms: C_14  and  N_19
REMARK    4  A    between atoms: C_25  and  C_27
REMARK    5  A    between atoms: C_27  and  O_28
REMARK                            x       y       z     vdW  Elec       q    Type
REMARK                         _______ _______ _______ _____ _____    ______ ____
ROOT
ATOM      1  N   UNL     1      34.361 -22.328 -17.679  0.00  0.00    -0.400 NA
ATOM      2  N   UNL     1      35.568 -24.115 -14.733  0.00  0.00    -0.242 NA
ATOM      3  C   UNL     1      34.428 -23.047 -16.533  0.00  0.00    +0.149 C 
ATOM      4  C   UNL     1      35.595 -23.396 -15.872  0.00  0.00    +0.107 C 
ATOM      5  C   UNL     1      36.795 -22.959 -16.458  0.00  0.00    +0.005 C 
ATOM      6  C   UNL     1      35.535 -21.929 -18.205  0.00  0.00    +0.131 C 
ATOM      7  C   UNL     1      36.766 -22.213 -17.643  0.00  0.00    +0.030 C 
ATOM      8  C   UNL     1      37.997 -23.292 -15.820  0.00  0.00    +0.056 C 
ATOM      9  C   UNL     1      37.980 -24.032 -14.645  0.00  0.00    -0.001 C 
ATOM     10  C   UNL     1      36.750 -24.416 -14.148  0.00  0.00    +0.095 C 
ENDROOT
BRANCH   3  11
ATOM     11  C   UNL     1      33.128 -23.438 -16.028  0.00  0.00    +0.033 C 
ATOM     12  C   UNL     1      33.022 -24.050 -14.780  0.00  0.00    +0.027 C 
ATOM     13  C   UNL     1      31.986 -23.203 -16.792  0.00  0.00    +0.003 C 
ATOM     14  C   UNL     1      31.770 -24.426 -14.294  0.00  0.00    +0.143 C 
ATOM     15  C   UNL     1      30.734 -23.579 -16.306  0.00  0.00    +0.002 C 
ATOM     16  C   UNL     1      30.626 -24.192 -15.058  0.00  0.00    +0.024 C 
BRANCH  14  19
ATOM     17  O   UNL     1      32.691 -25.532 -12.498  0.00  0.00    -0.126 OA
ATOM     18  O   UNL     1      30.536 -25.096 -12.469  0.00  0.00    -0.126 OA
ATOM     19  N   UNL     1      31.659 -25.050 -13.023  0.00  0.00    +0.058 N 
ENDBRANCH  14  19
ENDBRANCH   3  11
BRANCH   6  20
ATOM     20  C   UNL     1      35.430 -21.167 -19.427  0.00  0.00    +0.030 C 
ATOM     21  C   UNL     1      34.185 -20.972 -20.029  0.00  0.00    +0.003 C 
ATOM     22  C   UNL     1      36.576 -20.622 -20.013  0.00  0.00    +0.003 C 
ATOM     23  C   UNL     1      34.084 -20.234 -21.208  0.00  0.00    +0.007 C 
ATOM     24  C   UNL     1      36.475 -19.885 -21.193  0.00  0.00    +0.007 C 
ATOM     25  C   UNL     1      35.230 -19.691 -21.790  0.00  0.00    +0.075 C 
BRANCH  25  27
ATOM     26  O   UNL     1      34.409 -19.208 -23.985  0.00  0.00    -0.245 OA
ATOM     27  C   UNL     1      35.127 -18.923 -23.021  0.00  0.00    +0.338 C 
BRANCH  27  28
ATOM     28  O   UNL     1      35.922 -17.818 -23.013  0.00  0.00    -0.477 OA
ATOM     29  H   UNL     1      36.663 -17.777 -22.442  0.00  0.00    +0.295 HD
ENDBRANCH  27  28
ENDBRANCH  25  27
ENDBRANCH   6  20
TORSDOF 5
ENDMDL
MODEL 5
REMARK VINA RESULT:      -9.5      2.241      7.021
REMARK  Name = 9999276
REMARK  5 active torsions:
REMARK  status: ('A' for Active; 'I' for Inactive)
REMARK    1  A    between atoms: C_3  and  C_11
REMARK    2  A    between atoms: C_6  and  C_20
REMARK    3  A    between atoms: C_14  and  N_19
REMARK    4  A    between atoms: C_25  and  C_27
REMARK    5  A    between atoms: C_27  and  O_28
REMARK                            x       y       z     vdW  Elec       q    Type
REMARK                         _______ _______ _______ _____ _____    ______ ____
ROOT
ATOM      1  N   UNL     1      34.970 -23.407 -16.672  0.00  0.00    -0.400 NA
ATOM      2  N   UNL     1      31.375 -22.812 -16.884  0.00  0.00    -0.242 NA
ATOM      3  C   UNL     1      33.745 -22.985 -17.064  0.00  0.00    +0.149 C 
ATOM      4  C   UNL     1      32.552 -23.276 -16.423  0.00  0.00    +0.107 C 
ATOM      5  C   UNL     1      32.646 -24.078 -15.273  0.00  0.00    +0.005 C 
ATOM      6  C   UNL     1      35.014 -24.173 -15.565  0.00  0.00    +0.131 C 
ATOM      7  C   UNL     1      33.896 -24.535 -14.835  0.00  0.00    +0.030 C 
ATOM      8  C   UNL     1      31.462 -24.396 -14.594  0.00  0.00    +0.056 C 
ATOM      9  C   UNL     1      30.243 -23.922 -15.062  0.00  0.00    -0.001 C 
ATOM     10  C   UNL     1      30.254 -23.141 -16.201  0.00  0.00    +0.095 C 
ENDROOT
BRANCH   3  11
ATOM     11  C   UNL     1      33.779 -22.167 -18.260  0.00  0.00    +0.033 C 
ATOM     12  C   UNL     1      34.994 -21.672 -18.730  0.00  0.00    +0.027 C 
ATOM     13  C   UNL     1      32.595 -21.875 -18.936  0.00  0.00    +0.003 C 
ATOM     14  C   UNL     1      35.026 -20.885 -19.880  0.00  0.00    +0.143 C 
ATOM     15  C   UNL     1      32.627 -21.087 -20.087  0.00  0.00    +0.002 C 
ATOM     16  C   UNL     1      33.843 -20.591 -20.558  0.00  0.00    +0.024 C 
BRANCH  14  19
ATOM     17  O   UNL     1      36.286 -19.796 -21.470  0.00  0.00    -0.126 OA
ATOM     18  O   UNL     1      37.291 -20.534 -19.660  0.00  0.00    -0.126 OA
ATOM     19  N   UNL     1      36.264 -20.380 -20.361  0.00  0.00    +0.058 N 
ENDBRANCH  14  19
ENDBRANCH   3  11
BRANCH   6  20
ATOM     20  C   UNL     1      36.334 -24.608 -15.173  0.00  0.00    +0.030 C 
ATOM     21  C   UNL     1      36.523 -25.886 -14.643  0.00  0.00    +0.003 C 
ATOM     22  C   UNL     1      37.426 -23.750 -15.321  0.00  0.00    +0.003 C 
ATOM     23  C   UNL     1      37.799 -26.306 -14.265  0.00  0.00    +0.007 C 
ATOM     24  C   UNL     1      38.702 -24.170 -14.943  0.00  0.00    +0.007 C 
ATOM     25  C   UNL     1      38.888 -25.447 -14.416  0.00  0.00    +0.075 C 
BRANCH  25  27
ATOM     26  O   UNL     1      40.489 -26.966 -13.491  0.00  0.00    -0.245 OA
ATOM     27  C   UNL     1      40.218 -25.883 -14.021  0.00  0.00    +0.338 C 
BRANCH  27  28
ATOM     28  O   UNL     1      41.175 -24.956 -14.301  0.00  0.00    -0.477 OA
ATOM     29  H   UNL     1      42.052 -25.080 -13.996  0.00  0.00    +0.295 HD
ENDBRANCH  27  28
ENDBRANCH  25  27
ENDBRANCH   6  20
TORSDOF 5
ENDMDL
MODEL 6
REMARK VINA RESULT:      -9.3      3.519      6.452
REMARK  Name = 9999276
REMARK  5 active torsions:
REMARK  status: ('A' for Active; 'I' for Inactive)
REMARK    1  A    between atoms: C_3  and  C_11
REMARK    2  A    between atoms: C_6  and  C_20
REMARK    3  A    between atoms: C_14  and  N_19
REMARK    4  A    between atoms: C_25  and  C_27
REMARK    5  A    between atoms: C_27  and  O_28
REMARK                            x       y       z     vdW  Elec       q    Type
REMARK                         _______ _______ _______ _____ _____    ______ ____
ROOT
ATOM      1  N   UNL     1      33.859 -23.204 -15.212  0.00  0.00    -0.400 NA
ATOM      2  N   UNL     1      36.959 -23.958 -13.438  0.00  0.00    -0.242 NA
ATOM      3  C   UNL     1      35.161 -23.283 -14.849  0.00  0.00    +0.149 C 
ATOM      4  C   UNL     1      35.642 -23.929 -13.722  0.00  0.00    +0.107 C 
ATOM      5  C   UNL     1      34.682 -24.545 -12.901  0.00  0.00    +0.005 C 
ATOM      6  C   UNL     1      32.972 -23.809 -14.397  0.00  0.00    +0.131 C 
ATOM      7  C   UNL     1      33.325 -24.486 -13.243  0.00  0.00    +0.030 C 
ATOM      8  C   UNL     1      35.129 -25.209 -11.751  0.00  0.00    +0.056 C 
ATOM      9  C   UNL     1      36.484 -25.245 -11.450  0.00  0.00    -0.001 C 
ATOM     10  C   UNL     1      37.350 -24.610 -12.318  0.00  0.00    +0.095 C 
ENDROOT
BRANCH   3  11
ATOM     11  C   UNL     1      36.052 -22.612 -15.773  0.00  0.00    +0.033 C 
ATOM     12  C   UNL     1      35.679 -22.449 -17.105  0.00  0.00    +0.027 C 
ATOM     13  C   UNL     1      37.283 -22.131 -15.326  0.00  0.00    +0.003 C 
ATOM     14  C   UNL     1      36.537 -21.802 -17.994  0.00  0.00    +0.143 C 
ATOM     15  C   UNL     1      38.141 -21.484 -16.215  0.00  0.00    +0.002 C 
ATOM     16  C   UNL     1      37.769 -21.320 -17.550  0.00  0.00    +0.024 C 
BRANCH  14  19
ATOM     17  O   UNL     1      36.498 -20.585 -19.948  0.00  0.00    -0.126 OA
ATOM     18  O   UNL     1      35.499 -22.542 -19.911  0.00  0.00    -0.126 OA
ATOM     19  N   UNL     1      36.158 -21.635 -19.353  0.00  0.00    +0.058 N 
ENDBRANCH  14  19
ENDBRANCH   3  11
BRANCH   6  20
ATOM     20  C   UNL     1      31.593 -23.706 -14.810  0.00  0.00    +0.030 C 
ATOM     21  C   UNL     1      30.575 -24.195 -13.987  0.00  0.00    +0.003 C 
ATOM     22  C   UNL     1      31.271 -23.119 -16.035  0.00  0.00    +0.003 C 
ATOM     23  C   UNL     1      29.242 -24.094 -14.386  0.00  0.00    +0.007 C 
ATOM     24  C   UNL     1      29.937 -23.019 -16.435  0.00  0.00    +0.007 C 
ATOM     25  C   UNL     1      28.924 -23.506 -15.610  0.00  0.00    +0.075 C 
BRANCH  25  27
ATOM     26  O   UNL     1      26.625 -22.891 -15.366  0.00  0.00    -0.245 OA
ATOM     27  C   UNL     1      27.535 -23.402 -16.028  0.00  0.00    +0.338 C 
BRANCH  27  28
ATOM     28  O   UNL     1      27.320 -23.937 -17.261  0.00  0.00    -0.477 OA
ATOM     29  H   UNL     1      27.895 -23.728 -17.970  0.00  0.00    +0.295 HD
ENDBRANCH  27  28
ENDBRANCH  25  27
ENDBRANCH   6  20
TORSDOF 5
ENDMDL
MODEL 7
REMARK VINA RESULT:      -9.2      3.498      5.521
REMARK  Name = 9999276
REMARK  5 active torsions:
REMARK  status: ('A' for Active; 'I' for Inactive)
REMARK    1  A    between atoms: C_3  and  C_11
REMARK    2  A    between atoms: C_6  and  C_20
REMARK    3  A    between atoms: C_14  and  N_19
REMARK    4  A    between atoms: C_25  and  C_27
REMARK    5  A    between atoms: C_27  and  O_28
REMARK                            x       y       z     vdW  Elec       q    Type
REMARK                         _______ _______ _______ _____ _____    ______ ____
ROOT
ATOM      1  N   UNL     1      34.117 -24.166 -14.741  0.00  0.00    -0.400 NA
ATOM      2  N   UNL     1      37.633 -23.405 -15.361  0.00  0.00    -0.242 NA
ATOM      3  C   UNL     1      35.466 -24.092 -14.646  0.00  0.00    +0.149 C 
ATOM      4  C   UNL     1      36.297 -23.428 -15.534  0.00  0.00    +0.107 C 
ATOM      5  C   UNL     1      35.668 -22.787 -16.614  0.00  0.00    +0.005 C 
ATOM      6  C   UNL     1      33.555 -23.536 -15.792  0.00  0.00    +0.131 C 
ATOM      7  C   UNL     1      34.274 -22.841 -16.746  0.00  0.00    +0.030 C 
ATOM      8  C   UNL     1      36.474 -22.104 -17.534  0.00  0.00    +0.056 C 
ATOM      9  C   UNL     1      37.852 -22.075 -17.364  0.00  0.00    -0.001 C 
ATOM     10  C   UNL     1      38.377 -22.735 -16.271  0.00  0.00    +0.095 C 
ENDROOT
BRANCH   3  11
ATOM     11  C   UNL     1      35.996 -24.790 -13.493  0.00  0.00    +0.033 C 
ATOM     12  C   UNL     1      35.791 -24.276 -12.214  0.00  0.00    +0.027 C 
ATOM     13  C   UNL     1      36.712 -25.974 -13.666  0.00  0.00    +0.003 C 
ATOM     14  C   UNL     1      36.301 -24.949 -11.104  0.00  0.00    +0.143 C 
ATOM     15  C   UNL     1      37.222 -26.647 -12.556  0.00  0.00    +0.002 C 
ATOM     16  C   UNL     1      37.018 -26.134 -11.275  0.00  0.00    +0.024 C 
BRANCH  14  19
ATOM     17  O   UNL     1      35.311 -25.031  -9.027  0.00  0.00    -0.126 OA
ATOM     18  O   UNL     1      36.697 -23.382  -9.465  0.00  0.00    -0.126 OA
ATOM     19  N   UNL     1      36.093 -24.427  -9.799  0.00  0.00    +0.058 N 
ENDBRANCH  14  19
ENDBRANCH   3  11
BRANCH   6  20
ATOM     20  C   UNL     1      32.117 -23.635 -15.866  0.00  0.00    +0.030 C 
ATOM     21  C   UNL     1      31.433 -24.557 -15.069  0.00  0.00    +0.003 C 
ATOM     22  C   UNL     1      31.402 -22.808 -16.736  0.00  0.00    +0.003 C 
ATOM     23  C   UNL     1      30.044 -24.650 -15.141  0.00  0.00    +0.007 C 
ATOM     24  C   UNL     1      30.012 -22.902 -16.808  0.00  0.00    +0.007 C 
ATOM     25  C   UNL     1      29.334 -23.823 -16.011  0.00  0.00    +0.075 C 
BRANCH  25  27
ATOM     26  O   UNL     1      27.089 -23.384 -15.309  0.00  0.00    -0.245 OA
ATOM     27  C   UNL     1      27.884 -23.920 -16.087  0.00  0.00    +0.338 C 
BRANCH  27  28
ATOM     28  O   UNL     1      27.468 -24.684 -17.134  0.00  0.00    -0.477 OA
ATOM     29  H   UNL     1      26.576 -24.643 -17.420  0.00  0.00    +0.295 HD
ENDBRANCH  27  28
ENDBRANCH  25  27
ENDBRANCH   6  20
TORSDOF 5
ENDMDL
