MODEL 1
REMARK VINA RESULT:     -11.0      0.000      0.000
REMARK  Name = 444581
REMARK  5 active torsions:
REMARK  status: ('A' for Active; 'I' for Inactive)
REMARK    1  A    between atoms: N_2  and  C_7
REMARK    2  A    between atoms: N_3  and  C_20
REMARK    3  A    between atoms: C_8  and  O_13
REMARK    4  A    between atoms: O_13  and  C_14
REMARK    5  A    between atoms: C_21  and  C_28
REMARK                            x       y       z     vdW  Elec       q    Type
REMARK                         _______ _______ _______ _____ _____    ______ ____
ROOT
ATOM      1  O   UNL     1      36.822 -21.324 -17.028  0.00  0.00    -0.252 OA
ATOM      2  N   UNL     1      35.393 -22.082 -18.717  0.00  0.00    -0.268 N 
ATOM      3  N   UNL     1      35.623 -23.321 -16.781  0.00  0.00    -0.268 N 
ATOM      4  C   UNL     1      36.030 -22.151 -17.467  0.00  0.00    +0.308 C 
ATOM      5  H   UNL     1      34.782 -22.824 -18.931  0.00  0.00    +0.156 HD
ATOM      6  H   UNL     1      34.981 -23.894 -17.257  0.00  0.00    +0.156 HD
ENDROOT
BRANCH   2   7
ATOM      7  C   UNL     1      35.522 -21.079 -19.706  0.00  0.00    +0.052 C 
ATOM      8  C   UNL     1      35.777 -19.117 -21.644  0.00  0.00    +0.145 C 
ATOM      9  C   UNL     1      34.403 -20.680 -20.418  0.00  0.00    +0.018 C 
ATOM     10  C   UNL     1      36.766 -20.518 -19.943  0.00  0.00    +0.018 C 
ATOM     11  C   UNL     1      34.531 -19.692 -21.394  0.00  0.00    +0.039 C 
ATOM     12  C   UNL     1      36.895 -19.529 -20.919  0.00  0.00    +0.039 C 
BRANCH   8  13
ATOM     13  O   UNL     1      35.902 -18.151 -22.596  0.00  0.00    -0.453 OA
BRANCH  13  14
ATOM     14  C   UNL     1      35.212 -16.966 -22.404  0.00  0.00    +0.145 C 
ATOM     15  C   UNL     1      34.887 -16.190 -23.501  0.00  0.00    +0.037 C 
ATOM     16  C   UNL     1      34.866 -16.589 -21.119  0.00  0.00    +0.037 C 
ATOM     17  C   UNL     1      34.192 -14.996 -23.308  0.00  0.00    +0.003 C 
ATOM     18  C   UNL     1      34.172 -15.395 -20.925  0.00  0.00    +0.003 C 
ATOM     19  C   UNL     1      33.834 -14.598 -22.020  0.00  0.00    +0.000 C 
ENDBRANCH  13  14
ENDBRANCH   8  13
ENDBRANCH   2   7
BRANCH   3  20
ATOM     20  C   UNL     1      36.013 -23.770 -15.518  0.00  0.00    +0.052 C 
ATOM     21  C   UNL     1      36.791 -24.670 -12.995  0.00  0.00    +0.031 C 
ATOM     22  C   UNL     1      35.049 -24.054 -14.551  0.00  0.00    +0.015 C 
ATOM     23  C   UNL     1      37.366 -23.936 -15.224  0.00  0.00    +0.015 C 
ATOM     24  C   UNL     1      35.438 -24.503 -13.289  0.00  0.00    +0.004 C 
ATOM     25  C   UNL     1      37.756 -24.386 -13.963  0.00  0.00    +0.004 C 
BRANCH  21  28
ATOM     26  N   UNL     1      38.021 -24.370 -10.859  0.00  0.00    -0.343 N 
ATOM     27  N   UNL     1      36.788 -26.317 -11.246  0.00  0.00    -0.285 NA
ATOM     28  C   UNL     1      37.198 -25.139 -11.680  0.00  0.00    +0.117 C 
ATOM     29  H   UNL     1      38.283 -24.707  -9.972  0.00  0.00    +0.144 HD
ATOM     30  H   UNL     1      38.339 -23.491 -11.166  0.00  0.00    +0.144 HD
ATOM     31  H   UNL     1      37.062 -26.638 -10.356  0.00  0.00    +0.188 HD
ENDBRANCH  21  28
ENDBRANCH   3  20
TORSDOF 5
ENDMDL
MODEL 2
REMARK VINA RESULT:     -10.8      6.270     12.216
REMARK  Name = 444581
REMARK  5 active torsions:
REMARK  status: ('A' for Active; 'I' for Inactive)
REMARK    1  A    between atoms: N_2  and  C_7
REMARK    2  A    between atoms: N_3  and  C_20
REMARK    3  A    between atoms: C_8  and  O_13
REMARK    4  A    between atoms: O_13  and  C_14
REMARK    5  A    between atoms: C_21  and  C_28
REMARK                            x       y       z     vdW  Elec       q    Type
REMARK                         _______ _______ _______ _____ _____    ______ ____
ROOT
ATOM      1  O   UNL     1      33.853 -13.688 -21.189  0.00  0.00    -0.252 OA
ATOM      2  N   UNL     1      34.226 -14.823 -23.200  0.00  0.00    -0.268 N 
ATOM      3  N   UNL     1      33.477 -12.638 -23.248  0.00  0.00    -0.268 N 
ATOM      4  C   UNL     1      33.854 -13.719 -22.415  0.00  0.00    +0.308 C 
ATOM      5  H   UNL     1      34.174 -14.695 -24.174  0.00  0.00    +0.156 HD
ATOM      6  H   UNL     1      33.527 -12.807 -24.216  0.00  0.00    +0.156 HD
ENDROOT
BRANCH   2   7
ATOM      7  C   UNL     1      34.665 -16.094 -22.762  0.00  0.00    +0.052 C 
ATOM      8  C   UNL     1      35.527 -18.583 -21.905  0.00  0.00    +0.145 C 
ATOM      9  C   UNL     1      34.855 -16.316 -21.408  0.00  0.00    +0.018 C 
ATOM     10  C   UNL     1      34.897 -17.090 -23.696  0.00  0.00    +0.018 C 
ATOM     11  C   UNL     1      35.290 -17.569 -20.976  0.00  0.00    +0.039 C 
ATOM     12  C   UNL     1      35.330 -18.343 -23.265  0.00  0.00    +0.039 C 
BRANCH   8  13
ATOM     13  O   UNL     1      35.949 -19.806 -21.483  0.00  0.00    -0.453 OA
BRANCH  13  14
ATOM     14  C   UNL     1      35.119 -20.515 -20.631  0.00  0.00    +0.145 C 
ATOM     15  C   UNL     1      33.757 -20.286 -20.672  0.00  0.00    +0.037 C 
ATOM     16  C   UNL     1      35.676 -21.433 -19.759  0.00  0.00    +0.037 C 
ATOM     17  C   UNL     1      32.921 -20.999 -19.813  0.00  0.00    +0.003 C 
ATOM     18  C   UNL     1      34.840 -22.147 -18.900  0.00  0.00    +0.003 C 
ATOM     19  C   UNL     1      33.462 -21.930 -18.927  0.00  0.00    +0.000 C 
ENDBRANCH  13  14
ENDBRANCH   8  13
ENDBRANCH   2   7
BRANCH   3  20
ATOM     20  C   UNL     1      33.043 -11.364 -22.879  0.00  0.00    +0.052 C 
ATOM     21  C   UNL     1      32.177  -8.818 -22.137  0.00  0.00    +0.031 C 
ATOM     22  C   UNL     1      31.952 -11.220 -22.023  0.00  0.00    +0.015 C 
ATOM     23  C   UNL     1      33.702 -10.234 -23.364  0.00  0.00    +0.015 C 
ATOM     24  C   UNL     1      31.518  -9.947 -21.652  0.00  0.00    +0.004 C 
ATOM     25  C   UNL     1      33.270  -8.961 -22.994  0.00  0.00    +0.004 C 
BRANCH  21  28
ATOM     26  N   UNL     1      32.312  -6.807 -20.687  0.00  0.00    -0.343 N 
ATOM     27  N   UNL     1      30.739  -6.911 -22.411  0.00  0.00    -0.285 NA
ATOM     28  C   UNL     1      31.726  -7.490 -21.751  0.00  0.00    +0.117 C 
ATOM     29  H   UNL     1      31.993  -5.909 -20.443  0.00  0.00    +0.144 HD
ATOM     30  H   UNL     1      33.047  -7.222 -20.181  0.00  0.00    +0.144 HD
ATOM     31  H   UNL     1      30.432  -6.013 -22.152  0.00  0.00    +0.188 HD
ENDBRANCH  21  28
ENDBRANCH   3  20
TORSDOF 5
ENDMDL
MODEL 3
REMARK VINA RESULT:     -10.7      7.368     13.587
REMARK  Name = 444581
REMARK  5 active torsions:
REMARK  status: ('A' for Active; 'I' for Inactive)
REMARK    1  A    between atoms: N_2  and  C_7
REMARK    2  A    between atoms: N_3  and  C_20
REMARK    3  A    between atoms: C_8  and  O_13
REMARK    4  A    between atoms: O_13  and  C_14
REMARK    5  A    between atoms: C_21  and  C_28
REMARK                            x       y       z     vdW  Elec       q    Type
REMARK                         _______ _______ _______ _____ _____    ______ ____
ROOT
ATOM      1  O   UNL     1      33.613 -11.241 -23.074  0.00  0.00    -0.252 OA
ATOM      2  N   UNL     1      32.582 -12.926 -21.823  0.00  0.00    -0.268 N 
ATOM      3  N   UNL     1      31.794 -10.759 -21.680  0.00  0.00    -0.268 N 
ATOM      4  C   UNL     1      32.757 -11.608 -22.277  0.00  0.00    +0.308 C 
ATOM      5  H   UNL     1      31.849 -13.067 -21.181  0.00  0.00    +0.156 HD
ATOM      6  H   UNL     1      31.168 -11.194 -21.058  0.00  0.00    +0.156 HD
ENDROOT
BRANCH   2   7
ATOM      7  C   UNL     1      33.331 -14.074 -22.173  0.00  0.00    +0.052 C 
ATOM      8  C   UNL     1      34.795 -16.323 -22.858  0.00  0.00    +0.145 C 
ATOM      9  C   UNL     1      33.423 -14.443 -23.505  0.00  0.00    +0.018 C 
ATOM     10  C   UNL     1      33.955 -14.806 -21.177  0.00  0.00    +0.018 C 
ATOM     11  C   UNL     1      34.160 -15.576 -23.850  0.00  0.00    +0.039 C 
ATOM     12  C   UNL     1      34.693 -15.938 -21.521  0.00  0.00    +0.039 C 
BRANCH   8  13
ATOM     13  O   UNL     1      35.516 -17.428 -23.195  0.00  0.00    -0.453 OA
BRANCH  13  14
ATOM     14  C   UNL     1      35.640 -18.430 -22.247  0.00  0.00    +0.145 C 
ATOM     15  C   UNL     1      34.535 -19.196 -21.927  0.00  0.00    +0.037 C 
ATOM     16  C   UNL     1      36.868 -18.637 -21.644  0.00  0.00    +0.037 C 
ATOM     17  C   UNL     1      34.660 -20.204 -20.972  0.00  0.00    +0.003 C 
ATOM     18  C   UNL     1      36.993 -19.645 -20.689  0.00  0.00    +0.003 C 
ATOM     19  C   UNL     1      35.888 -20.430 -20.352  0.00  0.00    +0.000 C 
ENDBRANCH  13  14
ENDBRANCH   8  13
ENDBRANCH   2   7
BRANCH   3  20
ATOM     20  C   UNL     1      31.615  -9.386 -21.855  0.00  0.00    +0.052 C 
ATOM     21  C   UNL     1      31.261  -6.642 -22.206  0.00  0.00    +0.031 C 
ATOM     22  C   UNL     1      31.999  -8.500 -20.850  0.00  0.00    +0.015 C 
ATOM     23  C   UNL     1      31.055  -8.901 -23.037  0.00  0.00    +0.015 C 
ATOM     24  C   UNL     1      31.822  -7.127 -21.024  0.00  0.00    +0.004 C 
ATOM     25  C   UNL     1      30.878  -7.529 -23.212  0.00  0.00    +0.004 C 
BRANCH  21  28
ATOM     26  N   UNL     1      30.107  -4.508 -21.676  0.00  0.00    -0.343 N 
ATOM     27  N   UNL     1      31.834  -4.554 -23.249  0.00  0.00    -0.285 NA
ATOM     28  C   UNL     1      31.077  -5.210 -22.389  0.00  0.00    +0.117 C 
ATOM     29  H   UNL     1      30.000  -3.540 -21.816  0.00  0.00    +0.144 HD
ATOM     30  H   UNL     1      29.531  -4.980 -21.033  0.00  0.00    +0.144 HD
ATOM     31  H   UNL     1      31.712  -3.586 -23.376  0.00  0.00    +0.188 HD
ENDBRANCH  21  28
ENDBRANCH   3  20
TORSDOF 5
ENDMDL
MODEL 4
REMARK VINA RESULT:     -10.7      1.385      2.140
REMARK  Name = 444581
REMARK  5 active torsions:
REMARK  status: ('A' for Active; 'I' for Inactive)
REMARK    1  A    between atoms: N_2  and  C_7
REMARK    2  A    between atoms: N_3  and  C_20
REMARK    3  A    between atoms: C_8  and  O_13
REMARK    4  A    between atoms: O_13  and  C_14
REMARK    5  A    between atoms: C_21  and  C_28
REMARK                            x       y       z     vdW  Elec       q    Type
REMARK                         _______ _______ _______ _____ _____    ______ ____
ROOT
ATOM      1  O   UNL     1      35.634 -22.604 -18.739  0.00  0.00    -0.252 OA
ATOM      2  N   UNL     1      36.865 -20.623 -18.919  0.00  0.00    -0.268 N 
ATOM      3  N   UNL     1      37.115 -21.952 -17.046  0.00  0.00    -0.268 N 
ATOM      4  C   UNL     1      36.450 -21.807 -18.287  0.00  0.00    +0.308 C 
ATOM      5  H   UNL     1      37.528 -20.084 -18.430  0.00  0.00    +0.156 HD
ATOM      6  H   UNL     1      37.745 -21.233 -16.812  0.00  0.00    +0.156 HD
ENDROOT
BRANCH   2   7
ATOM      7  C   UNL     1      36.445 -20.110 -20.168  0.00  0.00    +0.052 C 
ATOM      8  C   UNL     1      35.621 -19.103 -22.614  0.00  0.00    +0.145 C 
ATOM      9  C   UNL     1      37.333 -19.370 -20.930  0.00  0.00    +0.018 C 
ATOM     10  C   UNL     1      35.154 -20.357 -20.603  0.00  0.00    +0.018 C 
ATOM     11  C   UNL     1      36.919 -18.863 -22.161  0.00  0.00    +0.039 C 
ATOM     12  C   UNL     1      34.738 -19.851 -21.835  0.00  0.00    +0.039 C 
BRANCH   8  13
ATOM     13  O   UNL     1      35.218 -18.610 -23.816  0.00  0.00    -0.453 OA
BRANCH  13  14
ATOM     14  C   UNL     1      34.787 -17.294 -23.860  0.00  0.00    +0.145 C 
ATOM     15  C   UNL     1      34.214 -16.811 -25.022  0.00  0.00    +0.037 C 
ATOM     16  C   UNL     1      34.943 -16.498 -22.740  0.00  0.00    +0.037 C 
ATOM     17  C   UNL     1      33.781 -15.486 -25.067  0.00  0.00    +0.003 C 
ATOM     18  C   UNL     1      34.510 -15.173 -22.785  0.00  0.00    +0.003 C 
ATOM     19  C   UNL     1      33.929 -14.666 -23.948  0.00  0.00    +0.000 C 
ENDBRANCH  13  14
ENDBRANCH   8  13
ENDBRANCH   2   7
BRANCH   3  20
ATOM     20  C   UNL     1      36.996 -22.979 -16.108  0.00  0.00    +0.052 C 
ATOM     21  C   UNL     1      36.759 -25.030 -14.232  0.00  0.00    +0.031 C 
ATOM     22  C   UNL     1      38.140 -23.582 -15.586  0.00  0.00    +0.015 C 
ATOM     23  C   UNL     1      35.733 -23.400 -15.692  0.00  0.00    +0.015 C 
ATOM     24  C   UNL     1      38.022 -24.608 -14.648  0.00  0.00    +0.004 C 
ATOM     25  C   UNL     1      35.614 -24.426 -14.754  0.00  0.00    +0.004 C 
BRANCH  21  28
ATOM     26  N   UNL     1      37.164 -27.366 -13.493  0.00  0.00    -0.343 N 
ATOM     27  N   UNL     1      36.005 -25.878 -12.114  0.00  0.00    -0.285 NA
ATOM     28  C   UNL     1      36.634 -26.099 -13.253  0.00  0.00    +0.117 C 
ATOM     29  H   UNL     1      37.069 -28.074 -12.816  0.00  0.00    +0.144 HD
ATOM     30  H   UNL     1      37.634 -27.550 -14.337  0.00  0.00    +0.144 HD
ATOM     31  H   UNL     1      35.919 -26.599 -11.450  0.00  0.00    +0.188 HD
ENDBRANCH  21  28
ENDBRANCH   3  20
TORSDOF 5
ENDMDL
MODEL 5
REMARK VINA RESULT:     -10.6      3.773     10.625
REMARK  Name = 444581
REMARK  5 active torsions:
REMARK  status: ('A' for Active; 'I' for Inactive)
REMARK    1  A    between atoms: N_2  and  C_7
REMARK    2  A    between atoms: N_3  and  C_20
REMARK    3  A    between atoms: C_8  and  O_13
REMARK    4  A    between atoms: O_13  and  C_14
REMARK    5  A    between atoms: C_21  and  C_28
REMARK                            x       y       z     vdW  Elec       q    Type
REMARK                         _______ _______ _______ _____ _____    ______ ____
ROOT
ATOM      1  O   UNL     1      33.686 -19.605 -20.506  0.00  0.00    -0.252 OA
ATOM      2  N   UNL     1      35.657 -20.819 -20.169  0.00  0.00    -0.268 N 
ATOM      3  N   UNL     1      35.581 -19.209 -21.824  0.00  0.00    -0.268 N 
ATOM      4  C   UNL     1      34.851 -19.856 -20.798  0.00  0.00    +0.308 C 
ATOM      5  H   UNL     1      36.574 -20.905 -20.515  0.00  0.00    +0.156 HD
ATOM      6  H   UNL     1      36.509 -19.513 -21.945  0.00  0.00    +0.156 HD
ENDROOT
BRANCH   2   7
ATOM      7  C   UNL     1      35.312 -21.680 -19.101  0.00  0.00    +0.052 C 
ATOM      8  C   UNL     1      34.637 -23.367 -17.011  0.00  0.00    +0.145 C 
ATOM      9  C   UNL     1      36.210 -21.866 -18.064  0.00  0.00    +0.018 C 
ATOM     10  C   UNL     1      34.084 -22.319 -19.115  0.00  0.00    +0.018 C 
ATOM     11  C   UNL     1      35.871 -22.716 -17.011  0.00  0.00    +0.039 C 
ATOM     12  C   UNL     1      33.743 -23.169 -18.063  0.00  0.00    +0.039 C 
BRANCH   8  13
ATOM     13  O   UNL     1      34.305 -24.195 -15.982  0.00  0.00    -0.453 OA
BRANCH  13  14
ATOM     14  C   UNL     1      33.124 -23.940 -15.306  0.00  0.00    +0.145 C 
ATOM     15  C   UNL     1      33.116 -23.984 -13.924  0.00  0.00    +0.037 C 
ATOM     16  C   UNL     1      31.983 -23.647 -16.031  0.00  0.00    +0.037 C 
ATOM     17  C   UNL     1      31.926 -23.728 -13.243  0.00  0.00    +0.003 C 
ATOM     18  C   UNL     1      30.794 -23.390 -15.349  0.00  0.00    +0.003 C 
ATOM     19  C   UNL     1      30.765 -23.430 -13.955  0.00  0.00    +0.000 C 
ENDBRANCH  13  14
ENDBRANCH   8  13
ENDBRANCH   2   7
BRANCH   3  20
ATOM     20  C   UNL     1      35.160 -18.196 -22.687  0.00  0.00    +0.052 C 
ATOM     21  C   UNL     1      34.321 -16.171 -24.412  0.00  0.00    +0.031 C 
ATOM     22  C   UNL     1      35.177 -16.868 -22.263  0.00  0.00    +0.015 C 
ATOM     23  C   UNL     1      34.724 -18.512 -23.973  0.00  0.00    +0.015 C 
ATOM     24  C   UNL     1      34.757 -15.855 -23.126  0.00  0.00    +0.004 C 
ATOM     25  C   UNL     1      34.304 -17.500 -24.836  0.00  0.00    +0.004 C 
BRANCH  21  28
ATOM     26  N   UNL     1      33.488 -13.869 -24.830  0.00  0.00    -0.343 N 
ATOM     27  N   UNL     1      33.851 -15.332 -26.615  0.00  0.00    -0.285 NA
ATOM     28  C   UNL     1      33.883 -15.115 -25.312  0.00  0.00    +0.117 C 
ATOM     29  H   UNL     1      33.197 -13.169 -25.457  0.00  0.00    +0.144 HD
ATOM     30  H   UNL     1      33.503 -13.689 -23.862  0.00  0.00    +0.144 HD
ATOM     31  H   UNL     1      33.556 -14.620 -27.226  0.00  0.00    +0.188 HD
ENDBRANCH  21  28
ENDBRANCH   3  20
TORSDOF 5
ENDMDL
MODEL 6
REMARK VINA RESULT:     -10.5      3.399     10.834
REMARK  Name = 444581
REMARK  5 active torsions:
REMARK  status: ('A' for Active; 'I' for Inactive)
REMARK    1  A    between atoms: N_2  and  C_7
REMARK    2  A    between atoms: N_3  and  C_20
REMARK    3  A    between atoms: C_8  and  O_13
REMARK    4  A    between atoms: O_13  and  C_14
REMARK    5  A    between atoms: C_21  and  C_28
REMARK                            x       y       z     vdW  Elec       q    Type
REMARK                         _______ _______ _______ _____ _____    ______ ____
ROOT
ATOM      1  O   UNL     1      33.822 -19.649 -20.254  0.00  0.00    -0.252 OA
ATOM      2  N   UNL     1      35.707 -21.021 -20.077  0.00  0.00    -0.268 N 
ATOM      3  N   UNL     1      35.589 -19.464 -21.780  0.00  0.00    -0.268 N 
ATOM      4  C   UNL     1      34.922 -20.010 -20.657  0.00  0.00    +0.308 C 
ATOM      5  H   UNL     1      36.571 -21.199 -20.515  0.00  0.00    +0.156 HD
ATOM      6  H   UNL     1      36.469 -19.853 -21.986  0.00  0.00    +0.156 HD
ENDROOT
BRANCH   2   7
ATOM      7  C   UNL     1      35.409 -21.814 -18.945  0.00  0.00    +0.052 C 
ATOM      8  C   UNL     1      34.825 -23.368 -16.727  0.00  0.00    +0.145 C 
ATOM      9  C   UNL     1      36.366 -21.971 -17.956  0.00  0.00    +0.018 C 
ATOM     10  C   UNL     1      34.166 -22.417 -18.848  0.00  0.00    +0.018 C 
ATOM     11  C   UNL     1      36.073 -22.754 -16.840  0.00  0.00    +0.039 C 
ATOM     12  C   UNL     1      33.871 -23.199 -17.731  0.00  0.00    +0.039 C 
BRANCH   8  13
ATOM     13  O   UNL     1      34.538 -24.130 -15.637  0.00  0.00    -0.453 OA
BRANCH  13  14
ATOM     14  C   UNL     1      35.580 -24.453 -14.784  0.00  0.00    +0.145 C 
ATOM     15  C   UNL     1      36.187 -25.690 -14.899  0.00  0.00    +0.037 C 
ATOM     16  C   UNL     1      35.987 -23.528 -13.839  0.00  0.00    +0.037 C 
ATOM     17  C   UNL     1      37.236 -26.015 -14.040  0.00  0.00    +0.003 C 
ATOM     18  C   UNL     1      37.037 -23.853 -12.980  0.00  0.00    +0.003 C 
ATOM     19  C   UNL     1      37.662 -25.097 -13.081  0.00  0.00    +0.000 C 
ENDBRANCH  13  14
ENDBRANCH   8  13
ENDBRANCH   2   7
BRANCH   3  20
ATOM     20  C   UNL     1      35.164 -18.446 -22.634  0.00  0.00    +0.052 C 
ATOM     21  C   UNL     1      34.311 -16.411 -24.342  0.00  0.00    +0.031 C 
ATOM     22  C   UNL     1      34.649 -18.760 -23.891  0.00  0.00    +0.015 C 
ATOM     23  C   UNL     1      35.252 -17.114 -22.231  0.00  0.00    +0.015 C 
ATOM     24  C   UNL     1      34.223 -17.743 -24.746  0.00  0.00    +0.004 C 
ATOM     25  C   UNL     1      34.826 -16.096 -23.084  0.00  0.00    +0.004 C 
BRANCH  21  28
ATOM     26  N   UNL     1      33.455 -14.114 -24.736  0.00  0.00    -0.343 N 
ATOM     27  N   UNL     1      33.844 -15.551 -26.537  0.00  0.00    -0.285 NA
ATOM     28  C   UNL     1      33.867 -15.350 -25.232  0.00  0.00    +0.117 C 
ATOM     29  H   UNL     1      33.158 -13.410 -25.356  0.00  0.00    +0.144 HD
ATOM     30  H   UNL     1      33.461 -13.946 -23.767  0.00  0.00    +0.144 HD
ATOM     31  H   UNL     1      33.544 -14.835 -27.141  0.00  0.00    +0.188 HD
ENDBRANCH  21  28
ENDBRANCH   3  20
TORSDOF 5
ENDMDL
MODEL 7
REMARK VINA RESULT:     -10.3      2.926      3.635
REMARK  Name = 444581
REMARK  5 active torsions:
REMARK  status: ('A' for Active; 'I' for Inactive)
REMARK    1  A    between atoms: N_2  and  C_7
REMARK    2  A    between atoms: N_3  and  C_20
REMARK    3  A    between atoms: C_8  and  O_13
REMARK    4  A    between atoms: O_13  and  C_14
REMARK    5  A    between atoms: C_21  and  C_28
REMARK                            x       y       z     vdW  Elec       q    Type
REMARK                         _______ _______ _______ _____ _____    ______ ____
ROOT
ATOM      1  O   UNL     1      32.780 -21.568 -18.624  0.00  0.00    -0.252 OA
ATOM      2  N   UNL     1      35.081 -21.751 -18.995  0.00  0.00    -0.268 N 
ATOM      3  N   UNL     1      34.103 -22.968 -17.292  0.00  0.00    -0.268 N 
ATOM      4  C   UNL     1      33.874 -22.042 -18.338  0.00  0.00    +0.308 C 
ATOM      5  H   UNL     1      35.881 -22.212 -18.650  0.00  0.00    +0.156 HD
ATOM      6  H   UNL     1      35.035 -23.263 -17.179  0.00  0.00    +0.156 HD
ENDROOT
BRANCH   2   7
ATOM      7  C   UNL     1      35.289 -20.879 -20.089  0.00  0.00    +0.052 C 
ATOM      8  C   UNL     1      35.698 -19.173 -22.232  0.00  0.00    +0.145 C 
ATOM      9  C   UNL     1      34.246 -20.630 -20.965  0.00  0.00    +0.018 C 
ATOM     10  C   UNL     1      36.532 -20.293 -20.261  0.00  0.00    +0.018 C 
ATOM     11  C   UNL     1      34.451 -19.771 -22.045  0.00  0.00    +0.039 C 
ATOM     12  C   UNL     1      36.738 -19.433 -21.340  0.00  0.00    +0.039 C 
BRANCH   8  13
ATOM     13  O   UNL     1      35.898 -18.333 -23.285  0.00  0.00    -0.453 OA
BRANCH  13  14
ATOM     14  C   UNL     1      35.167 -17.157 -23.317  0.00  0.00    +0.145 C 
ATOM     15  C   UNL     1      34.622 -16.735 -24.516  0.00  0.00    +0.037 C 
ATOM     16  C   UNL     1      35.003 -16.434 -22.149  0.00  0.00    +0.037 C 
ATOM     17  C   UNL     1      33.887 -15.550 -24.548  0.00  0.00    +0.003 C 
ATOM     18  C   UNL     1      34.268 -15.249 -22.182  0.00  0.00    +0.003 C 
ATOM     19  C   UNL     1      33.710 -14.807 -23.382  0.00  0.00    +0.000 C 
ENDBRANCH  13  14
ENDBRANCH   8  13
ENDBRANCH   2   7
BRANCH   3  20
ATOM     20  C   UNL     1      33.183 -23.519 -16.399  0.00  0.00    +0.052 C 
ATOM     21  C   UNL     1      31.342 -24.621 -14.617  0.00  0.00    +0.031 C 
ATOM     22  C   UNL     1      31.821 -23.491 -16.697  0.00  0.00    +0.015 C 
ATOM     23  C   UNL     1      33.625 -24.098 -15.210  0.00  0.00    +0.015 C 
ATOM     24  C   UNL     1      30.900 -24.041 -15.806  0.00  0.00    +0.004 C 
ATOM     25  C   UNL     1      32.705 -24.649 -14.318  0.00  0.00    +0.004 C 
BRANCH  21  28
ATOM     26  N   UNL     1      29.189 -25.760 -14.134  0.00  0.00    -0.343 N 
ATOM     27  N   UNL     1      30.634 -25.185 -12.390  0.00  0.00    -0.285 NA
ATOM     28  C   UNL     1      30.382 -25.196 -13.686  0.00  0.00    +0.117 C 
ATOM     29  H   UNL     1      28.555 -26.145 -13.487  0.00  0.00    +0.144 HD
ATOM     30  H   UNL     1      28.982 -25.775 -15.095  0.00  0.00    +0.144 HD
ATOM     31  H   UNL     1      29.987 -25.573 -11.759  0.00  0.00    +0.188 HD
ENDBRANCH  21  28
ENDBRANCH   3  20
TORSDOF 5
ENDMDL
MODEL 8
REMARK VINA RESULT:     -10.2      2.430      3.613
REMARK  Name = 444581
REMARK  5 active torsions:
REMARK  status: ('A' for Active; 'I' for Inactive)
REMARK    1  A    between atoms: N_2  and  C_7
REMARK    2  A    between atoms: N_3  and  C_20
REMARK    3  A    between atoms: C_8  and  O_13
REMARK    4  A    between atoms: O_13  and  C_14
REMARK    5  A    between atoms: C_21  and  C_28
REMARK                            x       y       z     vdW  Elec       q    Type
REMARK                         _______ _______ _______ _____ _____    ______ ____
ROOT
ATOM      1  O   UNL     1      33.958 -20.534 -20.147  0.00  0.00    -0.252 OA
ATOM      2  N   UNL     1      35.914 -20.024 -21.322  0.00  0.00    -0.268 N 
ATOM      3  N   UNL     1      36.038 -21.322 -19.415  0.00  0.00    -0.268 N 
ATOM      4  C   UNL     1      35.174 -20.614 -20.285  0.00  0.00    +0.308 C 
ATOM      5  H   UNL     1      36.886 -20.178 -21.299  0.00  0.00    +0.156 HD
ATOM      6  H   UNL     1      36.993 -21.300 -19.651  0.00  0.00    +0.156 HD
ENDROOT
BRANCH   2   7
ATOM      7  C   UNL     1      35.435 -19.236 -22.394  0.00  0.00    +0.052 C 
ATOM      8  C   UNL     1      34.499 -17.692 -24.495  0.00  0.00    +0.145 C 
ATOM      9  C   UNL     1      34.684 -19.833 -23.393  0.00  0.00    +0.018 C 
ATOM     10  C   UNL     1      35.728 -17.882 -22.425  0.00  0.00    +0.018 C 
ATOM     11  C   UNL     1      34.212 -19.057 -24.451  0.00  0.00    +0.039 C 
ATOM     12  C   UNL     1      35.256 -17.104 -23.482  0.00  0.00    +0.039 C 
BRANCH   8  13
ATOM     13  O   UNL     1      34.037 -16.933 -25.527  0.00  0.00    -0.453 OA
BRANCH  13  14
ATOM     14  C   UNL     1      33.843 -15.582 -25.296  0.00  0.00    +0.145 C 
ATOM     15  C   UNL     1      33.663 -14.733 -26.372  0.00  0.00    +0.037 C 
ATOM     16  C   UNL     1      33.835 -15.117 -23.993  0.00  0.00    +0.037 C 
ATOM     17  C   UNL     1      33.468 -13.371 -26.139  0.00  0.00    +0.003 C 
ATOM     18  C   UNL     1      33.640 -13.755 -23.760  0.00  0.00    +0.003 C 
ATOM     19  C   UNL     1      33.457 -12.882 -24.833  0.00  0.00    +0.000 C 
ENDBRANCH  13  14
ENDBRANCH   8  13
ENDBRANCH   2   7
BRANCH   3  20
ATOM     20  C   UNL     1      35.716 -22.047 -18.267  0.00  0.00    +0.052 C 
ATOM     21  C   UNL     1      35.072 -23.498 -15.974  0.00  0.00    +0.031 C 
ATOM     22  C   UNL     1      34.477 -22.678 -18.167  0.00  0.00    +0.015 C 
ATOM     23  C   UNL     1      36.634 -22.141 -17.221  0.00  0.00    +0.015 C 
ATOM     24  C   UNL     1      34.154 -23.404 -17.019  0.00  0.00    +0.004 C 
ATOM     25  C   UNL     1      36.313 -22.867 -16.074  0.00  0.00    +0.004 C 
BRANCH  21  28
ATOM     26  N   UNL     1      35.153 -25.576 -14.616  0.00  0.00    -0.343 N 
ATOM     27  N   UNL     1      34.021 -23.693 -13.821  0.00  0.00    -0.285 NA
ATOM     28  C   UNL     1      34.737 -24.255 -14.778  0.00  0.00    +0.117 C 
ATOM     29  H   UNL     1      34.916 -26.069 -13.798  0.00  0.00    +0.144 HD
ATOM     30  H   UNL     1      35.685 -26.013 -15.319  0.00  0.00    +0.144 HD
ATOM     31  H   UNL     1      33.793 -24.202 -13.011  0.00  0.00    +0.188 HD
ENDBRANCH  21  28
ENDBRANCH   3  20
TORSDOF 5
ENDMDL
MODEL 9
REMARK VINA RESULT:     -10.2      4.784     11.257
REMARK  Name = 444581
REMARK  5 active torsions:
REMARK  status: ('A' for Active; 'I' for Inactive)
REMARK    1  A    between atoms: N_2  and  C_7
REMARK    2  A    between atoms: N_3  and  C_20
REMARK    3  A    between atoms: C_8  and  O_13
REMARK    4  A    between atoms: O_13  and  C_14
REMARK    5  A    between atoms: C_21  and  C_28
REMARK                            x       y       z     vdW  Elec       q    Type
REMARK                         _______ _______ _______ _____ _____    ______ ____
ROOT
ATOM      1  O   UNL     1      34.553 -15.825 -20.597  0.00  0.00    -0.252 OA
ATOM      2  N   UNL     1      34.798 -17.457 -22.255  0.00  0.00    -0.268 N 
ATOM      3  N   UNL     1      34.062 -15.346 -22.837  0.00  0.00    -0.268 N 
ATOM      4  C   UNL     1      34.480 -16.178 -21.770  0.00  0.00    +0.308 C 
ATOM      5  H   UNL     1      34.689 -17.589 -23.224  0.00  0.00    +0.156 HD
ATOM      6  H   UNL     1      34.053 -15.765 -23.727  0.00  0.00    +0.156 HD
ENDROOT
BRANCH   2   7
ATOM      7  C   UNL     1      35.254 -18.577 -21.522  0.00  0.00    +0.052 C 
ATOM      8  C   UNL     1      36.147 -20.773 -20.088  0.00  0.00    +0.145 C 
ATOM      9  C   UNL     1      36.603 -18.693 -21.229  0.00  0.00    +0.018 C 
ATOM     10  C   UNL     1      34.343 -19.536 -21.113  0.00  0.00    +0.018 C 
ATOM     11  C   UNL     1      37.053 -19.798 -20.508  0.00  0.00    +0.039 C 
ATOM     12  C   UNL     1      34.792 -20.642 -20.391  0.00  0.00    +0.039 C 
BRANCH   8  13
ATOM     13  O   UNL     1      36.586 -21.851 -19.382  0.00  0.00    -0.453 OA
BRANCH  13  14
ATOM     14  C   UNL     1      35.768 -22.339 -18.378  0.00  0.00    +0.145 C 
ATOM     15  C   UNL     1      34.483 -22.741 -18.691  0.00  0.00    +0.037 C 
ATOM     16  C   UNL     1      36.258 -22.411 -17.086  0.00  0.00    +0.037 C 
ATOM     17  C   UNL     1      33.658 -23.232 -17.679  0.00  0.00    +0.003 C 
ATOM     18  C   UNL     1      35.433 -22.903 -16.074  0.00  0.00    +0.003 C 
ATOM     19  C   UNL     1      34.133 -23.313 -16.371  0.00  0.00    +0.000 C 
ENDBRANCH  13  14
ENDBRANCH   8  13
ENDBRANCH   2   7
BRANCH   3  20
ATOM     20  C   UNL     1      33.659 -14.010 -22.793  0.00  0.00    +0.052 C 
ATOM     21  C   UNL     1      32.855 -11.341 -22.704  0.00  0.00    +0.031 C 
ATOM     22  C   UNL     1      32.711 -13.598 -21.858  0.00  0.00    +0.015 C 
ATOM     23  C   UNL     1      34.206 -13.088 -23.684  0.00  0.00    +0.015 C 
ATOM     24  C   UNL     1      32.308 -12.264 -21.813  0.00  0.00    +0.004 C 
ATOM     25  C   UNL     1      33.804 -11.753 -23.640  0.00  0.00    +0.004 C 
BRANCH  21  28
ATOM     26  N   UNL     1      31.148  -9.591 -22.264  0.00  0.00    -0.343 N 
ATOM     27  N   UNL     1      33.285  -8.995 -22.998  0.00  0.00    -0.285 NA
ATOM     28  C   UNL     1      32.437  -9.948 -22.658  0.00  0.00    +0.117 C 
ATOM     29  H   UNL     1      30.887  -8.643 -22.239  0.00  0.00    +0.144 HD
ATOM     30  H   UNL     1      30.501 -10.288 -22.010  0.00  0.00    +0.144 HD
ATOM     31  H   UNL     1      33.004  -8.052 -22.968  0.00  0.00    +0.188 HD
ENDBRANCH  21  28
ENDBRANCH   3  20
TORSDOF 5
ENDMDL
