MODEL 1
REMARK VINA RESULT:     -11.9      0.000      0.000
REMARK  Name = 11282283
REMARK  4 active torsions:
REMARK  status: ('A' for Active; 'I' for Inactive)
REMARK    1  A    between atoms: N_3  and  C_21
REMARK    2  A    between atoms: C_21  and  N_22
REMARK    3  A    between atoms: N_22  and  C_24
REMARK    4  A    between atoms: C_24  and  C_27
REMARK                            x       y       z     vdW  Elec       q    Type
REMARK                         _______ _______ _______ _____ _____    ______ ____
ROOT
ATOM      1  O   UNL     1      32.907 -10.084 -22.088  0.00  0.00    -0.466 OA
ATOM      2  N   UNL     1      32.747 -12.945 -21.421  0.00  0.00    -0.290 N 
ATOM      3  N   UNL     1      33.851 -15.035 -23.065  0.00  0.00    -0.288 N 
ATOM      4  N   UNL     1      31.568 -12.223 -19.471  0.00  0.00    -0.230 NA
ATOM      5  N   UNL     1      31.134  -9.861 -19.029  0.00  0.00    -0.245 NA
ATOM      6  C   UNL     1      33.228 -14.195 -20.823  0.00  0.00    +0.113 C 
ATOM      7  C   UNL     1      32.842 -12.784 -22.876  0.00  0.00    +0.113 C 
ATOM      8  C   UNL     1      34.306 -14.832 -21.698  0.00  0.00    +0.114 C 
ATOM      9  C   UNL     1      32.819 -14.143 -23.573  0.00  0.00    +0.114 C 
ATOM     10  C   UNL     1      32.209 -11.935 -20.625  0.00  0.00    +0.152 C 
ATOM     11  C   UNL     1      32.314 -10.607 -20.984  0.00  0.00    +0.258 C 
ATOM     12  C   UNL     1      31.781  -9.601 -20.192  0.00  0.00    +0.106 C 
ATOM     13  C   UNL     1      32.065  -8.377 -20.851  0.00  0.00    +0.051 C 
ATOM     14  C   UNL     1      32.758  -8.729 -22.010  0.00  0.00    +0.141 C 
ATOM     15  C   UNL     1      31.077 -11.184 -18.755  0.00  0.00    +0.251 C 
ATOM     16  C   UNL     1      31.818  -7.016 -20.604  0.00  0.00    +0.004 C 
ATOM     17  C   UNL     1      33.225  -7.808 -22.947  0.00  0.00    +0.037 C 
ATOM     18  C   UNL     1      32.276  -6.069 -21.530  0.00  0.00    +0.000 C 
ATOM     19  C   UNL     1      32.967  -6.461 -22.679  0.00  0.00    +0.003 C 
ENDROOT
BRANCH   3  21
ATOM     20  S   UNL     1      34.062 -16.085 -25.482  0.00  0.00    -0.019 S 
ATOM     21  C   UNL     1      34.370 -16.021 -23.838  0.00  0.00    +0.135 C 
BRANCH  21  22
ATOM     22  N   UNL     1      35.158 -16.963 -23.226  0.00  0.00    -0.312 N 
ATOM     23  H   UNL     1      35.874 -16.632 -22.638  0.00  0.00    +0.149 HD
BRANCH  22  24
ATOM     24  C   UNL     1      35.033 -18.400 -23.365  0.00  0.00    +0.116 C 
BRANCH  24  27
ATOM     25  O   UNL     1      34.557 -21.668 -19.695  0.00  0.00    -0.435 OA
ATOM     26  O   UNL     1      36.748 -21.178 -18.818  0.00  0.00    -0.435 OA
ATOM     27  C   UNL     1      35.525 -19.127 -22.147  0.00  0.00    +0.001 C 
ATOM     28  C   UNL     1      34.708 -20.076 -21.539  0.00  0.00    +0.038 C 
ATOM     29  C   UNL     1      36.800 -18.837 -21.643  0.00  0.00    +0.001 C 
ATOM     30  C   UNL     1      35.203 -20.718 -20.423  0.00  0.00    +0.176 C 
ATOM     31  C   UNL     1      36.454 -20.437 -19.922  0.00  0.00    +0.176 C 
ATOM     32  C   UNL     1      37.279 -19.500 -20.511  0.00  0.00    +0.040 C 
ATOM     33  C   UNL     1      35.542 -21.956 -18.681  0.00  0.00    +0.429 C 
ENDBRANCH  24  27
ENDBRANCH  22  24
ENDBRANCH  21  22
ENDBRANCH   3  21
TORSDOF 4
ENDMDL
MODEL 2
REMARK VINA RESULT:     -11.7      3.282     11.273
REMARK  Name = 11282283
REMARK  4 active torsions:
REMARK  status: ('A' for Active; 'I' for Inactive)
REMARK    1  A    between atoms: N_3  and  C_21
REMARK    2  A    between atoms: C_21  and  N_22
REMARK    3  A    between atoms: N_22  and  C_24
REMARK    4  A    between atoms: C_24  and  C_27
REMARK                            x       y       z     vdW  Elec       q    Type
REMARK                         _______ _______ _______ _____ _____    ______ ____
ROOT
ATOM      1  O   UNL     1      34.194 -15.229 -22.273  0.00  0.00    -0.466 OA
ATOM      2  N   UNL     1      33.127 -12.749 -23.441  0.00  0.00    -0.290 N 
ATOM      3  N   UNL     1      32.400 -10.435 -21.890  0.00  0.00    -0.288 N 
ATOM      4  N   UNL     1      33.339 -13.876 -25.538  0.00  0.00    -0.230 NA
ATOM      5  N   UNL     1      34.197 -16.157 -25.692  0.00  0.00    -0.245 NA
ATOM      6  C   UNL     1      33.230 -11.401 -24.010  0.00  0.00    +0.113 C 
ATOM      7  C   UNL     1      32.645 -12.890 -22.062  0.00  0.00    +0.113 C 
ATOM      8  C   UNL     1      33.437 -10.363 -22.909  0.00  0.00    +0.114 C 
ATOM      9  C   UNL     1      31.744 -11.717 -21.682  0.00  0.00    +0.114 C 
ATOM     10  C   UNL     1      33.476 -13.869 -24.193  0.00  0.00    +0.152 C 
ATOM     11  C   UNL     1      33.974 -15.008 -23.595  0.00  0.00    +0.258 C 
ATOM     12  C   UNL     1      34.323 -16.123 -24.343  0.00  0.00    +0.106 C 
ATOM     13  C   UNL     1      34.790 -17.095 -23.421  0.00  0.00    +0.051 C 
ATOM     14  C   UNL     1      34.691 -16.497 -22.165  0.00  0.00    +0.141 C 
ATOM     15  C   UNL     1      33.703 -15.003 -26.195  0.00  0.00    +0.251 C 
ATOM     16  C   UNL     1      35.284 -18.408 -23.502  0.00  0.00    +0.004 C 
ATOM     17  C   UNL     1      35.054 -17.124 -20.974  0.00  0.00    +0.037 C 
ATOM     18  C   UNL     1      35.656 -19.062 -22.320  0.00  0.00    +0.000 C 
ATOM     19  C   UNL     1      35.542 -18.429 -21.080  0.00  0.00    +0.003 C 
ENDROOT
BRANCH   3  21
ATOM     20  S   UNL     1      32.050  -9.387 -19.489  0.00  0.00    -0.019 S 
ATOM     21  C   UNL     1      32.057  -9.343 -21.161  0.00  0.00    +0.135 C 
BRANCH  21  22
ATOM     22  N   UNL     1      31.718  -8.202 -21.843  0.00  0.00    -0.312 N 
ATOM     23  H   UNL     1      31.065  -8.295 -22.574  0.00  0.00    +0.149 HD
BRANCH  22  24
ATOM     24  C   UNL     1      32.231  -6.870 -21.585  0.00  0.00    +0.116 C 
BRANCH  24  27
ATOM     25  O   UNL     1      31.596  -3.253 -24.885  0.00  0.00    -0.435 OA
ATOM     26  O   UNL     1      33.377  -4.065 -26.291  0.00  0.00    -0.435 OA
ATOM     27  C   UNL     1      32.565  -6.142 -22.855  0.00  0.00    +0.001 C 
ATOM     28  C   UNL     1      31.841  -5.006 -23.203  0.00  0.00    +0.038 C 
ATOM     29  C   UNL     1      33.602  -6.620 -23.667  0.00  0.00    +0.001 C 
ATOM     30  C   UNL     1      32.185  -4.370 -24.378  0.00  0.00    +0.176 C 
ATOM     31  C   UNL     1      33.202  -4.834 -25.181  0.00  0.00    +0.176 C 
ATOM     32  C   UNL     1      33.931  -5.959 -24.852  0.00  0.00    +0.040 C 
ATOM     33  C   UNL     1      32.356  -3.065 -26.096  0.00  0.00    +0.429 C 
ENDBRANCH  24  27
ENDBRANCH  22  24
ENDBRANCH  21  22
ENDBRANCH   3  21
TORSDOF 4
ENDMDL
MODEL 3
REMARK VINA RESULT:     -10.9      4.095      6.927
REMARK  Name = 11282283
REMARK  4 active torsions:
REMARK  status: ('A' for Active; 'I' for Inactive)
REMARK    1  A    between atoms: N_3  and  C_21
REMARK    2  A    between atoms: C_21  and  N_22
REMARK    3  A    between atoms: N_22  and  C_24
REMARK    4  A    between atoms: C_24  and  C_27
REMARK                            x       y       z     vdW  Elec       q    Type
REMARK                         _______ _______ _______ _____ _____    ______ ____
ROOT
ATOM      1  O   UNL     1      33.639  -5.782 -24.656  0.00  0.00    -0.466 OA
ATOM      2  N   UNL     1      31.654  -6.585 -22.639  0.00  0.00    -0.290 N 
ATOM      3  N   UNL     1      31.766  -9.066 -21.183  0.00  0.00    -0.288 N 
ATOM      4  N   UNL     1      30.596  -4.500 -23.134  0.00  0.00    -0.230 NA
ATOM      5  N   UNL     1      31.509  -2.955 -24.791  0.00  0.00    -0.245 NA
ATOM      6  C   UNL     1      31.110  -6.683 -21.280  0.00  0.00    +0.113 C 
ATOM      7  C   UNL     1      32.256  -7.781 -23.239  0.00  0.00    +0.113 C 
ATOM      8  C   UNL     1      31.818  -7.785 -20.494  0.00  0.00    +0.114 C 
ATOM      9  C   UNL     1      31.658  -9.049 -22.634  0.00  0.00    +0.114 C 
ATOM     10  C   UNL     1      31.596  -5.385 -23.345  0.00  0.00    +0.152 C 
ATOM     11  C   UNL     1      32.555  -5.056 -24.280  0.00  0.00    +0.258 C 
ATOM     12  C   UNL     1      32.499  -3.860 -24.982  0.00  0.00    +0.106 C 
ATOM     13  C   UNL     1      33.624  -3.850 -25.847  0.00  0.00    +0.051 C 
ATOM     14  C   UNL     1      34.291  -5.051 -25.608  0.00  0.00    +0.141 C 
ATOM     15  C   UNL     1      30.614  -3.356 -23.860  0.00  0.00    +0.251 C 
ATOM     16  C   UNL     1      34.154  -2.966 -26.802  0.00  0.00    +0.004 C 
ATOM     17  C   UNL     1      35.461  -5.434 -26.261  0.00  0.00    +0.037 C 
ATOM     18  C   UNL     1      35.330  -3.326 -27.474  0.00  0.00    +0.000 C 
ATOM     19  C   UNL     1      35.970  -4.539 -27.207  0.00  0.00    +0.003 C 
ENDROOT
BRANCH   3  21
ATOM     20  S   UNL     1      31.825 -10.255 -18.823  0.00  0.00    -0.019 S 
ATOM     21  C   UNL     1      31.818 -10.235 -20.496  0.00  0.00    +0.135 C 
BRANCH  21  22
ATOM     22  N   UNL     1      31.861 -11.399 -21.221  0.00  0.00    -0.312 N 
ATOM     23  H   UNL     1      32.120 -11.326 -22.167  0.00  0.00    +0.149 HD
BRANCH  22  24
ATOM     24  C   UNL     1      31.563 -12.727 -20.720  0.00  0.00    +0.116 C 
BRANCH  24  27
ATOM     25  O   UNL     1      33.981 -15.119 -24.298  0.00  0.00    -0.435 OA
ATOM     26  O   UNL     1      35.174 -16.503 -22.727  0.00  0.00    -0.435 OA
ATOM     27  C   UNL     1      32.539 -13.749 -21.224  0.00  0.00    +0.001 C 
ATOM     28  C   UNL     1      32.743 -13.885 -22.594  0.00  0.00    +0.038 C 
ATOM     29  C   UNL     1      33.229 -14.551 -20.304  0.00  0.00    +0.001 C 
ATOM     30  C   UNL     1      33.650 -14.838 -23.009  0.00  0.00    +0.176 C 
ATOM     31  C   UNL     1      34.331 -15.629 -22.111  0.00  0.00    +0.176 C 
ATOM     32  C   UNL     1      34.142 -15.509 -20.749  0.00  0.00    +0.040 C 
ATOM     33  C   UNL     1      34.947 -16.173 -24.112  0.00  0.00    +0.429 C 
ENDBRANCH  24  27
ENDBRANCH  22  24
ENDBRANCH  21  22
ENDBRANCH   3  21
TORSDOF 4
ENDMDL
MODEL 4
REMARK VINA RESULT:     -10.5      2.633      4.163
REMARK  Name = 11282283
REMARK  4 active torsions:
REMARK  status: ('A' for Active; 'I' for Inactive)
REMARK    1  A    between atoms: N_3  and  C_21
REMARK    2  A    between atoms: C_21  and  N_22
REMARK    3  A    between atoms: N_22  and  C_24
REMARK    4  A    between atoms: C_24  and  C_27
REMARK                            x       y       z     vdW  Elec       q    Type
REMARK                         _______ _______ _______ _____ _____    ______ ____
ROOT
ATOM      1  O   UNL     1      32.836 -13.635 -21.569  0.00  0.00    -0.466 OA
ATOM      2  N   UNL     1      34.260 -15.240 -23.582  0.00  0.00    -0.290 N 
ATOM      3  N   UNL     1      34.762 -18.062 -23.315  0.00  0.00    -0.288 N 
ATOM      4  N   UNL     1      34.441 -13.192 -24.801  0.00  0.00    -0.230 NA
ATOM      5  N   UNL     1      33.515 -11.100 -23.949  0.00  0.00    -0.245 NA
ATOM      6  C   UNL     1      34.354 -16.101 -24.766  0.00  0.00    +0.113 C 
ATOM      7  C   UNL     1      34.427 -15.851 -22.259  0.00  0.00    +0.113 C 
ATOM      8  C   UNL     1      33.972 -17.539 -24.420  0.00  0.00    +0.114 C 
ATOM      9  C   UNL     1      35.287 -17.109 -22.349  0.00  0.00    +0.114 C 
ATOM     10  C   UNL     1      34.020 -13.873 -23.712  0.00  0.00    +0.152 C 
ATOM     11  C   UNL     1      33.345 -13.167 -22.738  0.00  0.00    +0.258 C 
ATOM     12  C   UNL     1      33.105 -11.807 -22.867  0.00  0.00    +0.106 C 
ATOM     13  C   UNL     1      32.400 -11.411 -21.701  0.00  0.00    +0.051 C 
ATOM     14  C   UNL     1      32.260 -12.570 -20.938  0.00  0.00    +0.141 C 
ATOM     15  C   UNL     1      34.166 -11.867 -24.852  0.00  0.00    +0.251 C 
ATOM     16  C   UNL     1      31.866 -10.211 -21.204  0.00  0.00    +0.004 C 
ATOM     17  C   UNL     1      31.618 -12.614 -19.701  0.00  0.00    +0.037 C 
ATOM     18  C   UNL     1      31.214 -10.226 -19.963  0.00  0.00    +0.000 C 
ATOM     19  C   UNL     1      31.094 -11.407 -19.227  0.00  0.00    +0.003 C 
ENDROOT
BRANCH   3  21
ATOM     20  S   UNL     1      35.296 -20.347 -24.533  0.00  0.00    -0.019 S 
ATOM     21  C   UNL     1      34.999 -19.392 -23.191  0.00  0.00    +0.135 C 
BRANCH  21  22
ATOM     22  N   UNL     1      34.989 -19.926 -21.927  0.00  0.00    -0.312 N 
ATOM     23  H   UNL     1      35.850 -20.239 -21.568  0.00  0.00    +0.149 HD
BRANCH  22  24
ATOM     24  C   UNL     1      33.828 -20.071 -21.071  0.00  0.00    +0.116 C 
BRANCH  24  27
ATOM     25  O   UNL     1      32.372 -23.054 -17.417  0.00  0.00    -0.435 OA
ATOM     26  O   UNL     1      34.637 -23.627 -16.826  0.00  0.00    -0.435 OA
ATOM     27  C   UNL     1      34.081 -21.022 -19.938  0.00  0.00    +0.001 C 
ATOM     28  C   UNL     1      33.003 -21.561 -19.243  0.00  0.00    +0.038 C 
ATOM     29  C   UNL     1      35.401 -21.351 -19.600  0.00  0.00    +0.001 C 
ATOM     30  C   UNL     1      33.285 -22.431 -18.209  0.00  0.00    +0.176 C 
ATOM     31  C   UNL     1      34.579 -22.758 -17.872  0.00  0.00    +0.176 C 
ATOM     32  C   UNL     1      35.661 -22.233 -18.550  0.00  0.00    +0.040 C 
ATOM     33  C   UNL     1      33.235 -23.811 -16.544  0.00  0.00    +0.429 C 
ENDBRANCH  24  27
ENDBRANCH  22  24
ENDBRANCH  21  22
ENDBRANCH   3  21
TORSDOF 4
ENDMDL
MODEL 5
REMARK VINA RESULT:     -10.2      5.779     11.986
REMARK  Name = 11282283
REMARK  4 active torsions:
REMARK  status: ('A' for Active; 'I' for Inactive)
REMARK    1  A    between atoms: N_3  and  C_21
REMARK    2  A    between atoms: C_21  and  N_22
REMARK    3  A    between atoms: N_22  and  C_24
REMARK    4  A    between atoms: C_24  and  C_27
REMARK                            x       y       z     vdW  Elec       q    Type
REMARK                         _______ _______ _______ _____ _____    ______ ____
ROOT
ATOM      1  O   UNL     1      33.292 -23.167 -15.942  0.00  0.00    -0.466 OA
ATOM      2  N   UNL     1      35.850 -22.588 -17.275  0.00  0.00    -0.290 N 
ATOM      3  N   UNL     1      36.101 -20.889 -19.585  0.00  0.00    -0.288 N 
ATOM      4  N   UNL     1      36.813 -24.008 -15.612  0.00  0.00    -0.230 NA
ATOM      5  N   UNL     1      35.454 -25.079 -13.888  0.00  0.00    -0.245 NA
ATOM      6  C   UNL     1      37.076 -21.820 -17.512  0.00  0.00    +0.113 C 
ATOM      7  C   UNL     1      34.753 -22.470 -18.243  0.00  0.00    +0.113 C 
ATOM      8  C   UNL     1      36.779 -20.570 -18.339  0.00  0.00    +0.114 C 
ATOM      9  C   UNL     1      35.289 -22.096 -19.623  0.00  0.00    +0.114 C 
ATOM     10  C   UNL     1      35.730 -23.413 -16.158  0.00  0.00    +0.152 C 
ATOM     11  C   UNL     1      34.505 -23.650 -15.570  0.00  0.00    +0.258 C 
ATOM     12  C   UNL     1      34.385 -24.470 -14.457  0.00  0.00    +0.106 C 
ATOM     13  C   UNL     1      33.007 -24.492 -14.121  0.00  0.00    +0.051 C 
ATOM     14  C   UNL     1      32.379 -23.677 -15.063  0.00  0.00    +0.141 C 
ATOM     15  C   UNL     1      36.612 -24.793 -14.526  0.00  0.00    +0.251 C 
ATOM     16  C   UNL     1      32.218 -25.106 -13.133  0.00  0.00    +0.004 C 
ATOM     17  C   UNL     1      31.008 -23.428 -15.086  0.00  0.00    +0.037 C 
ATOM     18  C   UNL     1      30.836 -24.874 -13.133  0.00  0.00    +0.000 C 
ATOM     19  C   UNL     1      30.244 -24.050 -14.094  0.00  0.00    +0.003 C 
ENDROOT
BRANCH   3  21
ATOM     20  S   UNL     1      37.620 -19.215 -20.956  0.00  0.00    -0.019 S 
ATOM     21  C   UNL     1      36.221 -20.089 -20.674  0.00  0.00    +0.135 C 
BRANCH  21  22
ATOM     22  N   UNL     1      35.156 -20.023 -21.538  0.00  0.00    -0.312 N 
ATOM     23  H   UNL     1      34.260 -20.150 -21.152  0.00  0.00    +0.149 HD
BRANCH  22  24
ATOM     24  C   UNL     1      35.230 -19.781 -22.965  0.00  0.00    +0.116 C 
BRANCH  24  27
ATOM     25  O   UNL     1      33.757 -16.233 -26.067  0.00  0.00    -0.435 OA
ATOM     26  O   UNL     1      33.956 -14.519 -24.385  0.00  0.00    -0.435 OA
ATOM     27  C   UNL     1      34.896 -18.359 -23.312  0.00  0.00    +0.001 C 
ATOM     28  C   UNL     1      34.476 -18.049 -24.602  0.00  0.00    +0.038 C 
ATOM     29  C   UNL     1      35.014 -17.368 -22.328  0.00  0.00    +0.001 C 
ATOM     30  C   UNL     1      34.180 -16.729 -24.872  0.00  0.00    +0.176 C 
ATOM     31  C   UNL     1      34.293 -15.750 -23.911  0.00  0.00    +0.176 C 
ATOM     32  C   UNL     1      34.709 -16.038 -22.627  0.00  0.00    +0.040 C 
ATOM     33  C   UNL     1      33.617 -14.833 -25.750  0.00  0.00    +0.429 C 
ENDBRANCH  24  27
ENDBRANCH  22  24
ENDBRANCH  21  22
ENDBRANCH   3  21
TORSDOF 4
ENDMDL
MODEL 6
REMARK VINA RESULT:     -10.1      5.148     11.959
REMARK  Name = 11282283
REMARK  4 active torsions:
REMARK  status: ('A' for Active; 'I' for Inactive)
REMARK    1  A    between atoms: N_3  and  C_21
REMARK    2  A    between atoms: C_21  and  N_22
REMARK    3  A    between atoms: N_22  and  C_24
REMARK    4  A    between atoms: C_24  and  C_27
REMARK                            x       y       z     vdW  Elec       q    Type
REMARK                         _______ _______ _______ _____ _____    ______ ____
ROOT
ATOM      1  O   UNL     1      33.287 -23.195 -15.927  0.00  0.00    -0.466 OA
ATOM      2  N   UNL     1      35.851 -22.619 -17.248  0.00  0.00    -0.290 N 
ATOM      3  N   UNL     1      36.117 -20.908 -19.548  0.00  0.00    -0.288 N 
ATOM      4  N   UNL     1      36.804 -24.052 -15.590  0.00  0.00    -0.230 NA
ATOM      5  N   UNL     1      35.434 -25.127 -13.877  0.00  0.00    -0.245 NA
ATOM      6  C   UNL     1      37.082 -21.854 -17.476  0.00  0.00    +0.113 C 
ATOM      7  C   UNL     1      34.759 -22.491 -18.219  0.00  0.00    +0.113 C 
ATOM      8  C   UNL     1      36.793 -20.598 -18.297  0.00  0.00    +0.114 C 
ATOM      9  C   UNL     1      35.301 -22.111 -19.595  0.00  0.00    +0.114 C 
ATOM     10  C   UNL     1      35.724 -23.450 -16.137  0.00  0.00    +0.152 C 
ATOM     11  C   UNL     1      34.497 -23.685 -15.554  0.00  0.00    +0.258 C 
ATOM     12  C   UNL     1      34.369 -24.511 -14.446  0.00  0.00    +0.106 C 
ATOM     13  C   UNL     1      32.990 -24.529 -14.115  0.00  0.00    +0.051 C 
ATOM     14  C   UNL     1      32.369 -23.705 -15.054  0.00  0.00    +0.141 C 
ATOM     15  C   UNL     1      36.595 -24.842 -14.509  0.00  0.00    +0.251 C 
ATOM     16  C   UNL     1      32.196 -25.145 -13.133  0.00  0.00    +0.004 C 
ATOM     17  C   UNL     1      30.999 -23.451 -15.080  0.00  0.00    +0.037 C 
ATOM     18  C   UNL     1      30.815 -24.907 -13.136  0.00  0.00    +0.000 C 
ATOM     19  C   UNL     1      30.229 -24.075 -14.094  0.00  0.00    +0.003 C 
ENDROOT
BRANCH   3  21
ATOM     20  S   UNL     1      37.663 -19.265 -20.926  0.00  0.00    -0.019 S 
ATOM     21  C   UNL     1      36.244 -20.101 -20.632  0.00  0.00    +0.135 C 
BRANCH  21  22
ATOM     22  N   UNL     1      35.170 -19.998 -21.479  0.00  0.00    -0.312 N 
ATOM     23  H   UNL     1      34.276 -20.091 -21.079  0.00  0.00    +0.149 HD
BRANCH  22  24
ATOM     24  C   UNL     1      35.231 -19.763 -22.908  0.00  0.00    +0.116 C 
BRANCH  24  27
ATOM     25  O   UNL     1      34.728 -14.975 -21.812  0.00  0.00    -0.435 OA
ATOM     26  O   UNL     1      34.131 -14.400 -24.074  0.00  0.00    -0.435 OA
ATOM     27  C   UNL     1      34.930 -18.334 -23.255  0.00  0.00    +0.001 C 
ATOM     28  C   UNL     1      34.999 -17.359 -22.265  0.00  0.00    +0.038 C 
ATOM     29  C   UNL     1      34.584 -18.007 -24.574  0.00  0.00    +0.001 C 
ATOM     30  C   UNL     1      34.715 -16.060 -22.633  0.00  0.00    +0.176 C 
ATOM     31  C   UNL     1      34.374 -15.731 -23.925  0.00  0.00    +0.176 C 
ATOM     32  C   UNL     1      34.300 -16.685 -24.921  0.00  0.00    +0.040 C 
ATOM     33  C   UNL     1      34.358 -13.928 -22.731  0.00  0.00    +0.429 C 
ENDBRANCH  24  27
ENDBRANCH  22  24
ENDBRANCH  21  22
ENDBRANCH   3  21
TORSDOF 4
ENDMDL
MODEL 7
REMARK VINA RESULT:     -10.0      3.598      6.174
REMARK  Name = 11282283
REMARK  4 active torsions:
REMARK  status: ('A' for Active; 'I' for Inactive)
REMARK    1  A    between atoms: N_3  and  C_21
REMARK    2  A    between atoms: C_21  and  N_22
REMARK    3  A    between atoms: N_22  and  C_24
REMARK    4  A    between atoms: C_24  and  C_27
REMARK                            x       y       z     vdW  Elec       q    Type
REMARK                         _______ _______ _______ _____ _____    ______ ____
ROOT
ATOM      1  O   UNL     1      32.546  -6.075 -24.249  0.00  0.00    -0.466 OA
ATOM      2  N   UNL     1      31.338  -7.432 -21.935  0.00  0.00    -0.290 N 
ATOM      3  N   UNL     1      31.746 -10.215 -21.320  0.00  0.00    -0.288 N 
ATOM      4  N   UNL     1      30.354  -5.309 -21.452  0.00  0.00    -0.230 NA
ATOM      5  N   UNL     1      30.751  -3.354 -22.861  0.00  0.00    -0.245 NA
ATOM      6  C   UNL     1      31.301  -7.908 -20.548  0.00  0.00    +0.113 C 
ATOM      7  C   UNL     1      31.587  -8.408 -23.002  0.00  0.00    +0.113 C 
ATOM      8  C   UNL     1      32.145  -9.171 -20.387  0.00  0.00    +0.114 C 
ATOM      9  C   UNL     1      31.135  -9.803 -22.575  0.00  0.00    +0.114 C 
ATOM     10  C   UNL     1      31.136  -6.086 -22.233  0.00  0.00    +0.152 C 
ATOM     11  C   UNL     1      31.729  -5.498 -23.331  0.00  0.00    +0.258 C 
ATOM     12  C   UNL     1      31.530  -4.157 -23.627  0.00  0.00    +0.106 C 
ATOM     13  C   UNL     1      32.276  -3.892 -24.805  0.00  0.00    +0.051 C 
ATOM     14  C   UNL     1      32.880  -5.101 -25.146  0.00  0.00    +0.141 C 
ATOM     15  C   UNL     1      30.211  -4.010 -21.809  0.00  0.00    +0.251 C 
ATOM     16  C   UNL     1      32.508  -2.771 -25.621  0.00  0.00    +0.004 C 
ATOM     17  C   UNL     1      33.709  -5.272 -26.254  0.00  0.00    +0.037 C 
ATOM     18  C   UNL     1      33.337  -2.915 -26.742  0.00  0.00    +0.000 C 
ATOM     19  C   UNL     1      33.925  -4.144 -27.050  0.00  0.00    +0.003 C 
ENDROOT
BRANCH   3  21
ATOM     20  S   UNL     1      31.815 -12.090 -19.458  0.00  0.00    -0.019 S 
ATOM     21  C   UNL     1      31.938 -11.526 -21.028  0.00  0.00    +0.135 C 
BRANCH  21  22
ATOM     22  N   UNL     1      32.232 -12.374 -22.066  0.00  0.00    -0.312 N 
ATOM     23  H   UNL     1      31.544 -13.032 -22.314  0.00  0.00    +0.149 HD
BRANCH  22  24
ATOM     24  C   UNL     1      33.463 -12.387 -22.832  0.00  0.00    +0.116 C 
BRANCH  24  27
ATOM     25  O   UNL     1      35.044 -17.065 -22.841  0.00  0.00    -0.435 OA
ATOM     26  O   UNL     1      34.417 -17.395 -25.143  0.00  0.00    -0.435 OA
ATOM     27  C   UNL     1      33.704 -13.719 -23.483  0.00  0.00    +0.001 C 
ATOM     28  C   UNL     1      34.288 -14.745 -22.748  0.00  0.00    +0.038 C 
ATOM     29  C   UNL     1      33.337 -13.903 -24.823  0.00  0.00    +0.001 C 
ATOM     30  C   UNL     1      34.489 -15.950 -23.389  0.00  0.00    +0.176 C 
ATOM     31  C   UNL     1      34.131 -16.139 -24.704  0.00  0.00    +0.176 C 
ATOM     32  C   UNL     1      33.551 -15.132 -25.450  0.00  0.00    +0.040 C 
ATOM     33  C   UNL     1      34.994 -17.976 -23.957  0.00  0.00    +0.429 C 
ENDBRANCH  24  27
ENDBRANCH  22  24
ENDBRANCH  21  22
ENDBRANCH   3  21
TORSDOF 4
ENDMDL
MODEL 8
REMARK VINA RESULT:      -9.9      3.847      6.314
REMARK  Name = 11282283
REMARK  4 active torsions:
REMARK  status: ('A' for Active; 'I' for Inactive)
REMARK    1  A    between atoms: N_3  and  C_21
REMARK    2  A    between atoms: C_21  and  N_22
REMARK    3  A    between atoms: N_22  and  C_24
REMARK    4  A    between atoms: C_24  and  C_27
REMARK                            x       y       z     vdW  Elec       q    Type
REMARK                         _______ _______ _______ _____ _____    ______ ____
ROOT
ATOM      1  O   UNL     1      31.310  -5.658 -22.409  0.00  0.00    -0.466 OA
ATOM      2  N   UNL     1      32.589  -8.307 -22.473  0.00  0.00    -0.290 N 
ATOM      3  N   UNL     1      31.890 -10.463 -20.698  0.00  0.00    -0.288 N 
ATOM      4  N   UNL     1      33.894  -7.416 -24.265  0.00  0.00    -0.230 NA
ATOM      5  N   UNL     1      33.597  -5.126 -25.061  0.00  0.00    -0.245 NA
ATOM      6  C   UNL     1      32.722  -9.703 -22.900  0.00  0.00    +0.113 C 
ATOM      7  C   UNL     1      32.090  -8.034 -21.120  0.00  0.00    +0.113 C 
ATOM      8  C   UNL     1      31.744 -10.597 -22.140  0.00  0.00    +0.114 C 
ATOM      9  C   UNL     1      32.400  -9.201 -20.184  0.00  0.00    +0.114 C 
ATOM     10  C   UNL     1      32.930  -7.263 -23.330  0.00  0.00    +0.152 C 
ATOM     11  C   UNL     1      32.297  -6.039 -23.259  0.00  0.00    +0.258 C 
ATOM     12  C   UNL     1      32.635  -5.000 -24.114  0.00  0.00    +0.106 C 
ATOM     13  C   UNL     1      31.800  -3.907 -23.767  0.00  0.00    +0.051 C 
ATOM     14  C   UNL     1      31.005  -4.363 -22.716  0.00  0.00    +0.141 C 
ATOM     15  C   UNL     1      34.164  -6.354 -25.062  0.00  0.00    +0.251 C 
ATOM     16  C   UNL     1      31.624  -2.589 -24.220  0.00  0.00    +0.004 C 
ATOM     17  C   UNL     1      30.038  -3.586 -22.078  0.00  0.00    +0.037 C 
ATOM     18  C   UNL     1      30.659  -1.786 -23.597  0.00  0.00    +0.000 C 
ATOM     19  C   UNL     1      29.882  -2.278 -22.545  0.00  0.00    +0.003 C 
ENDROOT
BRANCH   3  21
ATOM     20  S   UNL     1      31.184 -11.195 -18.258  0.00  0.00    -0.019 S 
ATOM     21  C   UNL     1      31.563 -11.481 -19.862  0.00  0.00    +0.135 C 
BRANCH  21  22
ATOM     22  N   UNL     1      31.550 -12.752 -20.380  0.00  0.00    -0.312 N 
ATOM     23  H   UNL     1      30.871 -12.948 -21.064  0.00  0.00    +0.149 HD
BRANCH  22  24
ATOM     24  C   UNL     1      32.446 -13.831 -20.012  0.00  0.00    +0.116 C 
BRANCH  24  27
ATOM     25  O   UNL     1      33.003 -14.488 -24.873  0.00  0.00    -0.435 OA
ATOM     26  O   UNL     1      34.753 -16.116 -24.570  0.00  0.00    -0.435 OA
ATOM     27  C   UNL     1      33.086 -14.463 -21.213  0.00  0.00    +0.001 C 
ATOM     28  C   UNL     1      32.661 -14.100 -22.487  0.00  0.00    +0.038 C 
ATOM     29  C   UNL     1      34.104 -15.410 -21.028  0.00  0.00    +0.001 C 
ATOM     30  C   UNL     1      33.281 -14.709 -23.559  0.00  0.00    +0.176 C 
ATOM     31  C   UNL     1      34.280 -15.639 -23.386  0.00  0.00    +0.176 C 
ATOM     32  C   UNL     1      34.715 -16.011 -22.130  0.00  0.00    +0.040 C 
ATOM     33  C   UNL     1      33.941 -15.382 -25.507  0.00  0.00    +0.429 C 
ENDBRANCH  24  27
ENDBRANCH  22  24
ENDBRANCH  21  22
ENDBRANCH   3  21
TORSDOF 4
ENDMDL
MODEL 9
REMARK VINA RESULT:      -9.8      8.570     13.977
REMARK  Name = 11282283
REMARK  4 active torsions:
REMARK  status: ('A' for Active; 'I' for Inactive)
REMARK    1  A    between atoms: N_3  and  C_21
REMARK    2  A    between atoms: C_21  and  N_22
REMARK    3  A    between atoms: N_22  and  C_24
REMARK    4  A    between atoms: C_24  and  C_27
REMARK                            x       y       z     vdW  Elec       q    Type
REMARK                         _______ _______ _______ _____ _____    ______ ____
ROOT
ATOM      1  O   UNL     1      37.100 -25.090 -14.332  0.00  0.00    -0.466 OA
ATOM      2  N   UNL     1      34.375 -24.244 -13.611  0.00  0.00    -0.290 N 
ATOM      3  N   UNL     1      32.384 -23.456 -15.535  0.00  0.00    -0.288 N 
ATOM      4  N   UNL     1      35.065 -24.623 -11.355  0.00  0.00    -0.230 NA
ATOM      5  N   UNL     1      37.315 -25.401 -10.810  0.00  0.00    -0.245 NA
ATOM      6  C   UNL     1      32.949 -24.457 -13.345  0.00  0.00    +0.113 C 
ATOM      7  C   UNL     1      34.764 -23.621 -14.881  0.00  0.00    +0.113 C 
ATOM      8  C   UNL     1      32.169 -24.593 -14.652  0.00  0.00    +0.114 C 
ATOM      9  C   UNL     1      33.640 -22.733 -15.413  0.00  0.00    +0.114 C 
ATOM     10  C   UNL     1      35.339 -24.623 -12.679  0.00  0.00    +0.152 C 
ATOM     11  C   UNL     1      36.602 -25.013 -13.071  0.00  0.00    +0.258 C 
ATOM     12  C   UNL     1      37.562 -25.391 -12.142  0.00  0.00    +0.106 C 
ATOM     13  C   UNL     1      38.726 -25.724 -12.882  0.00  0.00    +0.051 C 
ATOM     14  C   UNL     1      38.390 -25.522 -14.220  0.00  0.00    +0.141 C 
ATOM     15  C   UNL     1      36.056 -25.006 -10.514  0.00  0.00    +0.251 C 
ATOM     16  C   UNL     1      40.022 -26.172 -12.575  0.00  0.00    +0.004 C 
ATOM     17  C   UNL     1      39.265 -25.738 -15.283  0.00  0.00    +0.037 C 
ATOM     18  C   UNL     1      40.923 -26.396 -13.625  0.00  0.00    +0.000 C 
ATOM     19  C   UNL     1      40.549 -26.183 -14.954  0.00  0.00    +0.003 C 
ENDROOT
BRANCH   3  21
ATOM     20  S   UNL     1      29.817 -23.090 -16.050  0.00  0.00    -0.019 S 
ATOM     21  C   UNL     1      31.444 -23.084 -16.440  0.00  0.00    +0.135 C 
BRANCH  21  22
ATOM     22  N   UNL     1      31.874 -22.701 -17.685  0.00  0.00    -0.312 N 
ATOM     23  H   UNL     1      31.284 -22.102 -18.197  0.00  0.00    +0.149 HD
BRANCH  22  24
ATOM     24  C   UNL     1      33.118 -23.097 -18.316  0.00  0.00    +0.116 C 
BRANCH  24  27
ATOM     25  O   UNL     1      36.869 -20.394 -20.050  0.00  0.00    -0.435 OA
ATOM     26  O   UNL     1      35.411 -19.014 -21.382  0.00  0.00    -0.435 OA
ATOM     27  C   UNL     1      33.700 -21.993 -19.151  0.00  0.00    +0.001 C 
ATOM     28  C   UNL     1      35.075 -21.781 -19.144  0.00  0.00    +0.038 C 
ATOM     29  C   UNL     1      32.846 -21.194 -19.923  0.00  0.00    +0.001 C 
ATOM     30  C   UNL     1      35.563 -20.755 -19.927  0.00  0.00    +0.176 C 
ATOM     31  C   UNL     1      34.730 -19.966 -20.688  0.00  0.00    +0.176 C 
ATOM     32  C   UNL     1      33.364 -20.161 -20.707  0.00  0.00    +0.040 C 
ATOM     33  C   UNL     1      36.766 -19.292 -20.974  0.00  0.00    +0.429 C 
ENDBRANCH  24  27
ENDBRANCH  22  24
ENDBRANCH  21  22
ENDBRANCH   3  21
TORSDOF 4
ENDMDL
