MODEL 1
REMARK VINA RESULT:     -11.9      0.000      0.000
REMARK  Name = 657077
REMARK  7 active torsions:
REMARK  status: ('A' for Active; 'I' for Inactive)
REMARK    1  A    between atoms: C_3  and  C_23
REMARK    2  A    between atoms: C_8  and  C_10
REMARK    3  A    between atoms: C_12  and  C_15
REMARK    4  A    between atoms: C_15  and  C_16
REMARK    5  A    between atoms: C_16  and  C_17
REMARK    6  A    between atoms: C_26  and  C_29
REMARK    7  A    between atoms: C_29  and  N_30
REMARK                            x       y       z     vdW  Elec       q    Type
REMARK                         _______ _______ _______ _____ _____    ______ ____
ROOT
ATOM      1  O   UNL     1      33.158 -16.127 -25.816  0.00  0.00    -0.270 OA
ATOM      2  N   UNL     1      34.610 -16.787 -24.107  0.00  0.00    -0.276 N 
ATOM      3  C   UNL     1      35.180 -18.921 -22.237  0.00  0.00    +0.026 C 
ATOM      4  C   UNL     1      35.025 -17.459 -21.775  0.00  0.00    +0.026 C 
ATOM      5  C   UNL     1      34.386 -19.167 -23.533  0.00  0.00    +0.026 C 
ATOM      6  C   UNL     1      35.391 -16.490 -22.900  0.00  0.00    +0.094 C 
ATOM      7  C   UNL     1      34.763 -18.152 -24.612  0.00  0.00    +0.094 C 
ATOM      8  C   UNL     1      33.792 -15.885 -24.790  0.00  0.00    +0.251 C 
ENDROOT
BRANCH   8  10
ATOM      9  N   UNL     1      34.025 -12.160 -24.503  0.00  0.00    -0.242 NA
ATOM     10  C   UNL     1      33.652 -14.529 -24.246  0.00  0.00    +0.072 C 
ATOM     11  C   UNL     1      33.044 -14.315 -23.018  0.00  0.00    +0.003 C 
ATOM     12  C   UNL     1      32.926 -13.019 -22.528  0.00  0.00    -0.003 C 
ATOM     13  C   UNL     1      34.122 -13.434 -24.945  0.00  0.00    +0.103 C 
ATOM     14  C   UNL     1      33.428 -11.985 -23.303  0.00  0.00    +0.095 C 
BRANCH  12  15
ATOM     15  C   UNL     1      32.280 -12.750 -21.216  0.00  0.00    +0.033 C 
BRANCH  15  16
ATOM     16  C   UNL     1      31.098 -11.760 -21.285  0.00  0.00    +0.031 C 
BRANCH  16  17
ATOM     17  C   UNL     1      31.504 -10.333 -21.005  0.00  0.00    -0.022 C 
ATOM     18  C   UNL     1      31.552  -9.423 -22.050  0.00  0.00    -0.004 C 
ATOM     19  C   UNL     1      31.822  -9.959 -19.710  0.00  0.00    -0.004 C 
ATOM     20  C   UNL     1      31.927  -8.105 -21.792  0.00  0.00    -0.000 C 
ATOM     21  C   UNL     1      32.196  -8.640 -19.451  0.00  0.00    -0.000 C 
ATOM     22  C   UNL     1      32.249  -7.713 -20.493  0.00  0.00    -0.000 C 
ENDBRANCH  16  17
ENDBRANCH  15  16
ENDBRANCH  12  15
ENDBRANCH   8  10
BRANCH   3  23
ATOM     23  C   UNL     1      34.806 -19.904 -21.144  0.00  0.00    -0.023 C 
ATOM     24  C   UNL     1      35.802 -20.497 -20.371  0.00  0.00    -0.011 C 
ATOM     25  C   UNL     1      33.465 -20.211 -20.915  0.00  0.00    -0.004 C 
ATOM     26  C   UNL     1      35.458 -21.400 -19.366  0.00  0.00    -0.045 C 
ATOM     27  C   UNL     1      33.121 -21.115 -19.910  0.00  0.00    -0.001 C 
ATOM     28  C   UNL     1      34.117 -21.709 -19.135  0.00  0.00    -0.006 C 
BRANCH  26  29
ATOM     29  C   UNL     1      36.523 -22.035 -18.536  0.00  0.00    -0.059 C 
BRANCH  29  30
ATOM     30  N   UNL     1      35.976 -22.748 -17.379  0.00  0.00    +0.383 N 
ATOM     31  H   UNL     1      35.607 -22.074 -16.709  0.00  0.00    -0.089 HD
ATOM     32  H   UNL     1      36.713 -23.298 -16.939  0.00  0.00    -0.089 HD
ATOM     33  H   UNL     1      35.226 -23.367 -17.686  0.00  0.00    -0.089 HD
ENDBRANCH  29  30
ENDBRANCH  26  29
ENDBRANCH   3  23
TORSDOF 7
ENDMDL
MODEL 2
REMARK VINA RESULT:     -11.6      1.515      2.167
REMARK  Name = 657077
REMARK  7 active torsions:
REMARK  status: ('A' for Active; 'I' for Inactive)
REMARK    1  A    between atoms: C_3  and  C_23
REMARK    2  A    between atoms: C_8  and  C_10
REMARK    3  A    between atoms: C_12  and  C_15
REMARK    4  A    between atoms: C_15  and  C_16
REMARK    5  A    between atoms: C_16  and  C_17
REMARK    6  A    between atoms: C_26  and  C_29
REMARK    7  A    between atoms: C_29  and  N_30
REMARK                            x       y       z     vdW  Elec       q    Type
REMARK                         _______ _______ _______ _____ _____    ______ ____
ROOT
ATOM      1  O   UNL     1      33.201 -15.638 -25.362  0.00  0.00    -0.270 OA
ATOM      2  N   UNL     1      34.576 -16.341 -23.606  0.00  0.00    -0.276 N 
ATOM      3  C   UNL     1      35.223 -18.605 -21.924  0.00  0.00    +0.026 C 
ATOM      4  C   UNL     1      34.876 -17.226 -21.329  0.00  0.00    +0.026 C 
ATOM      5  C   UNL     1      34.564 -18.780 -23.305  0.00  0.00    +0.026 C 
ATOM      6  C   UNL     1      35.224 -16.106 -22.309  0.00  0.00    +0.094 C 
ATOM      7  C   UNL     1      34.915 -17.618 -24.235  0.00  0.00    +0.094 C 
ATOM      8  C   UNL     1      33.723 -15.452 -24.263  0.00  0.00    +0.251 C 
ENDROOT
BRANCH   8  10
ATOM      9  N   UNL     1      32.322 -13.042 -21.763  0.00  0.00    -0.242 NA
ATOM     10  C   UNL     1      33.395 -14.186 -23.596  0.00  0.00    +0.072 C 
ATOM     11  C   UNL     1      33.819 -12.975 -24.123  0.00  0.00    +0.003 C 
ATOM     12  C   UNL     1      33.494 -11.791 -23.469  0.00  0.00    -0.003 C 
ATOM     13  C   UNL     1      32.658 -14.171 -22.428  0.00  0.00    +0.103 C 
ATOM     14  C   UNL     1      32.751 -11.879 -22.302  0.00  0.00    +0.095 C 
BRANCH  12  15
ATOM     15  C   UNL     1      33.932 -10.474 -24.003  0.00  0.00    +0.033 C 
BRANCH  15  16
ATOM     16  C   UNL     1      34.089  -9.378 -22.928  0.00  0.00    +0.031 C 
BRANCH  16  17
ATOM     17  C   UNL     1      33.095  -8.251 -23.080  0.00  0.00    -0.022 C 
ATOM     18  C   UNL     1      33.557  -6.950 -23.208  0.00  0.00    -0.004 C 
ATOM     19  C   UNL     1      31.740  -8.538 -23.089  0.00  0.00    -0.004 C 
ATOM     20  C   UNL     1      32.640  -5.910 -23.348  0.00  0.00    -0.000 C 
ATOM     21  C   UNL     1      30.822  -7.497 -23.231  0.00  0.00    -0.000 C 
ATOM     22  C   UNL     1      31.273  -6.182 -23.360  0.00  0.00    -0.000 C 
ENDBRANCH  16  17
ENDBRANCH  15  16
ENDBRANCH  12  15
ENDBRANCH   8  10
BRANCH   3  23
ATOM     23  C   UNL     1      34.871 -19.737 -20.978  0.00  0.00    -0.023 C 
ATOM     24  C   UNL     1      35.878 -20.386 -20.266  0.00  0.00    -0.011 C 
ATOM     25  C   UNL     1      33.541 -20.123 -20.821  0.00  0.00    -0.004 C 
ATOM     26  C   UNL     1      35.555 -21.426 -19.395  0.00  0.00    -0.045 C 
ATOM     27  C   UNL     1      33.218 -21.164 -19.950  0.00  0.00    -0.001 C 
ATOM     28  C   UNL     1      34.225 -21.815 -19.237  0.00  0.00    -0.006 C 
BRANCH  26  29
ATOM     29  C   UNL     1      36.631 -22.122 -18.631  0.00  0.00    -0.059 C 
BRANCH  29  30
ATOM     30  N   UNL     1      37.066 -21.358 -17.460  0.00  0.00    +0.383 N 
ATOM     31  H   UNL     1      37.964 -21.717 -17.134  0.00  0.00    -0.089 HD
ATOM     32  H   UNL     1      36.373 -21.449 -16.718  0.00  0.00    -0.089 HD
ATOM     33  H   UNL     1      37.166 -20.375 -17.714  0.00  0.00    -0.089 HD
ENDBRANCH  29  30
ENDBRANCH  26  29
ENDBRANCH   3  23
TORSDOF 7
ENDMDL
MODEL 3
REMARK VINA RESULT:     -11.3      1.806      2.806
REMARK  Name = 657077
REMARK  7 active torsions:
REMARK  status: ('A' for Active; 'I' for Inactive)
REMARK    1  A    between atoms: C_3  and  C_23
REMARK    2  A    between atoms: C_8  and  C_10
REMARK    3  A    between atoms: C_12  and  C_15
REMARK    4  A    between atoms: C_15  and  C_16
REMARK    5  A    between atoms: C_16  and  C_17
REMARK    6  A    between atoms: C_26  and  C_29
REMARK    7  A    between atoms: C_29  and  N_30
REMARK                            x       y       z     vdW  Elec       q    Type
REMARK                         _______ _______ _______ _____ _____    ______ ____
ROOT
ATOM      1  O   UNL     1      33.062 -14.985 -24.869  0.00  0.00    -0.270 OA
ATOM      2  N   UNL     1      34.554 -15.648 -23.195  0.00  0.00    -0.276 N 
ATOM      3  C   UNL     1      35.608 -17.956 -21.802  0.00  0.00    +0.026 C 
ATOM      4  C   UNL     1      35.024 -16.748 -21.044  0.00  0.00    +0.026 C 
ATOM      5  C   UNL     1      34.980 -18.069 -23.205  0.00  0.00    +0.026 C 
ATOM      6  C   UNL     1      35.158 -15.468 -21.869  0.00  0.00    +0.094 C 
ATOM      7  C   UNL     1      35.110 -16.755 -23.974  0.00  0.00    +0.094 C 
ATOM      8  C   UNL     1      33.550 -14.850 -23.747  0.00  0.00    +0.251 C 
ENDROOT
BRANCH   8  10
ATOM      9  N   UNL     1      31.795 -13.064 -20.964  0.00  0.00    -0.242 NA
ATOM     10  C   UNL     1      33.007 -13.758 -22.931  0.00  0.00    +0.072 C 
ATOM     11  C   UNL     1      33.171 -12.434 -23.314  0.00  0.00    +0.003 C 
ATOM     12  C   UNL     1      32.645 -11.420 -22.521  0.00  0.00    -0.003 C 
ATOM     13  C   UNL     1      32.320 -14.022 -21.762  0.00  0.00    +0.103 C 
ATOM     14  C   UNL     1      31.972 -11.786 -21.365  0.00  0.00    +0.095 C 
BRANCH  12  15
ATOM     15  C   UNL     1      32.801  -9.991 -22.898  0.00  0.00    +0.033 C 
BRANCH  15  16
ATOM     16  C   UNL     1      31.601  -9.101 -22.511  0.00  0.00    +0.031 C 
BRANCH  16  17
ATOM     17  C   UNL     1      31.787  -7.653 -22.899  0.00  0.00    -0.022 C 
ATOM     18  C   UNL     1      30.794  -6.735 -22.596  0.00  0.00    -0.004 C 
ATOM     19  C   UNL     1      32.948  -7.269 -23.551  0.00  0.00    -0.004 C 
ATOM     20  C   UNL     1      30.966  -5.399 -22.954  0.00  0.00    -0.000 C 
ATOM     21  C   UNL     1      33.120  -5.932 -23.908  0.00  0.00    -0.000 C 
ATOM     22  C   UNL     1      32.128  -4.997 -23.611  0.00  0.00    -0.000 C 
ENDBRANCH  16  17
ENDBRANCH  15  16
ENDBRANCH  12  15
ENDBRANCH   8  10
BRANCH   3  23
ATOM     23  C   UNL     1      35.471 -19.243 -21.012  0.00  0.00    -0.023 C 
ATOM     24  C   UNL     1      34.205 -19.750 -20.724  0.00  0.00    -0.011 C 
ATOM     25  C   UNL     1      36.612 -19.917 -20.578  0.00  0.00    -0.004 C 
ATOM     26  C   UNL     1      34.079 -20.934 -19.999  0.00  0.00    -0.045 C 
ATOM     27  C   UNL     1      36.485 -21.101 -19.852  0.00  0.00    -0.001 C 
ATOM     28  C   UNL     1      35.220 -21.610 -19.563  0.00  0.00    -0.006 C 
BRANCH  26  29
ATOM     29  C   UNL     1      32.726 -21.481 -19.689  0.00  0.00    -0.059 C 
BRANCH  29  30
ATOM     30  N   UNL     1      32.755 -22.456 -18.597  0.00  0.00    +0.383 N 
ATOM     31  H   UNL     1      33.335 -22.099 -17.838  0.00  0.00    -0.089 HD
ATOM     32  H   UNL     1      33.144 -23.335 -18.938  0.00  0.00    -0.089 HD
ATOM     33  H   UNL     1      31.807 -22.613 -18.256  0.00  0.00    -0.089 HD
ENDBRANCH  29  30
ENDBRANCH  26  29
ENDBRANCH   3  23
TORSDOF 7
ENDMDL
MODEL 4
REMARK VINA RESULT:     -10.8      4.192     11.616
REMARK  Name = 657077
REMARK  7 active torsions:
REMARK  status: ('A' for Active; 'I' for Inactive)
REMARK    1  A    between atoms: C_3  and  C_23
REMARK    2  A    between atoms: C_8  and  C_10
REMARK    3  A    between atoms: C_12  and  C_15
REMARK    4  A    between atoms: C_15  and  C_16
REMARK    5  A    between atoms: C_16  and  C_17
REMARK    6  A    between atoms: C_26  and  C_29
REMARK    7  A    between atoms: C_29  and  N_30
REMARK                            x       y       z     vdW  Elec       q    Type
REMARK                         _______ _______ _______ _____ _____    ______ ____
ROOT
ATOM      1  O   UNL     1      37.194 -21.697 -17.637  0.00  0.00    -0.270 OA
ATOM      2  N   UNL     1      36.058 -21.252 -19.631  0.00  0.00    -0.276 N 
ATOM      3  C   UNL     1      35.546 -19.198 -21.606  0.00  0.00    +0.026 C 
ATOM      4  C   UNL     1      34.400 -19.970 -20.923  0.00  0.00    +0.026 C 
ATOM      5  C   UNL     1      36.790 -19.161 -20.697  0.00  0.00    +0.026 C 
ATOM      6  C   UNL     1      34.864 -21.358 -20.480  0.00  0.00    +0.094 C 
ATOM      7  C   UNL     1      37.192 -20.568 -20.255  0.00  0.00    +0.094 C 
ATOM      8  C   UNL     1      36.185 -21.764 -18.338  0.00  0.00    +0.251 C 
ENDROOT
BRANCH   8  10
ATOM      9  N   UNL     1      32.697 -23.051 -17.901  0.00  0.00    -0.242 NA
ATOM     10  C   UNL     1      35.023 -22.431 -17.740  0.00  0.00    +0.072 C 
ATOM     11  C   UNL     1      35.118 -23.052 -16.504  0.00  0.00    +0.003 C 
ATOM     12  C   UNL     1      34.000 -23.677 -15.962  0.00  0.00    -0.003 C 
ATOM     13  C   UNL     1      33.807 -22.455 -18.395  0.00  0.00    +0.103 C 
ATOM     14  C   UNL     1      32.824 -23.649 -16.695  0.00  0.00    +0.095 C 
BRANCH  12  15
ATOM     15  C   UNL     1      34.064 -24.354 -14.640  0.00  0.00    +0.033 C 
BRANCH  15  16
ATOM     16  C   UNL     1      35.214 -25.375 -14.509  0.00  0.00    +0.031 C 
BRANCH  16  17
ATOM     17  C   UNL     1      36.239 -24.982 -13.471  0.00  0.00    -0.022 C 
ATOM     18  C   UNL     1      36.071 -23.803 -12.763  0.00  0.00    -0.004 C 
ATOM     19  C   UNL     1      37.328 -25.809 -13.248  0.00  0.00    -0.004 C 
ATOM     20  C   UNL     1      37.018 -23.441 -11.805  0.00  0.00    -0.000 C 
ATOM     21  C   UNL     1      38.275 -25.447 -12.289  0.00  0.00    -0.000 C 
ATOM     22  C   UNL     1      38.120 -24.262 -11.568  0.00  0.00    -0.000 C 
ENDBRANCH  16  17
ENDBRANCH  15  16
ENDBRANCH  12  15
ENDBRANCH   8  10
BRANCH   3  23
ATOM     23  C   UNL     1      35.117 -17.810 -22.040  0.00  0.00    -0.023 C 
ATOM     24  C   UNL     1      34.929 -17.532 -23.393  0.00  0.00    -0.011 C 
ATOM     25  C   UNL     1      34.910 -16.816 -21.085  0.00  0.00    -0.004 C 
ATOM     26  C   UNL     1      34.534 -16.256 -23.792  0.00  0.00    -0.045 C 
ATOM     27  C   UNL     1      34.514 -15.540 -21.485  0.00  0.00    -0.001 C 
ATOM     28  C   UNL     1      34.326 -15.260 -22.838  0.00  0.00    -0.006 C 
BRANCH  26  29
ATOM     29  C   UNL     1      34.331 -15.956 -25.239  0.00  0.00    -0.059 C 
BRANCH  29  30
ATOM     30  N   UNL     1      33.036 -15.323 -25.501  0.00  0.00    +0.383 N 
ATOM     31  H   UNL     1      32.849 -14.624 -24.782  0.00  0.00    -0.089 HD
ATOM     32  H   UNL     1      32.303 -16.031 -25.486  0.00  0.00    -0.089 HD
ATOM     33  H   UNL     1      33.057 -14.872 -26.415  0.00  0.00    -0.089 HD
ENDBRANCH  29  30
ENDBRANCH  26  29
ENDBRANCH   3  23
TORSDOF 7
ENDMDL
MODEL 5
REMARK VINA RESULT:     -10.7      4.248     11.536
REMARK  Name = 657077
REMARK  7 active torsions:
REMARK  status: ('A' for Active; 'I' for Inactive)
REMARK    1  A    between atoms: C_3  and  C_23
REMARK    2  A    between atoms: C_8  and  C_10
REMARK    3  A    between atoms: C_12  and  C_15
REMARK    4  A    between atoms: C_15  and  C_16
REMARK    5  A    between atoms: C_16  and  C_17
REMARK    6  A    between atoms: C_26  and  C_29
REMARK    7  A    between atoms: C_29  and  N_30
REMARK                            x       y       z     vdW  Elec       q    Type
REMARK                         _______ _______ _______ _____ _____    ______ ____
ROOT
ATOM      1  O   UNL     1      37.236 -21.764 -17.667  0.00  0.00    -0.270 OA
ATOM      2  N   UNL     1      36.088 -21.251 -19.638  0.00  0.00    -0.276 N 
ATOM      3  C   UNL     1      35.605 -19.147 -21.566  0.00  0.00    +0.026 C 
ATOM      4  C   UNL     1      34.448 -19.904 -20.884  0.00  0.00    +0.026 C 
ATOM      5  C   UNL     1      36.860 -19.159 -20.671  0.00  0.00    +0.026 C 
ATOM      6  C   UNL     1      34.882 -21.311 -20.474  0.00  0.00    +0.094 C 
ATOM      7  C   UNL     1      37.231 -20.584 -20.262  0.00  0.00    +0.094 C 
ATOM      8  C   UNL     1      36.217 -21.792 -18.357  0.00  0.00    +0.251 C 
ENDROOT
BRANCH   8  10
ATOM      9  N   UNL     1      32.716 -23.043 -17.926  0.00  0.00    -0.242 NA
ATOM     10  C   UNL     1      35.046 -22.442 -17.758  0.00  0.00    +0.072 C 
ATOM     11  C   UNL     1      35.129 -23.050 -16.514  0.00  0.00    +0.003 C 
ATOM     12  C   UNL     1      34.001 -23.658 -15.972  0.00  0.00    -0.003 C 
ATOM     13  C   UNL     1      33.833 -22.463 -18.419  0.00  0.00    +0.103 C 
ATOM     14  C   UNL     1      32.830 -23.628 -16.712  0.00  0.00    +0.095 C 
BRANCH  12  15
ATOM     15  C   UNL     1      34.052 -24.321 -14.642  0.00  0.00    +0.033 C 
BRANCH  15  16
ATOM     16  C   UNL     1      35.181 -25.363 -14.498  0.00  0.00    +0.031 C 
BRANCH  16  17
ATOM     17  C   UNL     1      36.216 -24.977 -13.469  0.00  0.00    -0.022 C 
ATOM     18  C   UNL     1      37.296 -25.817 -13.243  0.00  0.00    -0.004 C 
ATOM     19  C   UNL     1      36.068 -23.791 -12.770  0.00  0.00    -0.004 C 
ATOM     20  C   UNL     1      38.251 -25.461 -12.292  0.00  0.00    -0.000 C 
ATOM     21  C   UNL     1      37.025 -23.434 -11.819  0.00  0.00    -0.000 C 
ATOM     22  C   UNL     1      38.116 -24.270 -11.580  0.00  0.00    -0.000 C 
ENDBRANCH  16  17
ENDBRANCH  15  16
ENDBRANCH  12  15
ENDBRANCH   8  10
BRANCH   3  23
ATOM     23  C   UNL     1      35.206 -17.740 -21.967  0.00  0.00    -0.023 C 
ATOM     24  C   UNL     1      34.742 -16.847 -21.003  0.00  0.00    -0.011 C 
ATOM     25  C   UNL     1      35.305 -17.343 -23.300  0.00  0.00    -0.004 C 
ATOM     26  C   UNL     1      34.376 -15.554 -21.371  0.00  0.00    -0.045 C 
ATOM     27  C   UNL     1      34.938 -16.049 -23.668  0.00  0.00    -0.001 C 
ATOM     28  C   UNL     1      34.474 -15.154 -22.704  0.00  0.00    -0.006 C 
BRANCH  26  29
ATOM     29  C   UNL     1      33.880 -14.595 -20.341  0.00  0.00    -0.059 C 
BRANCH  29  30
ATOM     30  N   UNL     1      32.525 -14.120 -20.628  0.00  0.00    +0.383 N 
ATOM     31  H   UNL     1      32.323 -14.249 -21.620  0.00  0.00    -0.089 HD
ATOM     32  H   UNL     1      32.455 -13.130 -20.393  0.00  0.00    -0.089 HD
ATOM     33  H   UNL     1      31.854 -14.651 -20.073  0.00  0.00    -0.089 HD
ENDBRANCH  29  30
ENDBRANCH  26  29
ENDBRANCH   3  23
TORSDOF 7
ENDMDL
MODEL 6
REMARK VINA RESULT:     -10.7      4.162      7.592
REMARK  Name = 657077
REMARK  7 active torsions:
REMARK  status: ('A' for Active; 'I' for Inactive)
REMARK    1  A    between atoms: C_3  and  C_23
REMARK    2  A    between atoms: C_8  and  C_10
REMARK    3  A    between atoms: C_12  and  C_15
REMARK    4  A    between atoms: C_15  and  C_16
REMARK    5  A    between atoms: C_16  and  C_17
REMARK    6  A    between atoms: C_26  and  C_29
REMARK    7  A    between atoms: C_29  and  N_30
REMARK                            x       y       z     vdW  Elec       q    Type
REMARK                         _______ _______ _______ _____ _____    ______ ____
ROOT
ATOM      1  O   UNL     1      31.966  -8.601 -18.823  0.00  0.00    -0.270 OA
ATOM      2  N   UNL     1      31.573 -10.231 -20.452  0.00  0.00    -0.276 N 
ATOM      3  C   UNL     1      32.084 -12.994 -21.145  0.00  0.00    +0.026 C 
ATOM      4  C   UNL     1      32.389 -11.843 -22.124  0.00  0.00    +0.026 C 
ATOM      5  C   UNL     1      32.144 -12.497 -19.688  0.00  0.00    +0.026 C 
ATOM      6  C   UNL     1      31.479 -10.645 -21.858  0.00  0.00    +0.094 C 
ATOM      7  C   UNL     1      31.244 -11.278 -19.485  0.00  0.00    +0.094 C 
ATOM      8  C   UNL     1      31.912  -8.954 -20.000  0.00  0.00    +0.251 C 
ENDROOT
BRANCH   8  10
ATOM      9  N   UNL     1      33.852  -7.031 -22.561  0.00  0.00    -0.242 NA
ATOM     10  C   UNL     1      32.249  -7.933 -20.999  0.00  0.00    +0.072 C 
ATOM     11  C   UNL     1      31.342  -6.937 -21.332  0.00  0.00    +0.003 C 
ATOM     12  C   UNL     1      31.690  -5.983 -22.283  0.00  0.00    -0.003 C 
ATOM     13  C   UNL     1      33.477  -7.940 -21.632  0.00  0.00    +0.103 C 
ATOM     14  C   UNL     1      32.945  -6.074 -22.863  0.00  0.00    +0.095 C 
BRANCH  12  15
ATOM     15  C   UNL     1      30.744  -4.902 -22.667  0.00  0.00    +0.033 C 
BRANCH  15  16
ATOM     16  C   UNL     1      31.425  -3.563 -23.018  0.00  0.00    +0.031 C 
BRANCH  16  17
ATOM     17  C   UNL     1      31.258  -3.175 -24.468  0.00  0.00    -0.022 C 
ATOM     18  C   UNL     1      30.083  -2.563 -24.877  0.00  0.00    -0.004 C 
ATOM     19  C   UNL     1      32.282  -3.438 -25.363  0.00  0.00    -0.004 C 
ATOM     20  C   UNL     1      29.929  -2.205 -26.216  0.00  0.00    -0.000 C 
ATOM     21  C   UNL     1      32.128  -3.079 -26.703  0.00  0.00    -0.000 C 
ATOM     22  C   UNL     1      30.950  -2.464 -27.129  0.00  0.00    -0.000 C 
ENDBRANCH  16  17
ENDBRANCH  15  16
ENDBRANCH  12  15
ENDBRANCH   8  10
BRANCH   3  23
ATOM     23  C   UNL     1      32.987 -14.191 -21.376  0.00  0.00    -0.023 C 
ATOM     24  C   UNL     1      33.406 -14.506 -22.667  0.00  0.00    -0.011 C 
ATOM     25  C   UNL     1      33.396 -14.971 -20.295  0.00  0.00    -0.004 C 
ATOM     26  C   UNL     1      34.237 -15.606 -22.879  0.00  0.00    -0.045 C 
ATOM     27  C   UNL     1      34.228 -16.071 -20.508  0.00  0.00    -0.001 C 
ATOM     28  C   UNL     1      34.648 -16.388 -21.799  0.00  0.00    -0.006 C 
BRANCH  26  29
ATOM     29  C   UNL     1      34.689 -15.946 -24.260  0.00  0.00    -0.059 C 
BRANCH  29  30
ATOM     30  N   UNL     1      34.621 -17.383 -24.530  0.00  0.00    +0.383 N 
ATOM     31  H   UNL     1      35.142 -17.594 -25.381  0.00  0.00    -0.089 HD
ATOM     32  H   UNL     1      33.647 -17.661 -24.649  0.00  0.00    -0.089 HD
ATOM     33  H   UNL     1      35.028 -17.895 -23.747  0.00  0.00    -0.089 HD
ENDBRANCH  29  30
ENDBRANCH  26  29
ENDBRANCH   3  23
TORSDOF 7
ENDMDL
MODEL 7
REMARK VINA RESULT:     -10.5      4.409      8.032
REMARK  Name = 657077
REMARK  7 active torsions:
REMARK  status: ('A' for Active; 'I' for Inactive)
REMARK    1  A    between atoms: C_3  and  C_23
REMARK    2  A    between atoms: C_8  and  C_10
REMARK    3  A    between atoms: C_12  and  C_15
REMARK    4  A    between atoms: C_15  and  C_16
REMARK    5  A    between atoms: C_16  and  C_17
REMARK    6  A    between atoms: C_26  and  C_29
REMARK    7  A    between atoms: C_29  and  N_30
REMARK                            x       y       z     vdW  Elec       q    Type
REMARK                         _______ _______ _______ _____ _____    ______ ____
ROOT
ATOM      1  O   UNL     1      32.240  -8.408 -18.805  0.00  0.00    -0.270 OA
ATOM      2  N   UNL     1      31.562  -9.980 -20.398  0.00  0.00    -0.276 N 
ATOM      3  C   UNL     1      32.042 -12.666 -21.363  0.00  0.00    +0.026 C 
ATOM      4  C   UNL     1      32.045 -11.451 -22.311  0.00  0.00    +0.026 C 
ATOM      5  C   UNL     1      32.418 -12.236 -19.931  0.00  0.00    +0.026 C 
ATOM      6  C   UNL     1      31.160 -10.330 -21.766  0.00  0.00    +0.094 C 
ATOM      7  C   UNL     1      31.527 -11.092 -19.448  0.00  0.00    +0.094 C 
ATOM      8  C   UNL     1      31.928  -8.706 -19.958  0.00  0.00    +0.251 C 
ENDROOT
BRANCH   8  10
ATOM      9  N   UNL     1      31.044  -5.537 -21.745  0.00  0.00    -0.242 NA
ATOM     10  C   UNL     1      31.964  -7.618 -20.941  0.00  0.00    +0.072 C 
ATOM     11  C   UNL     1      32.901  -7.615 -21.964  0.00  0.00    +0.003 C 
ATOM     12  C   UNL     1      32.911  -6.570 -22.883  0.00  0.00    -0.003 C 
ATOM     13  C   UNL     1      31.066  -6.570 -20.872  0.00  0.00    +0.103 C 
ATOM     14  C   UNL     1      31.971  -5.564 -22.729  0.00  0.00    +0.095 C 
BRANCH  12  15
ATOM     15  C   UNL     1      33.901  -6.533 -23.992  0.00  0.00    +0.033 C 
BRANCH  15  16
ATOM     16  C   UNL     1      33.373  -5.881 -25.287  0.00  0.00    +0.031 C 
BRANCH  16  17
ATOM     17  C   UNL     1      34.386  -4.981 -25.954  0.00  0.00    -0.022 C 
ATOM     18  C   UNL     1      34.008  -3.708 -26.350  0.00  0.00    -0.004 C 
ATOM     19  C   UNL     1      35.675  -5.445 -26.158  0.00  0.00    -0.004 C 
ATOM     20  C   UNL     1      34.943  -2.877 -26.965  0.00  0.00    -0.000 C 
ATOM     21  C   UNL     1      36.612  -4.614 -26.773  0.00  0.00    -0.000 C 
ATOM     22  C   UNL     1      36.245  -3.330 -27.177  0.00  0.00    -0.000 C 
ENDBRANCH  16  17
ENDBRANCH  15  16
ENDBRANCH  12  15
ENDBRANCH   8  10
BRANCH   3  23
ATOM     23  C   UNL     1      32.928 -13.787 -21.872  0.00  0.00    -0.023 C 
ATOM     24  C   UNL     1      32.955 -14.087 -23.232  0.00  0.00    -0.011 C 
ATOM     25  C   UNL     1      33.714 -14.512 -20.978  0.00  0.00    -0.004 C 
ATOM     26  C   UNL     1      33.770 -15.116 -23.701  0.00  0.00    -0.045 C 
ATOM     27  C   UNL     1      34.529 -15.542 -21.447  0.00  0.00    -0.001 C 
ATOM     28  C   UNL     1      34.558 -15.844 -22.808  0.00  0.00    -0.006 C 
BRANCH  26  29
ATOM     29  C   UNL     1      33.802 -15.440 -25.157  0.00  0.00    -0.059 C 
BRANCH  29  30
ATOM     30  N   UNL     1      32.634 -14.918 -25.870  0.00  0.00    +0.383 N 
ATOM     31  H   UNL     1      31.803 -15.033 -25.289  0.00  0.00    -0.089 HD
ATOM     32  H   UNL     1      32.512 -15.429 -26.743  0.00  0.00    -0.089 HD
ATOM     33  H   UNL     1      32.773 -13.928 -26.070  0.00  0.00    -0.089 HD
ENDBRANCH  29  30
ENDBRANCH  26  29
ENDBRANCH   3  23
TORSDOF 7
ENDMDL
MODEL 8
REMARK VINA RESULT:     -10.5      3.378      6.711
REMARK  Name = 657077
REMARK  7 active torsions:
REMARK  status: ('A' for Active; 'I' for Inactive)
REMARK    1  A    between atoms: C_3  and  C_23
REMARK    2  A    between atoms: C_8  and  C_10
REMARK    3  A    between atoms: C_12  and  C_15
REMARK    4  A    between atoms: C_15  and  C_16
REMARK    5  A    between atoms: C_16  and  C_17
REMARK    6  A    between atoms: C_26  and  C_29
REMARK    7  A    between atoms: C_29  and  N_30
REMARK                            x       y       z     vdW  Elec       q    Type
REMARK                         _______ _______ _______ _____ _____    ______ ____
ROOT
ATOM      1  O   UNL     1      32.629 -20.612 -20.274  0.00  0.00    -0.270 OA
ATOM      2  N   UNL     1      34.331 -21.979 -19.436  0.00  0.00    -0.276 N 
ATOM      3  C   UNL     1      35.230 -23.385 -17.071  0.00  0.00    +0.026 C 
ATOM      4  C   UNL     1      36.150 -22.415 -17.836  0.00  0.00    +0.026 C 
ATOM      5  C   UNL     1      33.751 -23.006 -17.279  0.00  0.00    +0.026 C 
ATOM      6  C   UNL     1      35.751 -22.330 -19.310  0.00  0.00    +0.094 C 
ATOM      7  C   UNL     1      33.412 -22.901 -18.766  0.00  0.00    +0.094 C 
ATOM      8  C   UNL     1      33.821 -20.891 -20.147  0.00  0.00    +0.251 C 
ENDROOT
BRANCH   8  10
ATOM      9  N   UNL     1      37.011 -19.089 -20.918  0.00  0.00    -0.242 NA
ATOM     10  C   UNL     1      34.772 -19.981 -20.795  0.00  0.00    +0.072 C 
ATOM     11  C   UNL     1      34.378 -19.176 -21.853  0.00  0.00    +0.003 C 
ATOM     12  C   UNL     1      35.302 -18.323 -22.448  0.00  0.00    -0.003 C 
ATOM     13  C   UNL     1      36.083 -19.905 -20.366  0.00  0.00    +0.103 C 
ATOM     14  C   UNL     1      36.594 -18.318 -21.947  0.00  0.00    +0.095 C 
BRANCH  12  15
ATOM     15  C   UNL     1      34.916 -17.445 -23.585  0.00  0.00    +0.033 C 
BRANCH  15  16
ATOM     16  C   UNL     1      35.230 -15.951 -23.363  0.00  0.00    +0.031 C 
BRANCH  16  17
ATOM     17  C   UNL     1      34.229 -15.262 -22.466  0.00  0.00    -0.022 C 
ATOM     18  C   UNL     1      33.337 -14.354 -23.015  0.00  0.00    -0.004 C 
ATOM     19  C   UNL     1      34.221 -15.550 -21.112  0.00  0.00    -0.004 C 
ATOM     20  C   UNL     1      32.413 -13.717 -22.187  0.00  0.00    -0.000 C 
ATOM     21  C   UNL     1      33.295 -14.914 -20.283  0.00  0.00    -0.000 C 
ATOM     22  C   UNL     1      32.392 -13.997 -20.821  0.00  0.00    -0.000 C 
ENDBRANCH  16  17
ENDBRANCH  15  16
ENDBRANCH  12  15
ENDBRANCH   8  10
BRANCH   3  23
ATOM     23  C   UNL     1      35.593 -23.474 -15.601  0.00  0.00    -0.023 C 
ATOM     24  C   UNL     1      34.688 -24.018 -14.693  0.00  0.00    -0.011 C 
ATOM     25  C   UNL     1      36.834 -23.012 -15.163  0.00  0.00    -0.004 C 
ATOM     26  C   UNL     1      35.022 -24.101 -13.342  0.00  0.00    -0.045 C 
ATOM     27  C   UNL     1      37.168 -23.095 -13.812  0.00  0.00    -0.001 C 
ATOM     28  C   UNL     1      36.263 -23.639 -12.901  0.00  0.00    -0.006 C 
BRANCH  26  29
ATOM     29  C   UNL     1      34.055 -24.684 -12.367  0.00  0.00    -0.059 C 
BRANCH  29  30
ATOM     30  N   UNL     1      32.999 -25.456 -13.024  0.00  0.00    +0.383 N 
ATOM     31  H   UNL     1      33.075 -25.344 -14.035  0.00  0.00    -0.089 HD
ATOM     32  H   UNL     1      32.088 -25.121 -12.712  0.00  0.00    -0.089 HD
ATOM     33  H   UNL     1      33.100 -26.442 -12.784  0.00  0.00    -0.089 HD
ENDBRANCH  29  30
ENDBRANCH  26  29
ENDBRANCH   3  23
TORSDOF 7
ENDMDL
MODEL 9
REMARK VINA RESULT:     -10.4      4.281     10.955
REMARK  Name = 657077
REMARK  7 active torsions:
REMARK  status: ('A' for Active; 'I' for Inactive)
REMARK    1  A    between atoms: C_3  and  C_23
REMARK    2  A    between atoms: C_8  and  C_10
REMARK    3  A    between atoms: C_12  and  C_15
REMARK    4  A    between atoms: C_15  and  C_16
REMARK    5  A    between atoms: C_16  and  C_17
REMARK    6  A    between atoms: C_26  and  C_29
REMARK    7  A    between atoms: C_29  and  N_30
REMARK                            x       y       z     vdW  Elec       q    Type
REMARK                         _______ _______ _______ _____ _____    ______ ____
ROOT
ATOM      1  O   UNL     1      37.236 -21.669 -17.683  0.00  0.00    -0.270 OA
ATOM      2  N   UNL     1      36.145 -21.171 -19.690  0.00  0.00    -0.276 N 
ATOM      3  C   UNL     1      35.659 -19.061 -21.610  0.00  0.00    +0.026 C 
ATOM      4  C   UNL     1      34.505 -19.868 -20.982  0.00  0.00    +0.026 C 
ATOM      5  C   UNL     1      36.879 -19.039 -20.669  0.00  0.00    +0.026 C 
ATOM      6  C   UNL     1      34.975 -21.263 -20.573  0.00  0.00    +0.094 C 
ATOM      7  C   UNL     1      37.286 -20.455 -20.262  0.00  0.00    +0.094 C 
ATOM      8  C   UNL     1      36.246 -21.724 -18.411  0.00  0.00    +0.251 C 
ENDROOT
BRANCH   8  10
ATOM      9  N   UNL     1      32.811 -23.193 -18.170  0.00  0.00    -0.242 NA
ATOM     10  C   UNL     1      35.078 -22.424 -17.866  0.00  0.00    +0.072 C 
ATOM     11  C   UNL     1      35.105 -22.963 -16.588  0.00  0.00    +0.003 C 
ATOM     12  C   UNL     1      33.981 -23.621 -16.097  0.00  0.00    -0.003 C 
ATOM     13  C   UNL     1      33.923 -22.561 -18.612  0.00  0.00    +0.103 C 
ATOM     14  C   UNL     1      32.871 -23.708 -16.922  0.00  0.00    +0.095 C 
BRANCH  12  15
ATOM     15  C   UNL     1      33.973 -24.213 -14.733  0.00  0.00    +0.033 C 
BRANCH  15  16
ATOM     16  C   UNL     1      32.901 -23.622 -13.795  0.00  0.00    +0.031 C 
BRANCH  16  17
ATOM     17  C   UNL     1      31.499 -24.062 -14.145  0.00  0.00    -0.022 C 
ATOM     18  C   UNL     1      31.166 -25.404 -14.057  0.00  0.00    -0.004 C 
ATOM     19  C   UNL     1      30.572 -23.115 -14.548  0.00  0.00    -0.004 C 
ATOM     20  C   UNL     1      29.872 -25.810 -14.380  0.00  0.00    -0.000 C 
ATOM     21  C   UNL     1      29.277 -23.521 -14.871  0.00  0.00    -0.000 C 
ATOM     22  C   UNL     1      28.927 -24.869 -14.788  0.00  0.00    -0.000 C 
ENDBRANCH  16  17
ENDBRANCH  15  16
ENDBRANCH  12  15
ENDBRANCH   8  10
BRANCH   3  23
ATOM     23  C   UNL     1      35.224 -17.664 -22.010  0.00  0.00    -0.023 C 
ATOM     24  C   UNL     1      34.768 -16.774 -21.039  0.00  0.00    -0.011 C 
ATOM     25  C   UNL     1      35.282 -17.274 -23.346  0.00  0.00    -0.004 C 
ATOM     26  C   UNL     1      34.369 -15.489 -21.406  0.00  0.00    -0.045 C 
ATOM     27  C   UNL     1      34.882 -15.989 -23.713  0.00  0.00    -0.001 C 
ATOM     28  C   UNL     1      34.426 -15.096 -22.744  0.00  0.00    -0.006 C 
BRANCH  26  29
ATOM     29  C   UNL     1      33.881 -14.533 -20.369  0.00  0.00    -0.059 C 
BRANCH  29  30
ATOM     30  N   UNL     1      32.511 -14.085 -20.625  0.00  0.00    +0.383 N 
ATOM     31  H   UNL     1      32.487 -13.546 -21.491  0.00  0.00    -0.089 HD
ATOM     32  H   UNL     1      32.194 -13.502 -19.852  0.00  0.00    -0.089 HD
ATOM     33  H   UNL     1      31.899 -14.896 -20.713  0.00  0.00    -0.089 HD
ENDBRANCH  29  30
ENDBRANCH  26  29
ENDBRANCH   3  23
TORSDOF 7
ENDMDL
