MODEL 1
REMARK VINA RESULT:     -11.8      0.000      0.000
REMARK  Name = 23658582
REMARK  4 active torsions:
REMARK  status: ('A' for Active; 'I' for Inactive)
REMARK    1  A    between atoms: N_3  and  C_13
REMARK    2  A    between atoms: C_8  and  C_25
REMARK    3  A    between atoms: C_15  and  C_22
REMARK    4  A    between atoms: N_24  and  C_29
REMARK                            x       y       z     vdW  Elec       q    Type
REMARK                         _______ _______ _______ _____ _____    ______ ____
ROOT
ATOM      1 CL   UNL     1      33.441 -13.572 -26.106  0.00  0.00    -0.082 Cl
ATOM      2  O   UNL     1      34.358 -15.555 -21.414  0.00  0.00    -0.352 OA
ATOM      3  N   UNL     1      35.170 -18.891 -22.051  0.00  0.00    -0.295 N 
ATOM      4  N   UNL     1      34.725 -16.812 -20.947  0.00  0.00    -0.062 NA
ATOM      5  C   UNL     1      34.544 -16.867 -23.220  0.00  0.00    +0.072 A 
ATOM      6  C   UNL     1      34.252 -15.591 -22.771  0.00  0.00    +0.183 A 
ATOM      7  C   UNL     1      34.829 -17.577 -22.037  0.00  0.00    +0.174 A 
ATOM      8  C   UNL     1      33.905 -14.528 -23.600  0.00  0.00    +0.101 C 
ATOM      9  C   UNL     1      34.495 -17.133 -24.596  0.00  0.00    +0.007 C 
ATOM     10  C   UNL     1      33.859 -14.808 -24.969  0.00  0.00    +0.065 C 
ATOM     11  C   UNL     1      34.148 -16.085 -25.460  0.00  0.00    +0.012 C 
ATOM     12  H   UNL     1      35.108 -19.309 -22.940  0.00  0.00    +0.154 HD
ENDROOT
BRANCH   3  13
ATOM     13  C   UNL     1      35.598 -19.782 -21.027  0.00  0.00    +0.049 C 
ATOM     14  C   UNL     1      34.678 -20.628 -20.409  0.00  0.00    +0.018 C 
ATOM     15  C   UNL     1      35.098 -21.502 -19.406  0.00  0.00    +0.073 C 
ATOM     16  C   UNL     1      36.939 -19.810 -20.642  0.00  0.00    +0.015 C 
ATOM     17  C   UNL     1      36.438 -21.529 -19.021  0.00  0.00    +0.004 C 
ATOM     18  C   UNL     1      37.359 -20.682 -19.640  0.00  0.00    +0.001 C 
BRANCH  15  22
ATOM     19  F   UNL     1      33.925 -23.587 -19.402  0.00  0.00    -0.166 F 
ATOM     20  F   UNL     1      34.467 -22.761 -17.472  0.00  0.00    -0.166 F 
ATOM     21  F   UNL     1      32.875 -21.845 -18.636  0.00  0.00    -0.166 F 
ATOM     22  C   UNL     1      34.114 -22.406 -18.743  0.00  0.00    +0.419 C 
ENDBRANCH  15  22
ENDBRANCH   3  13
BRANCH   8  25
ATOM     23  O   UNL     1      34.206 -12.211 -23.441  0.00  0.00    -0.270 OA
ATOM     24  N   UNL     1      32.662 -13.216 -22.010  0.00  0.00    -0.278 N 
ATOM     25  C   UNL     1      33.613 -13.220 -23.038  0.00  0.00    +0.253 C 
ATOM     26  H   UNL     1      32.266 -14.089 -21.788  0.00  0.00    +0.155 HD
BRANCH  24  29
ATOM     27  N   UNL     1      31.441 -11.202 -19.152  0.00  0.00    -0.221 NA
ATOM     28  N   UNL     1      31.587  -9.791 -21.100  0.00  0.00    -0.221 NA
ATOM     29  C   UNL     1      32.197 -12.114 -21.247  0.00  0.00    +0.089 C 
ATOM     30  C   UNL     1      31.885 -12.228 -19.908  0.00  0.00    +0.117 C 
ATOM     31  C   UNL     1      32.027 -10.860 -21.796  0.00  0.00    +0.117 C 
ATOM     32  C   UNL     1      31.317 -10.030 -19.803  0.00  0.00    +0.199 C 
ENDBRANCH  24  29
ENDBRANCH   8  25
TORSDOF 4
ENDMDL
MODEL 2
REMARK VINA RESULT:     -11.4      4.185      8.825
REMARK  Name = 23658582
REMARK  4 active torsions:
REMARK  status: ('A' for Active; 'I' for Inactive)
REMARK    1  A    between atoms: N_3  and  C_13
REMARK    2  A    between atoms: C_8  and  C_25
REMARK    3  A    between atoms: C_15  and  C_22
REMARK    4  A    between atoms: N_24  and  C_29
REMARK                            x       y       z     vdW  Elec       q    Type
REMARK                         _______ _______ _______ _____ _____    ______ ____
ROOT
ATOM      1 CL   UNL     1      35.462 -19.832 -24.144  0.00  0.00    -0.082 Cl
ATOM      2  O   UNL     1      34.299 -16.025 -20.836  0.00  0.00    -0.352 OA
ATOM      3  N   UNL     1      33.403 -13.356 -22.900  0.00  0.00    -0.295 N 
ATOM      4  N   UNL     1      33.874 -14.710 -20.980  0.00  0.00    -0.062 NA
ATOM      5  C   UNL     1      34.140 -15.656 -23.039  0.00  0.00    +0.072 A 
ATOM      6  C   UNL     1      34.456 -16.587 -22.065  0.00  0.00    +0.183 A 
ATOM      7  C   UNL     1      33.786 -14.511 -22.299  0.00  0.00    +0.174 A 
ATOM      8  C   UNL     1      34.870 -17.890 -22.330  0.00  0.00    +0.101 C 
ATOM      9  C   UNL     1      34.233 -16.024 -24.390  0.00  0.00    +0.007 C 
ATOM     10  C   UNL     1      34.959 -18.242 -23.681  0.00  0.00    +0.065 C 
ATOM     11  C   UNL     1      34.648 -17.328 -24.693  0.00  0.00    +0.012 C 
ATOM     12  H   UNL     1      33.486 -13.372 -23.881  0.00  0.00    +0.154 HD
ENDROOT
BRANCH   3  13
ATOM     13  C   UNL     1      32.907 -12.125 -22.386  0.00  0.00    +0.049 C 
ATOM     14  C   UNL     1      32.238 -12.100 -21.163  0.00  0.00    +0.018 C 
ATOM     15  C   UNL     1      31.751 -10.894 -20.658  0.00  0.00    +0.073 C 
ATOM     16  C   UNL     1      33.091 -10.944 -23.104  0.00  0.00    +0.015 C 
ATOM     17  C   UNL     1      31.935  -9.713 -21.377  0.00  0.00    +0.004 C 
ATOM     18  C   UNL     1      32.606  -9.738 -22.601  0.00  0.00    +0.001 C 
BRANCH  15  22
ATOM     19  F   UNL     1      29.705 -11.165 -19.449  0.00  0.00    -0.166 F 
ATOM     20  F   UNL     1      31.530 -11.751 -18.436  0.00  0.00    -0.166 F 
ATOM     21  F   UNL     1      31.091  -9.644 -18.746  0.00  0.00    -0.166 F 
ATOM     22  C   UNL     1      31.034 -10.866 -19.351  0.00  0.00    +0.419 C 
ENDBRANCH  15  22
ENDBRANCH   3  13
BRANCH   8  25
ATOM     23  O   UNL     1      36.245 -18.697 -20.614  0.00  0.00    -0.270 OA
ATOM     24  N   UNL     1      34.224 -19.794 -21.007  0.00  0.00    -0.278 N 
ATOM     25  C   UNL     1      35.183 -18.801 -21.242  0.00  0.00    +0.253 C 
ATOM     26  H   UNL     1      33.423 -19.761 -21.580  0.00  0.00    +0.155 HD
BRANCH  24  29
ATOM     27  N   UNL     1      35.511 -22.401 -18.714  0.00  0.00    -0.221 NA
ATOM     28  N   UNL     1      33.106 -22.352 -18.575  0.00  0.00    -0.221 NA
ATOM     29  C   UNL     1      34.257 -20.840 -20.050  0.00  0.00    +0.089 C 
ATOM     30  C   UNL     1      35.441 -21.406 -19.622  0.00  0.00    +0.117 C 
ATOM     31  C   UNL     1      33.110 -21.358 -19.488  0.00  0.00    +0.117 C 
ATOM     32  C   UNL     1      34.323 -22.820 -18.239  0.00  0.00    +0.199 C 
ENDBRANCH  24  29
ENDBRANCH   8  25
TORSDOF 4
ENDMDL
MODEL 3
REMARK VINA RESULT:     -11.3      6.349     11.226
REMARK  Name = 23658582
REMARK  4 active torsions:
REMARK  status: ('A' for Active; 'I' for Inactive)
REMARK    1  A    between atoms: N_3  and  C_13
REMARK    2  A    between atoms: C_8  and  C_25
REMARK    3  A    between atoms: C_15  and  C_22
REMARK    4  A    between atoms: N_24  and  C_29
REMARK                            x       y       z     vdW  Elec       q    Type
REMARK                         _______ _______ _______ _____ _____    ______ ____
ROOT
ATOM      1 CL   UNL     1      34.193 -24.811 -14.777  0.00  0.00    -0.082 Cl
ATOM      2  O   UNL     1      36.774 -21.679 -17.989  0.00  0.00    -0.352 OA
ATOM      3  N   UNL     1      34.387 -20.752 -20.363  0.00  0.00    -0.295 N 
ATOM      4  N   UNL     1      36.433 -20.970 -19.134  0.00  0.00    -0.062 NA
ATOM      5  C   UNL     1      34.608 -22.106 -18.370  0.00  0.00    +0.072 A 
ATOM      6  C   UNL     1      35.683 -22.355 -17.535  0.00  0.00    +0.183 A 
ATOM      7  C   UNL     1      35.141 -21.238 -19.344  0.00  0.00    +0.174 A 
ATOM      8  C   UNL     1      35.630 -23.176 -16.412  0.00  0.00    +0.101 C 
ATOM      9  C   UNL     1      33.372 -22.707 -18.089  0.00  0.00    +0.007 C 
ATOM     10  C   UNL     1      34.392 -23.769 -16.144  0.00  0.00    +0.065 C 
ATOM     11  C   UNL     1      33.283 -23.540 -16.965  0.00  0.00    +0.012 C 
ATOM     12  H   UNL     1      33.480 -21.132 -20.404  0.00  0.00    +0.154 HD
ENDROOT
BRANCH   3  13
ATOM     13  C   UNL     1      34.657 -19.799 -21.386  0.00  0.00    +0.049 C 
ATOM     14  C   UNL     1      34.506 -18.437 -21.127  0.00  0.00    +0.018 C 
ATOM     15  C   UNL     1      34.771 -17.504 -22.130  0.00  0.00    +0.073 C 
ATOM     16  C   UNL     1      35.074 -20.228 -22.646  0.00  0.00    +0.015 C 
ATOM     17  C   UNL     1      35.187 -17.932 -23.390  0.00  0.00    +0.004 C 
ATOM     18  C   UNL     1      35.339 -19.296 -23.648  0.00  0.00    +0.001 C 
BRANCH  15  22
ATOM     19  F   UNL     1      33.324 -15.604 -21.989  0.00  0.00    -0.166 F 
ATOM     20  F   UNL     1      34.979 -15.684 -20.591  0.00  0.00    -0.166 F 
ATOM     21  F   UNL     1      35.353 -15.268 -22.692  0.00  0.00    -0.166 F 
ATOM     22  C   UNL     1      34.608 -16.047 -21.855  0.00  0.00    +0.419 C 
ENDBRANCH  15  22
ENDBRANCH   3  13
BRANCH   8  25
ATOM     23  O   UNL     1      37.396 -22.423 -15.071  0.00  0.00    -0.270 OA
ATOM     24  N   UNL     1      37.232 -24.713 -15.483  0.00  0.00    -0.278 N 
ATOM     25  C   UNL     1      36.811 -23.381 -15.591  0.00  0.00    +0.253 C 
ATOM     26  H   UNL     1      36.675 -25.378 -15.946  0.00  0.00    +0.155 HD
BRANCH  24  29
ATOM     27  N   UNL     1      39.282 -26.536 -12.995  0.00  0.00    -0.221 NA
ATOM     28  N   UNL     1      40.745 -25.417 -14.548  0.00  0.00    -0.221 NA
ATOM     29  C   UNL     1      38.359 -25.224 -14.790  0.00  0.00    +0.089 C 
ATOM     30  C   UNL     1      38.233 -26.032 -13.678  0.00  0.00    +0.117 C 
ATOM     31  C   UNL     1      39.652 -24.947 -15.184  0.00  0.00    +0.117 C 
ATOM     32  C   UNL     1      40.492 -26.193 -13.478  0.00  0.00    +0.199 C 
ENDBRANCH  24  29
ENDBRANCH   8  25
TORSDOF 4
ENDMDL
MODEL 4
REMARK VINA RESULT:     -11.2      5.336      9.547
REMARK  Name = 23658582
REMARK  4 active torsions:
REMARK  status: ('A' for Active; 'I' for Inactive)
REMARK    1  A    between atoms: N_3  and  C_13
REMARK    2  A    between atoms: C_8  and  C_25
REMARK    3  A    between atoms: C_15  and  C_22
REMARK    4  A    between atoms: N_24  and  C_29
REMARK                            x       y       z     vdW  Elec       q    Type
REMARK                         _______ _______ _______ _____ _____    ______ ____
ROOT
ATOM      1 CL   UNL     1      35.369 -19.652 -24.206  0.00  0.00    -0.082 Cl
ATOM      2  O   UNL     1      34.310 -15.765 -20.957  0.00  0.00    -0.352 OA
ATOM      3  N   UNL     1      33.395 -13.132 -23.059  0.00  0.00    -0.295 N 
ATOM      4  N   UNL     1      33.893 -14.449 -21.121  0.00  0.00    -0.062 NA
ATOM      5  C   UNL     1      34.108 -15.441 -23.164  0.00  0.00    +0.072 A 
ATOM      6  C   UNL     1      34.436 -16.354 -22.177  0.00  0.00    +0.183 A 
ATOM      7  C   UNL     1      33.780 -14.278 -22.441  0.00  0.00    +0.174 A 
ATOM      8  C   UNL     1      34.833 -17.666 -22.423  0.00  0.00    +0.101 C 
ATOM      9  C   UNL     1      34.170 -15.839 -24.508  0.00  0.00    +0.007 C 
ATOM     10  C   UNL     1      34.891 -18.048 -23.767  0.00  0.00    +0.065 C 
ATOM     11  C   UNL     1      34.566 -17.153 -24.792  0.00  0.00    +0.012 C 
ATOM     12  H   UNL     1      33.457 -13.169 -24.041  0.00  0.00    +0.154 HD
ENDROOT
BRANCH   3  13
ATOM     13  C   UNL     1      32.920 -11.886 -22.561  0.00  0.00    +0.049 C 
ATOM     14  C   UNL     1      33.423 -10.692 -23.076  0.00  0.00    +0.018 C 
ATOM     15  C   UNL     1      32.957  -9.471 -22.588  0.00  0.00    +0.073 C 
ATOM     16  C   UNL     1      31.951 -11.860 -21.559  0.00  0.00    +0.015 C 
ATOM     17  C   UNL     1      31.988  -9.444 -21.586  0.00  0.00    +0.004 C 
ATOM     18  C   UNL     1      31.485 -10.640 -21.071  0.00  0.00    +0.001 C 
BRANCH  15  22
ATOM     19  F   UNL     1      32.545  -7.400 -23.714  0.00  0.00    -0.166 F 
ATOM     20  F   UNL     1      34.094  -7.403 -22.198  0.00  0.00    -0.166 F 
ATOM     21  F   UNL     1      34.440  -8.393 -24.103  0.00  0.00    -0.166 F 
ATOM     22  C   UNL     1      33.496  -8.193 -23.137  0.00  0.00    +0.419 C 
ENDBRANCH  15  22
ENDBRANCH   3  13
BRANCH   8  25
ATOM     23  O   UNL     1      36.169 -18.367 -20.631  0.00  0.00    -0.270 OA
ATOM     24  N   UNL     1      34.280 -19.632 -21.149  0.00  0.00    -0.278 N 
ATOM     25  C   UNL     1      35.160 -18.557 -21.322  0.00  0.00    +0.253 C 
ATOM     26  H   UNL     1      33.515 -19.664 -21.768  0.00  0.00    +0.155 HD
BRANCH  24  29
ATOM     27  N   UNL     1      35.649 -22.257 -18.926  0.00  0.00    -0.221 NA
ATOM     28  N   UNL     1      33.255 -22.184 -18.669  0.00  0.00    -0.221 NA
ATOM     29  C   UNL     1      34.349 -20.681 -20.197  0.00  0.00    +0.089 C 
ATOM     30  C   UNL     1      35.546 -21.260 -19.828  0.00  0.00    +0.117 C 
ATOM     31  C   UNL     1      33.225 -21.188 -19.580  0.00  0.00    +0.117 C 
ATOM     32  C   UNL     1      34.482 -22.665 -18.394  0.00  0.00    +0.199 C 
ENDBRANCH  24  29
ENDBRANCH   8  25
TORSDOF 4
ENDMDL
MODEL 5
REMARK VINA RESULT:     -10.9      5.878      9.964
REMARK  Name = 23658582
REMARK  4 active torsions:
REMARK  status: ('A' for Active; 'I' for Inactive)
REMARK    1  A    between atoms: N_3  and  C_13
REMARK    2  A    between atoms: C_8  and  C_25
REMARK    3  A    between atoms: C_15  and  C_22
REMARK    4  A    between atoms: N_24  and  C_29
REMARK                            x       y       z     vdW  Elec       q    Type
REMARK                         _______ _______ _______ _____ _____    ______ ____
ROOT
ATOM      1 CL   UNL     1      35.940 -24.136 -15.717  0.00  0.00    -0.082 Cl
ATOM      2  O   UNL     1      33.197 -21.796 -19.431  0.00  0.00    -0.352 OA
ATOM      3  N   UNL     1      35.476 -19.602 -20.909  0.00  0.00    -0.295 N 
ATOM      4  N   UNL     1      33.484 -20.825 -20.383  0.00  0.00    -0.062 NA
ATOM      5  C   UNL     1      35.351 -21.250 -19.143  0.00  0.00    +0.072 A 
ATOM      6  C   UNL     1      34.313 -22.048 -18.693  0.00  0.00    +0.183 A 
ATOM      7  C   UNL     1      34.770 -20.514 -20.194  0.00  0.00    +0.174 A 
ATOM      8  C   UNL     1      34.420 -22.958 -17.645  0.00  0.00    +0.101 C 
ATOM      9  C   UNL     1      36.604 -21.347 -18.519  0.00  0.00    +0.007 C 
ATOM     10  C   UNL     1      35.675 -23.043 -17.033  0.00  0.00    +0.065 C 
ATOM     11  C   UNL     1      36.747 -22.253 -17.460  0.00  0.00    +0.012 C 
ATOM     12  H   UNL     1      36.386 -19.445 -20.565  0.00  0.00    +0.154 HD
ENDROOT
BRANCH   3  13
ATOM     13  C   UNL     1      35.155 -18.826 -22.058  0.00  0.00    +0.049 C 
ATOM     14  C   UNL     1      34.964 -17.450 -21.940  0.00  0.00    +0.018 C 
ATOM     15  C   UNL     1      34.649 -16.691 -23.068  0.00  0.00    +0.073 C 
ATOM     16  C   UNL     1      35.034 -19.443 -23.304  0.00  0.00    +0.015 C 
ATOM     17  C   UNL     1      34.527 -17.307 -24.312  0.00  0.00    +0.004 C 
ATOM     18  C   UNL     1      34.720 -18.685 -24.430  0.00  0.00    +0.001 C 
BRANCH  15  22
ATOM     19  F   UNL     1      34.979 -14.685 -21.805  0.00  0.00    -0.166 F 
ATOM     20  F   UNL     1      34.991 -14.500 -23.965  0.00  0.00    -0.166 F 
ATOM     21  F   UNL     1      33.122 -14.875 -22.920  0.00  0.00    -0.166 F 
ATOM     22  C   UNL     1      34.442 -15.219 -22.942  0.00  0.00    +0.419 C 
ENDBRANCH  15  22
ENDBRANCH   3  13
BRANCH   8  25
ATOM     23  O   UNL     1      33.081 -24.878 -17.723  0.00  0.00    -0.270 OA
ATOM     24  N   UNL     1      32.423 -23.138 -16.314  0.00  0.00    -0.278 N 
ATOM     25  C   UNL     1      33.275 -23.755 -17.239  0.00  0.00    +0.253 C 
ATOM     26  H   UNL     1      32.696 -22.243 -16.010  0.00  0.00    +0.155 HD
BRANCH  24  29
ATOM     27  N   UNL     1      30.080 -25.107 -14.229  0.00  0.00    -0.221 NA
ATOM     28  N   UNL     1      28.813 -23.644 -15.663  0.00  0.00    -0.221 NA
ATOM     29  C   UNL     1      31.217 -23.639 -15.761  0.00  0.00    +0.089 C 
ATOM     30  C   UNL     1      31.207 -24.608 -14.778  0.00  0.00    +0.117 C 
ATOM     31  C   UNL     1      29.979 -23.190 -16.169  0.00  0.00    +0.117 C 
ATOM     32  C   UNL     1      28.935 -24.588 -14.711  0.00  0.00    +0.199 C 
ENDBRANCH  24  29
ENDBRANCH   8  25
TORSDOF 4
ENDMDL
MODEL 6
REMARK VINA RESULT:     -10.8      6.922     11.473
REMARK  Name = 23658582
REMARK  4 active torsions:
REMARK  status: ('A' for Active; 'I' for Inactive)
REMARK    1  A    between atoms: N_3  and  C_13
REMARK    2  A    between atoms: C_8  and  C_25
REMARK    3  A    between atoms: C_15  and  C_22
REMARK    4  A    between atoms: N_24  and  C_29
REMARK                            x       y       z     vdW  Elec       q    Type
REMARK                         _______ _______ _______ _____ _____    ______ ____
ROOT
ATOM      1 CL   UNL     1      33.193 -24.935 -14.153  0.00  0.00    -0.082 Cl
ATOM      2  O   UNL     1      36.594 -22.450 -17.161  0.00  0.00    -0.352 OA
ATOM      3  N   UNL     1      34.653 -21.210 -19.785  0.00  0.00    -0.295 N 
ATOM      4  N   UNL     1      36.498 -21.738 -18.351  0.00  0.00    -0.062 NA
ATOM      5  C   UNL     1      34.433 -22.498 -17.749  0.00  0.00    +0.072 A 
ATOM      6  C   UNL     1      35.360 -22.901 -16.804  0.00  0.00    +0.183 A 
ATOM      7  C   UNL     1      35.205 -21.780 -18.683  0.00  0.00    +0.174 A 
ATOM      8  C   UNL     1      35.052 -23.652 -15.672  0.00  0.00    +0.101 C 
ATOM      9  C   UNL     1      33.088 -22.857 -17.579  0.00  0.00    +0.007 C 
ATOM     10  C   UNL     1      33.707 -24.002 -15.517  0.00  0.00    +0.065 C 
ATOM     11  C   UNL     1      32.742 -23.614 -16.451  0.00  0.00    +0.012 C 
ATOM     12  H   UNL     1      33.699 -21.423 -19.908  0.00  0.00    +0.154 HD
ENDROOT
BRANCH   3  13
ATOM     13  C   UNL     1      35.187 -20.363 -20.797  0.00  0.00    +0.049 C 
ATOM     14  C   UNL     1      34.558 -20.279 -22.039  0.00  0.00    +0.018 C 
ATOM     15  C   UNL     1      35.082 -19.449 -23.030  0.00  0.00    +0.073 C 
ATOM     16  C   UNL     1      36.339 -19.617 -20.546  0.00  0.00    +0.015 C 
ATOM     17  C   UNL     1      36.233 -18.704 -22.780  0.00  0.00    +0.004 C 
ATOM     18  C   UNL     1      36.862 -18.788 -21.537  0.00  0.00    +0.001 C 
BRANCH  15  22
ATOM     19  F   UNL     1      33.059 -19.542 -24.304  0.00  0.00    -0.166 F 
ATOM     20  F   UNL     1      34.582 -18.154 -24.978  0.00  0.00    -0.166 F 
ATOM     21  F   UNL     1      34.871 -20.293 -25.243  0.00  0.00    -0.166 F 
ATOM     22  C   UNL     1      34.411 -19.360 -24.359  0.00  0.00    +0.419 C 
ENDBRANCH  15  22
ENDBRANCH   3  13
BRANCH   8  25
ATOM     23  O   UNL     1      36.066 -23.632 -13.561  0.00  0.00    -0.270 OA
ATOM     24  N   UNL     1      37.114 -24.827 -15.269  0.00  0.00    -0.278 N 
ATOM     25  C   UNL     1      36.093 -24.031 -14.732  0.00  0.00    +0.253 C 
ATOM     26  H   UNL     1      37.012 -25.074 -16.216  0.00  0.00    +0.155 HD
BRANCH  24  29
ATOM     27  N   UNL     1      40.671 -25.444 -14.446  0.00  0.00    -0.221 NA
ATOM     28  N   UNL     1      39.286 -26.658 -12.893  0.00  0.00    -0.221 NA
ATOM     29  C   UNL     1      38.274 -25.323 -14.621  0.00  0.00    +0.089 C 
ATOM     30  C   UNL     1      39.546 -24.992 -15.039  0.00  0.00    +0.117 C 
ATOM     31  C   UNL     1      38.203 -26.168 -13.533  0.00  0.00    +0.117 C 
ATOM     32  C   UNL     1      40.471 -26.261 -13.396  0.00  0.00    +0.199 C 
ENDBRANCH  24  29
ENDBRANCH   8  25
TORSDOF 4
ENDMDL
MODEL 7
REMARK VINA RESULT:     -10.3      6.602     11.470
REMARK  Name = 23658582
REMARK  4 active torsions:
REMARK  status: ('A' for Active; 'I' for Inactive)
REMARK    1  A    between atoms: N_3  and  C_13
REMARK    2  A    between atoms: C_8  and  C_25
REMARK    3  A    between atoms: C_15  and  C_22
REMARK    4  A    between atoms: N_24  and  C_29
REMARK                            x       y       z     vdW  Elec       q    Type
REMARK                         _______ _______ _______ _____ _____    ______ ____
ROOT
ATOM      1 CL   UNL     1      31.999 -14.473 -19.243  0.00  0.00    -0.082 Cl
ATOM      2  O   UNL     1      32.533 -11.004 -23.046  0.00  0.00    -0.352 OA
ATOM      3  N   UNL     1      31.438  -8.011 -21.618  0.00  0.00    -0.295 N 
ATOM      4  N   UNL     1      32.286  -9.640 -23.157  0.00  0.00    -0.062 NA
ATOM      5  C   UNL     1      31.739 -10.345 -21.057  0.00  0.00    +0.072 A 
ATOM      6  C   UNL     1      32.206 -11.421 -21.792  0.00  0.00    +0.183 A 
ATOM      7  C   UNL     1      31.813  -9.269 -21.963  0.00  0.00    +0.174 A 
ATOM      8  C   UNL     1      32.314 -12.719 -21.300  0.00  0.00    +0.101 C 
ATOM      9  C   UNL     1      31.342 -10.549 -19.727  0.00  0.00    +0.007 C 
ATOM     10  C   UNL     1      31.915 -12.907 -19.973  0.00  0.00    +0.065 C 
ATOM     11  C   UNL     1      31.437 -11.844 -19.200  0.00  0.00    +0.012 C 
ATOM     12  H   UNL     1      31.031  -7.948 -20.724  0.00  0.00    +0.154 HD
ENDROOT
BRANCH   3  13
ATOM     13  C   UNL     1      31.517  -6.765 -22.301  0.00  0.00    +0.049 C 
ATOM     14  C   UNL     1      32.434  -6.595 -23.338  0.00  0.00    +0.018 C 
ATOM     15  C   UNL     1      32.511  -5.374 -24.008  0.00  0.00    +0.073 C 
ATOM     16  C   UNL     1      30.676  -5.714 -21.935  0.00  0.00    +0.015 C 
ATOM     17  C   UNL     1      31.671  -4.323 -23.642  0.00  0.00    +0.004 C 
ATOM     18  C   UNL     1      30.752  -4.494 -22.604  0.00  0.00    +0.001 C 
BRANCH  15  22
ATOM     19  F   UNL     1      33.650  -3.889 -25.499  0.00  0.00    -0.166 F 
ATOM     20  F   UNL     1      34.751  -5.624 -24.808  0.00  0.00    -0.166 F 
ATOM     21  F   UNL     1      33.139  -5.865 -26.248  0.00  0.00    -0.166 F 
ATOM     22  C   UNL     1      33.493  -5.190 -25.116  0.00  0.00    +0.419 C 
ENDBRANCH  15  22
ENDBRANCH   3  13
BRANCH   8  25
ATOM     23  O   UNL     1      32.402 -13.929 -23.303  0.00  0.00    -0.270 OA
ATOM     24  N   UNL     1      33.748 -14.637 -21.535  0.00  0.00    -0.278 N 
ATOM     25  C   UNL     1      32.816 -13.789 -22.146  0.00  0.00    +0.253 C 
ATOM     26  H   UNL     1      33.992 -14.411 -20.608  0.00  0.00    +0.155 HD
BRANCH  24  29
ATOM     27  N   UNL     1      35.423 -17.931 -21.778  0.00  0.00    -0.221 NA
ATOM     28  N   UNL     1      35.223 -16.988 -23.986  0.00  0.00    -0.221 NA
ATOM     29  C   UNL     1      34.386 -15.780 -22.081  0.00  0.00    +0.089 C 
ATOM     30  C   UNL     1      34.814 -16.830 -21.293  0.00  0.00    +0.117 C 
ATOM     31  C   UNL     1      34.620 -15.915 -23.433  0.00  0.00    +0.117 C 
ATOM     32  C   UNL     1      35.594 -17.945 -23.113  0.00  0.00    +0.199 C 
ENDBRANCH  24  29
ENDBRANCH   8  25
TORSDOF 4
ENDMDL
MODEL 8
REMARK VINA RESULT:     -10.2      4.379      7.305
REMARK  Name = 23658582
REMARK  4 active torsions:
REMARK  status: ('A' for Active; 'I' for Inactive)
REMARK    1  A    between atoms: N_3  and  C_13
REMARK    2  A    between atoms: C_8  and  C_25
REMARK    3  A    between atoms: C_15  and  C_22
REMARK    4  A    between atoms: N_24  and  C_29
REMARK                            x       y       z     vdW  Elec       q    Type
REMARK                         _______ _______ _______ _____ _____    ______ ____
ROOT
ATOM      1 CL   UNL     1      37.707 -20.122 -20.810  0.00  0.00    -0.082 Cl
ATOM      2  O   UNL     1      32.831 -21.112 -19.382  0.00  0.00    -0.352 OA
ATOM      3  N   UNL     1      33.166 -23.391 -16.758  0.00  0.00    -0.295 N 
ATOM      4  N   UNL     1      32.250 -21.920 -18.412  0.00  0.00    -0.062 NA
ATOM      5  C   UNL     1      34.520 -22.120 -18.309  0.00  0.00    +0.072 A 
ATOM      6  C   UNL     1      34.186 -21.233 -19.318  0.00  0.00    +0.183 A 
ATOM      7  C   UNL     1      33.271 -22.510 -17.786  0.00  0.00    +0.174 A 
ATOM      8  C   UNL     1      35.112 -20.581 -20.128  0.00  0.00    +0.101 C 
ATOM      9  C   UNL     1      35.873 -22.397 -18.066  0.00  0.00    +0.007 C 
ATOM     10  C   UNL     1      36.457 -20.867 -19.874  0.00  0.00    +0.065 C 
ATOM     11  C   UNL     1      36.833 -21.758 -18.863  0.00  0.00    +0.012 C 
ATOM     12  H   UNL     1      34.024 -23.789 -16.485  0.00  0.00    +0.154 HD
ENDROOT
BRANCH   3  13
ATOM     13  C   UNL     1      32.053 -23.851 -15.999  0.00  0.00    +0.049 C 
ATOM     14  C   UNL     1      30.755 -23.593 -16.439  0.00  0.00    +0.018 C 
ATOM     15  C   UNL     1      29.664 -24.045 -15.695  0.00  0.00    +0.073 C 
ATOM     16  C   UNL     1      32.261 -24.561 -14.817  0.00  0.00    +0.015 C 
ATOM     17  C   UNL     1      29.872 -24.754 -14.513  0.00  0.00    +0.004 C 
ATOM     18  C   UNL     1      31.172 -25.013 -14.074  0.00  0.00    +0.001 C 
BRANCH  15  22
ATOM     19  F   UNL     1      27.404 -23.482 -15.152  0.00  0.00    -0.166 F 
ATOM     20  F   UNL     1      28.188 -22.706 -17.019  0.00  0.00    -0.166 F 
ATOM     21  F   UNL     1      27.727 -24.823 -16.832  0.00  0.00    -0.166 F 
ATOM     22  C   UNL     1      28.276 -23.768 -16.163  0.00  0.00    +0.419 C 
ENDBRANCH  15  22
ENDBRANCH   3  13
BRANCH   8  25
ATOM     23  O   UNL     1      33.983 -20.066 -22.114  0.00  0.00    -0.270 OA
ATOM     24  N   UNL     1      35.110 -18.344 -21.015  0.00  0.00    -0.278 N 
ATOM     25  C   UNL     1      34.669 -19.665 -21.165  0.00  0.00    +0.253 C 
ATOM     26  H   UNL     1      35.649 -18.160 -20.213  0.00  0.00    +0.155 HD
BRANCH  24  29
ATOM     27  N   UNL     1      34.880 -16.275 -24.078  0.00  0.00    -0.221 NA
ATOM     28  N   UNL     1      34.196 -14.952 -22.185  0.00  0.00    -0.221 NA
ATOM     29  C   UNL     1      34.878 -17.238 -21.872  0.00  0.00    +0.089 C 
ATOM     30  C   UNL     1      35.090 -17.307 -23.234  0.00  0.00    +0.117 C 
ATOM     31  C   UNL     1      34.427 -16.024 -21.398  0.00  0.00    +0.117 C 
ATOM     32  C   UNL     1      34.440 -15.144 -23.495  0.00  0.00    +0.199 C 
ENDBRANCH  24  29
ENDBRANCH   8  25
TORSDOF 4
ENDMDL
MODEL 9
REMARK VINA RESULT:      -9.9      7.360     12.212
REMARK  Name = 23658582
REMARK  4 active torsions:
REMARK  status: ('A' for Active; 'I' for Inactive)
REMARK    1  A    between atoms: N_3  and  C_13
REMARK    2  A    between atoms: C_8  and  C_25
REMARK    3  A    between atoms: C_15  and  C_22
REMARK    4  A    between atoms: N_24  and  C_29
REMARK                            x       y       z     vdW  Elec       q    Type
REMARK                         _______ _______ _______ _____ _____    ______ ____
ROOT
ATOM      1 CL   UNL     1      31.587 -11.817 -18.458  0.00  0.00    -0.082 Cl
ATOM      2  O   UNL     1      32.287  -9.748 -23.150  0.00  0.00    -0.352 OA
ATOM      3  N   UNL     1      32.057  -6.307 -22.598  0.00  0.00    -0.295 N 
ATOM      4  N   UNL     1      32.317  -8.448 -23.642  0.00  0.00    -0.062 NA
ATOM      5  C   UNL     1      31.940  -8.402 -21.393  0.00  0.00    +0.072 A 
ATOM      6  C   UNL     1      32.063  -9.716 -21.808  0.00  0.00    +0.183 A 
ATOM      7  C   UNL     1      32.108  -7.664 -22.581  0.00  0.00    +0.174 A 
ATOM      8  C   UNL     1      31.965 -10.818 -20.962  0.00  0.00    +0.101 C 
ATOM      9  C   UNL     1      31.703  -8.134 -20.036  0.00  0.00    +0.007 C 
ATOM     10  C   UNL     1      31.729 -10.536 -19.613  0.00  0.00    +0.065 C 
ATOM     11  C   UNL     1      31.599  -9.220 -19.156  0.00  0.00    +0.012 C 
ATOM     12  H   UNL     1      31.805  -5.908 -21.735  0.00  0.00    +0.154 HD
ENDROOT
BRANCH   3  13
ATOM     13  C   UNL     1      32.297  -5.351 -23.625  0.00  0.00    +0.049 C 
ATOM     14  C   UNL     1      33.362  -5.529 -24.508  0.00  0.00    +0.018 C 
ATOM     15  C   UNL     1      33.597  -4.592 -25.515  0.00  0.00    +0.073 C 
ATOM     16  C   UNL     1      31.466  -4.238 -23.750  0.00  0.00    +0.015 C 
ATOM     17  C   UNL     1      32.766  -3.479 -25.639  0.00  0.00    +0.004 C 
ATOM     18  C   UNL     1      31.700  -3.302 -24.756  0.00  0.00    +0.001 C 
BRANCH  15  22
ATOM     19  F   UNL     1      35.589  -5.783 -26.095  0.00  0.00    -0.166 F 
ATOM     20  F   UNL     1      34.348  -5.086 -27.731  0.00  0.00    -0.166 F 
ATOM     21  F   UNL     1      35.513  -3.663 -26.571  0.00  0.00    -0.166 F 
ATOM     22  C   UNL     1      34.737  -4.779 -26.458  0.00  0.00    +0.419 C 
ENDBRANCH  15  22
ENDBRANCH   3  13
BRANCH   8  25
ATOM     23  O   UNL     1      31.369 -13.079 -21.094  0.00  0.00    -0.270 OA
ATOM     24  N   UNL     1      33.144 -12.335 -22.412  0.00  0.00    -0.278 N 
ATOM     25  C   UNL     1      32.107 -12.166 -21.486  0.00  0.00    +0.253 C 
ATOM     26  H   UNL     1      33.655 -11.524 -22.637  0.00  0.00    +0.155 HD
BRANCH  24  29
ATOM     27  N   UNL     1      33.388 -15.038 -24.931  0.00  0.00    -0.221 NA
ATOM     28  N   UNL     1      34.916 -15.506 -23.128  0.00  0.00    -0.221 NA
ATOM     29  C   UNL     1      33.553 -13.524 -23.067  0.00  0.00    +0.089 C 
ATOM     30  C   UNL     1      33.023 -13.914 -24.280  0.00  0.00    +0.117 C 
ATOM     31  C   UNL     1      34.504 -14.368 -22.532  0.00  0.00    +0.117 C 
ATOM     32  C   UNL     1      34.325 -15.777 -24.308  0.00  0.00    +0.199 C 
ENDBRANCH  24  29
ENDBRANCH   8  25
TORSDOF 4
ENDMDL
