MODEL 1
REMARK VINA RESULT:     -11.9      0.000      0.000
REMARK  Name = 32778
REMARK  7 active torsions:
REMARK  status: ('A' for Active; 'I' for Inactive)
REMARK    1  A    between atoms: C_1  and  S_7
REMARK    2  A    between atoms: C_2  and  C_23
REMARK    3  A    between atoms: S_7  and  N_12
REMARK    4  A    between atoms: N_11  and  N_16
REMARK    5  A    between atoms: C_23  and  C_24
REMARK    6  A    between atoms: C_24  and  N_26
REMARK    7  A    between atoms: C_27  and  C_31
REMARK                            x       y       z     vdW  Elec       q    Type
REMARK                         _______ _______ _______ _____ _____    ______ ____
ROOT
ATOM      1  C   UNL     1      34.480 -21.572 -19.514  0.00  0.00    +0.125 C 
ATOM      2  C   UNL     1      35.507 -19.524 -21.104  0.00  0.00    -0.020 C 
ATOM      3  C   UNL     1      33.614 -20.738 -20.221  0.00  0.00    +0.020 C 
ATOM      4  C   UNL     1      35.859 -21.382 -19.602  0.00  0.00    +0.020 C 
ATOM      5  C   UNL     1      34.128 -19.714 -21.017  0.00  0.00    -0.003 C 
ATOM      6  C   UNL     1      36.373 -20.358 -20.397  0.00  0.00    -0.003 C 
ENDROOT
BRANCH   1   7
ATOM      7  S   UNL     1      33.829 -22.869 -18.504  0.00  0.00    +0.077 S 
ATOM      8  O   UNL     1      33.679 -24.052 -19.329  0.00  0.00    -0.150 OA
ATOM      9  O   UNL     1      32.688 -22.317 -17.797  0.00  0.00    -0.150 OA
BRANCH   7  12
ATOM     10  O   UNL     1      33.993 -24.354 -15.783  0.00  0.00    -0.250 OA
ATOM     11  N   UNL     1      36.231 -23.841 -15.497  0.00  0.00    -0.230 N 
ATOM     12  N   UNL     1      35.114 -23.103 -17.404  0.00  0.00    -0.168 N 
ATOM     13  C   UNL     1      35.031 -23.823 -16.170  0.00  0.00    +0.333 C 
ATOM     14  H   UNL     1      37.021 -23.390 -15.875  0.00  0.00    +0.171 HD
ATOM     15  H   UNL     1      35.987 -22.709 -17.638  0.00  0.00    +0.178 HD
BRANCH  11  16
ATOM     16  N   UNL     1      36.315 -24.503 -14.282  0.00  0.00    -0.205 NA
ATOM     17  C   UNL     1      37.783 -24.856 -11.461  0.00  0.00    +0.002 C 
ATOM     18  C   UNL     1      37.801 -26.306 -11.928  0.00  0.00    +0.002 C 
ATOM     19  C   UNL     1      36.506 -24.093 -11.792  0.00  0.00    +0.019 C 
ATOM     20  C   UNL     1      37.167 -26.607 -13.282  0.00  0.00    +0.019 C 
ATOM     21  C   UNL     1      36.499 -23.520 -13.212  0.00  0.00    +0.092 C 
ATOM     22  C   UNL     1      37.355 -25.534 -14.353  0.00  0.00    +0.092 C 
ENDBRANCH  11  16
ENDBRANCH   7  12
ENDBRANCH   1   7
BRANCH   2  23
ATOM     23  C   UNL     1      36.056 -18.429 -21.956  0.00  0.00    +0.048 C 
BRANCH  23  24
ATOM     24  C   UNL     1      35.254 -18.193 -23.243  0.00  0.00    +0.094 C 
BRANCH  24  26
ATOM     25  O   UNL     1      34.154 -17.035 -25.589  0.00  0.00    -0.268 OA
ATOM     26  N   UNL     1      34.891 -16.812 -23.415  0.00  0.00    -0.299 N 
ATOM     27  C   UNL     1      34.355 -16.324 -24.605  0.00  0.00    +0.267 C 
ATOM     28  H   UNL     1      35.025 -16.189 -22.665  0.00  0.00    +0.150 HD
BRANCH  27  31
ATOM     29  O   UNL     1      33.451 -12.971 -25.435  0.00  0.00    -0.358 OA
ATOM     30  N   UNL     1      33.617 -14.314 -25.754  0.00  0.00    -0.073 NA
ATOM     31  C   UNL     1      34.066 -14.882 -24.632  0.00  0.00    +0.176 C 
ATOM     32  C   UNL     1      34.202 -13.958 -23.582  0.00  0.00    +0.063 C 
ATOM     33  C   UNL     1      33.804 -12.772 -24.139  0.00  0.00    +0.155 C 
ATOM     34  C   UNL     1      33.688 -11.399 -23.631  0.00  0.00    +0.075 C 
ENDBRANCH  27  31
ENDBRANCH  24  26
ENDBRANCH  23  24
ENDBRANCH   2  23
TORSDOF 7
ENDMDL
MODEL 2
REMARK VINA RESULT:     -11.9      1.739      1.839
REMARK  Name = 32778
REMARK  7 active torsions:
REMARK  status: ('A' for Active; 'I' for Inactive)
REMARK    1  A    between atoms: C_1  and  S_7
REMARK    2  A    between atoms: C_2  and  C_23
REMARK    3  A    between atoms: S_7  and  N_12
REMARK    4  A    between atoms: N_11  and  N_16
REMARK    5  A    between atoms: C_23  and  C_24
REMARK    6  A    between atoms: C_24  and  N_26
REMARK    7  A    between atoms: C_27  and  C_31
REMARK                            x       y       z     vdW  Elec       q    Type
REMARK                         _______ _______ _______ _____ _____    ______ ____
ROOT
ATOM      1  C   UNL     1      33.995 -21.908 -19.201  0.00  0.00    +0.125 C 
ATOM      2  C   UNL     1      34.720 -19.924 -21.022  0.00  0.00    -0.020 C 
ATOM      3  C   UNL     1      33.011 -21.148 -19.832  0.00  0.00    +0.020 C 
ATOM      4  C   UNL     1      35.342 -21.676 -19.481  0.00  0.00    +0.020 C 
ATOM      5  C   UNL     1      33.373 -20.156 -20.743  0.00  0.00    -0.003 C 
ATOM      6  C   UNL     1      35.705 -20.684 -20.392  0.00  0.00    -0.003 C 
ENDROOT
BRANCH   1   7
ATOM      7  S   UNL     1      33.535 -23.164 -18.046  0.00  0.00    +0.077 S 
ATOM      8  O   UNL     1      33.512 -24.435 -18.744  0.00  0.00    -0.150 OA
ATOM      9  O   UNL     1      32.354 -22.684 -17.353  0.00  0.00    -0.150 OA
BRANCH   7  12
ATOM     10  O   UNL     1      34.087 -24.618 -15.358  0.00  0.00    -0.250 OA
ATOM     11  N   UNL     1      36.167 -23.634 -15.110  0.00  0.00    -0.230 N 
ATOM     12  N   UNL     1      34.869 -23.129 -16.977  0.00  0.00    -0.168 N 
ATOM     13  C   UNL     1      34.974 -23.868 -15.756  0.00  0.00    +0.333 C 
ATOM     14  H   UNL     1      36.830 -23.015 -15.495  0.00  0.00    +0.171 HD
ATOM     15  H   UNL     1      35.629 -22.551 -17.222  0.00  0.00    +0.178 HD
BRANCH  11  16
ATOM     16  N   UNL     1      36.423 -24.279 -13.910  0.00  0.00    -0.205 NA
ATOM     17  C   UNL     1      38.386 -24.750 -11.428  0.00  0.00    +0.002 C 
ATOM     18  C   UNL     1      38.149 -26.200 -11.830  0.00  0.00    +0.002 C 
ATOM     19  C   UNL     1      37.160 -23.850 -11.528  0.00  0.00    +0.019 C 
ATOM     20  C   UNL     1      37.224 -26.450 -13.016  0.00  0.00    +0.019 C 
ATOM     21  C   UNL     1      36.928 -23.306 -12.940  0.00  0.00    +0.092 C 
ATOM     22  C   UNL     1      37.307 -25.425 -14.146  0.00  0.00    +0.092 C 
ENDBRANCH  11  16
ENDBRANCH   7  12
ENDBRANCH   1   7
BRANCH   2  23
ATOM     23  C   UNL     1      35.107 -18.864 -21.998  0.00  0.00    +0.048 C 
BRANCH  23  24
ATOM     24  C   UNL     1      35.711 -17.616 -21.340  0.00  0.00    +0.094 C 
BRANCH  24  26
ATOM     25  O   UNL     1      35.249 -15.530 -23.207  0.00  0.00    -0.268 OA
ATOM     26  N   UNL     1      34.753 -16.552 -21.201  0.00  0.00    -0.299 N 
ATOM     27  C   UNL     1      34.589 -15.564 -22.169  0.00  0.00    +0.267 C 
ATOM     28  H   UNL     1      34.192 -16.522 -20.392  0.00  0.00    +0.150 HD
BRANCH  27  31
ATOM     29  O   UNL     1      32.128 -12.979 -22.226  0.00  0.00    -0.358 OA
ATOM     30  N   UNL     1      32.996 -13.863 -22.856  0.00  0.00    -0.073 NA
ATOM     31  C   UNL     1      33.591 -14.529 -21.863  0.00  0.00    +0.176 C 
ATOM     32  C   UNL     1      33.143 -14.114 -20.597  0.00  0.00    +0.063 C 
ATOM     33  C   UNL     1      32.225 -13.138 -20.881  0.00  0.00    +0.155 C 
ATOM     34  C   UNL     1      31.369 -12.277 -20.055  0.00  0.00    +0.075 C 
ENDBRANCH  27  31
ENDBRANCH  24  26
ENDBRANCH  23  24
ENDBRANCH   2  23
TORSDOF 7
ENDMDL
MODEL 3
REMARK VINA RESULT:     -11.6      2.613     12.117
REMARK  Name = 32778
REMARK  7 active torsions:
REMARK  status: ('A' for Active; 'I' for Inactive)
REMARK    1  A    between atoms: C_1  and  S_7
REMARK    2  A    between atoms: C_2  and  C_23
REMARK    3  A    between atoms: S_7  and  N_12
REMARK    4  A    between atoms: N_11  and  N_16
REMARK    5  A    between atoms: C_23  and  C_24
REMARK    6  A    between atoms: C_24  and  N_26
REMARK    7  A    between atoms: C_27  and  C_31
REMARK                            x       y       z     vdW  Elec       q    Type
REMARK                         _______ _______ _______ _____ _____    ______ ____
ROOT
ATOM      1  C   UNL     1      35.544 -20.426 -20.353  0.00  0.00    +0.125 C 
ATOM      2  C   UNL     1      34.441 -22.373 -18.688  0.00  0.00    -0.020 C 
ATOM      3  C   UNL     1      36.377 -21.248 -19.595  0.00  0.00    +0.020 C 
ATOM      4  C   UNL     1      34.159 -20.577 -20.279  0.00  0.00    +0.020 C 
ATOM      5  C   UNL     1      35.826 -22.223 -18.763  0.00  0.00    -0.003 C 
ATOM      6  C   UNL     1      33.608 -21.551 -19.447  0.00  0.00    -0.003 C 
ENDROOT
BRANCH   1   7
ATOM      7  S   UNL     1      36.244 -19.191 -21.406  0.00  0.00    +0.077 S 
ATOM      8  O   UNL     1      35.850 -19.484 -22.771  0.00  0.00    -0.150 OA
ATOM      9  O   UNL     1      37.647 -19.084 -21.053  0.00  0.00    -0.150 OA
BRANCH   7  12
ATOM     10  O   UNL     1      34.741 -16.941 -22.929  0.00  0.00    -0.250 OA
ATOM     11  N   UNL     1      34.189 -15.820 -20.982  0.00  0.00    -0.230 N 
ATOM     12  N   UNL     1      35.419 -17.795 -20.866  0.00  0.00    -0.168 N 
ATOM     13  C   UNL     1      34.767 -16.838 -21.706  0.00  0.00    +0.333 C 
ATOM     14  H   UNL     1      34.254 -15.809 -19.999  0.00  0.00    +0.171 HD
ATOM     15  H   UNL     1      35.390 -17.636 -19.894  0.00  0.00    +0.178 HD
BRANCH  11  16
ATOM     16  N   UNL     1      33.515 -14.812 -21.653  0.00  0.00    -0.205 NA
ATOM     17  C   UNL     1      33.522 -11.835 -22.826  0.00  0.00    +0.002 C 
ATOM     18  C   UNL     1      32.227 -11.779 -22.026  0.00  0.00    +0.002 C 
ATOM     19  C   UNL     1      33.771 -13.154 -23.548  0.00  0.00    +0.019 C 
ATOM     20  C   UNL     1      31.815 -13.044 -21.280  0.00  0.00    +0.019 C 
ATOM     21  C   UNL     1      34.408 -14.219 -22.650  0.00  0.00    +0.092 C 
ATOM     22  C   UNL     1      32.960 -13.861 -20.684  0.00  0.00    +0.092 C 
ENDBRANCH  11  16
ENDBRANCH   7  12
ENDBRANCH   1   7
BRANCH   2  23
ATOM     23  C   UNL     1      33.852 -23.416 -17.799  0.00  0.00    +0.048 C 
BRANCH  23  24
ATOM     24  C   UNL     1      34.262 -23.270 -16.328  0.00  0.00    +0.094 C 
BRANCH  24  26
ATOM     25  O   UNL     1      34.543 -25.027 -14.117  0.00  0.00    -0.268 OA
ATOM     26  N   UNL     1      35.430 -24.046 -16.006  0.00  0.00    -0.299 N 
ATOM     27  C   UNL     1      35.485 -24.887 -14.897  0.00  0.00    +0.267 C 
ATOM     28  H   UNL     1      36.219 -23.980 -16.591  0.00  0.00    +0.150 HD
BRANCH  27  31
ATOM     29  O   UNL     1      38.143 -27.243 -14.534  0.00  0.00    -0.358 OA
ATOM     30  N   UNL     1      36.814 -26.918 -14.783  0.00  0.00    -0.073 NA
ATOM     31  C   UNL     1      36.760 -25.587 -14.688  0.00  0.00    +0.176 C 
ATOM     32  C   UNL     1      38.012 -25.022 -14.385  0.00  0.00    +0.063 C 
ATOM     33  C   UNL     1      38.845 -26.105 -14.299  0.00  0.00    +0.155 C 
ATOM     34  C   UNL     1      40.277 -26.265 -14.016  0.00  0.00    +0.075 C 
ENDBRANCH  27  31
ENDBRANCH  24  26
ENDBRANCH  23  24
ENDBRANCH   2  23
TORSDOF 7
ENDMDL
MODEL 4
REMARK VINA RESULT:     -10.8      4.125     11.204
REMARK  Name = 32778
REMARK  7 active torsions:
REMARK  status: ('A' for Active; 'I' for Inactive)
REMARK    1  A    between atoms: C_1  and  S_7
REMARK    2  A    between atoms: C_2  and  C_23
REMARK    3  A    between atoms: S_7  and  N_12
REMARK    4  A    between atoms: N_11  and  N_16
REMARK    5  A    between atoms: C_23  and  C_24
REMARK    6  A    between atoms: C_24  and  N_26
REMARK    7  A    between atoms: C_27  and  C_31
REMARK                            x       y       z     vdW  Elec       q    Type
REMARK                         _______ _______ _______ _____ _____    ______ ____
ROOT
ATOM      1  C   UNL     1      35.081 -20.532 -20.275  0.00  0.00    +0.125 C 
ATOM      2  C   UNL     1      34.159 -22.691 -18.768  0.00  0.00    -0.020 C 
ATOM      3  C   UNL     1      33.714 -20.808 -20.215  0.00  0.00    +0.020 C 
ATOM      4  C   UNL     1      35.986 -21.336 -19.583  0.00  0.00    +0.020 C 
ATOM      5  C   UNL     1      33.254 -21.887 -19.461  0.00  0.00    -0.003 C 
ATOM      6  C   UNL     1      35.525 -22.415 -18.828  0.00  0.00    -0.003 C 
ENDROOT
BRANCH   1   7
ATOM      7  S   UNL     1      35.664 -19.165 -21.233  0.00  0.00    +0.077 S 
ATOM      8  O   UNL     1      35.431 -19.462 -22.633  0.00  0.00    -0.150 OA
ATOM      9  O   UNL     1      37.001 -18.862 -20.758  0.00  0.00    -0.150 OA
BRANCH   7  12
ATOM     10  O   UNL     1      35.456 -16.158 -21.974  0.00  0.00    -0.250 OA
ATOM     11  N   UNL     1      33.637 -15.814 -20.585  0.00  0.00    -0.230 N 
ATOM     12  N   UNL     1      34.593 -17.933 -20.728  0.00  0.00    -0.168 N 
ATOM     13  C   UNL     1      34.627 -16.572 -21.168  0.00  0.00    +0.333 C 
ATOM     14  H   UNL     1      33.009 -16.220 -19.945  0.00  0.00    +0.171 HD
ATOM     15  H   UNL     1      33.893 -18.180 -20.079  0.00  0.00    +0.178 HD
BRANCH  11  16
ATOM     16  N   UNL     1      33.536 -14.470 -20.911  0.00  0.00    -0.205 NA
ATOM     17  C   UNL     1      31.675 -11.967 -21.625  0.00  0.00    +0.002 C 
ATOM     18  C   UNL     1      32.654 -11.883 -22.789  0.00  0.00    +0.002 C 
ATOM     19  C   UNL     1      32.301 -12.350 -20.290  0.00  0.00    +0.019 C 
ATOM     20  C   UNL     1      33.764 -12.926 -22.840  0.00  0.00    +0.019 C 
ATOM     21  C   UNL     1      32.467 -13.863 -20.116  0.00  0.00    +0.092 C 
ATOM     22  C   UNL     1      33.378 -14.325 -22.362  0.00  0.00    +0.092 C 
ENDBRANCH  11  16
ENDBRANCH   7  12
ENDBRANCH   1   7
BRANCH   2  23
ATOM     23  C   UNL     1      33.666 -23.844 -17.961  0.00  0.00    +0.048 C 
BRANCH  23  24
ATOM     24  C   UNL     1      33.047 -23.432 -16.618  0.00  0.00    +0.094 C 
BRANCH  24  26
ATOM     25  O   UNL     1      31.224 -23.471 -14.444  0.00  0.00    -0.268 OA
ATOM     26  N   UNL     1      31.623 -23.251 -16.704  0.00  0.00    -0.299 N 
ATOM     27  C   UNL     1      30.797 -23.285 -15.583  0.00  0.00    +0.267 C 
ATOM     28  H   UNL     1      31.217 -23.097 -17.588  0.00  0.00    +0.150 HD
BRANCH  27  31
ATOM     29  O   UNL     1      27.487 -23.210 -16.919  0.00  0.00    -0.358 OA
ATOM     30  N   UNL     1      28.842 -23.512 -17.007  0.00  0.00    -0.073 NA
ATOM     31  C   UNL     1      29.360 -23.115 -15.842  0.00  0.00    +0.176 C 
ATOM     32  C   UNL     1      28.391 -22.562 -14.986  0.00  0.00    +0.063 C 
ATOM     33  C   UNL     1      27.232 -22.645 -15.711  0.00  0.00    +0.155 C 
ATOM     34  C   UNL     1      25.839 -22.261 -15.447  0.00  0.00    +0.075 C 
ENDBRANCH  27  31
ENDBRANCH  24  26
ENDBRANCH  23  24
ENDBRANCH   2  23
TORSDOF 7
ENDMDL
MODEL 5
REMARK VINA RESULT:     -10.6      2.864     12.088
REMARK  Name = 32778
REMARK  7 active torsions:
REMARK  status: ('A' for Active; 'I' for Inactive)
REMARK    1  A    between atoms: C_1  and  S_7
REMARK    2  A    between atoms: C_2  and  C_23
REMARK    3  A    between atoms: S_7  and  N_12
REMARK    4  A    between atoms: N_11  and  N_16
REMARK    5  A    between atoms: C_23  and  C_24
REMARK    6  A    between atoms: C_24  and  N_26
REMARK    7  A    between atoms: C_27  and  C_31
REMARK                            x       y       z     vdW  Elec       q    Type
REMARK                         _______ _______ _______ _____ _____    ______ ____
ROOT
ATOM      1  C   UNL     1      34.979 -20.142 -20.590  0.00  0.00    +0.125 C 
ATOM      2  C   UNL     1      34.276 -22.382 -19.084  0.00  0.00    -0.020 C 
ATOM      3  C   UNL     1      33.635 -20.439 -20.369  0.00  0.00    +0.020 C 
ATOM      4  C   UNL     1      35.973 -20.965 -20.059  0.00  0.00    +0.020 C 
ATOM      5  C   UNL     1      33.283 -21.558 -19.615  0.00  0.00    -0.003 C 
ATOM      6  C   UNL     1      35.621 -22.085 -19.305  0.00  0.00    -0.003 C 
ENDROOT
BRANCH   1   7
ATOM      7  S   UNL     1      35.424 -18.724 -21.547  0.00  0.00    +0.077 S 
ATOM      8  O   UNL     1      35.063 -18.979 -22.928  0.00  0.00    -0.150 OA
ATOM      9  O   UNL     1      36.792 -18.392 -21.194  0.00  0.00    -0.150 OA
BRANCH   7  12
ATOM     10  O   UNL     1      35.094 -15.688 -22.108  0.00  0.00    -0.250 OA
ATOM     11  N   UNL     1      33.387 -15.462 -20.562  0.00  0.00    -0.230 N 
ATOM     12  N   UNL     1      34.372 -17.546 -20.894  0.00  0.00    -0.168 N 
ATOM     13  C   UNL     1      34.342 -16.164 -21.262  0.00  0.00    +0.333 C 
ATOM     14  H   UNL     1      32.821 -15.917 -19.897  0.00  0.00    +0.171 HD
ATOM     15  H   UNL     1      33.732 -17.844 -20.206  0.00  0.00    +0.178 HD
BRANCH  11  16
ATOM     16  N   UNL     1      33.231 -14.106 -20.807  0.00  0.00    -0.205 NA
ATOM     17  C   UNL     1      31.268 -11.606 -21.175  0.00  0.00    +0.002 C 
ATOM     18  C   UNL     1      32.104 -11.448 -22.439  0.00  0.00    +0.002 C 
ATOM     19  C   UNL     1      32.050 -12.042 -19.942  0.00  0.00    +0.019 C 
ATOM     20  C   UNL     1      33.214 -12.467 -22.670  0.00  0.00    +0.019 C 
ATOM     21  C   UNL     1      32.254 -13.558 -19.864  0.00  0.00    +0.092 C 
ATOM     22  C   UNL     1      32.904 -13.895 -22.221  0.00  0.00    +0.092 C 
ENDBRANCH  11  16
ENDBRANCH   7  12
ENDBRANCH   1   7
BRANCH   2  23
ATOM     23  C   UNL     1      33.900 -23.578 -18.277  0.00  0.00    +0.048 C 
BRANCH  23  24
ATOM     24  C   UNL     1      33.268 -23.230 -16.923  0.00  0.00    +0.094 C 
BRANCH  24  26
ATOM     25  O   UNL     1      32.273 -23.640 -14.297  0.00  0.00    -0.268 OA
ATOM     26  N   UNL     1      34.000 -23.790 -15.818  0.00  0.00    -0.299 N 
ATOM     27  C   UNL     1      33.434 -23.957 -14.556  0.00  0.00    +0.267 C 
ATOM     28  H   UNL     1      34.934 -24.066 -15.959  0.00  0.00    +0.150 HD
BRANCH  27  31
ATOM     29  O   UNL     1      34.949 -25.218 -11.580  0.00  0.00    -0.358 OA
ATOM     30  N   UNL     1      33.873 -24.683 -12.279  0.00  0.00    -0.073 NA
ATOM     31  C   UNL     1      34.322 -24.513 -13.525  0.00  0.00    +0.176 C 
ATOM     32  C   UNL     1      35.661 -24.918 -13.671  0.00  0.00    +0.063 C 
ATOM     33  C   UNL     1      36.007 -25.352 -12.420  0.00  0.00    +0.155 C 
ATOM     34  C   UNL     1      37.238 -25.907 -11.841  0.00  0.00    +0.075 C 
ENDBRANCH  27  31
ENDBRANCH  24  26
ENDBRANCH  23  24
ENDBRANCH   2  23
TORSDOF 7
ENDMDL
MODEL 6
REMARK VINA RESULT:     -10.6      5.080     14.068
REMARK  Name = 32778
REMARK  7 active torsions:
REMARK  status: ('A' for Active; 'I' for Inactive)
REMARK    1  A    between atoms: C_1  and  S_7
REMARK    2  A    between atoms: C_2  and  C_23
REMARK    3  A    between atoms: S_7  and  N_12
REMARK    4  A    between atoms: N_11  and  N_16
REMARK    5  A    between atoms: C_23  and  C_24
REMARK    6  A    between atoms: C_24  and  N_26
REMARK    7  A    between atoms: C_27  and  C_31
REMARK                            x       y       z     vdW  Elec       q    Type
REMARK                         _______ _______ _______ _____ _____    ______ ____
ROOT
ATOM      1  C   UNL     1      32.324 -12.886 -21.094  0.00  0.00    +0.125 C 
ATOM      2  C   UNL     1      33.708 -15.094 -22.089  0.00  0.00    -0.020 C 
ATOM      3  C   UNL     1      32.429 -14.047 -20.327  0.00  0.00    +0.020 C 
ATOM      4  C   UNL     1      32.909 -12.830 -22.359  0.00  0.00    +0.020 C 
ATOM      5  C   UNL     1      33.122 -15.150 -20.825  0.00  0.00    -0.003 C 
ATOM      6  C   UNL     1      33.602 -13.933 -22.856  0.00  0.00    -0.003 C 
ENDROOT
BRANCH   1   7
ATOM      7  S   UNL     1      31.444 -11.489 -20.463  0.00  0.00    +0.077 S 
ATOM      8  O   UNL     1      32.187 -10.958 -19.337  0.00  0.00    -0.150 OA
ATOM      9  O   UNL     1      30.062 -11.900 -20.304  0.00  0.00    -0.150 OA
BRANCH   7  12
ATOM     10  O   UNL     1      31.890  -8.420 -20.602  0.00  0.00    -0.250 OA
ATOM     11  N   UNL     1      31.821  -8.389 -22.915  0.00  0.00    -0.230 N 
ATOM     12  N   UNL     1      31.562 -10.407 -21.781  0.00  0.00    -0.168 N 
ATOM     13  C   UNL     1      31.771  -8.995 -21.680  0.00  0.00    +0.333 C 
ATOM     14  H   UNL     1      31.717  -8.921 -23.737  0.00  0.00    +0.171 HD
ATOM     15  H   UNL     1      31.478 -10.787 -22.687  0.00  0.00    +0.178 HD
BRANCH  11  16
ATOM     16  N   UNL     1      32.021  -7.019 -22.987  0.00  0.00    -0.205 NA
ATOM     17  C   UNL     1      30.911  -4.139 -23.829  0.00  0.00    +0.002 C 
ATOM     18  C   UNL     1      32.269  -4.086 -24.516  0.00  0.00    +0.002 C 
ATOM     19  C   UNL     1      30.912  -4.806 -22.459  0.00  0.00    +0.019 C 
ATOM     20  C   UNL     1      33.174  -5.304 -24.360  0.00  0.00    +0.019 C 
ATOM     21  C   UNL     1      30.810  -6.333 -22.535  0.00  0.00    +0.092 C 
ATOM     22  C   UNL     1      32.463  -6.656 -24.338  0.00  0.00    +0.092 C 
ENDBRANCH  11  16
ENDBRANCH   7  12
ENDBRANCH   1   7
BRANCH   2  23
ATOM     23  C   UNL     1      34.449 -16.274 -22.620  0.00  0.00    +0.048 C 
BRANCH  23  24
ATOM     24  C   UNL     1      35.445 -16.874 -21.619  0.00  0.00    +0.094 C 
BRANCH  24  26
ATOM     25  O   UNL     1      35.391 -19.577 -22.481  0.00  0.00    -0.268 OA
ATOM     26  N   UNL     1      34.888 -17.983 -20.892  0.00  0.00    -0.299 N 
ATOM     27  C   UNL     1      34.903 -19.285 -21.389  0.00  0.00    +0.267 C 
ATOM     28  H   UNL     1      34.483 -17.817 -20.010  0.00  0.00    +0.150 HD
BRANCH  27  31
ATOM     29  O   UNL     1      32.675 -21.418 -19.592  0.00  0.00    -0.358 OA
ATOM     30  N   UNL     1      32.934 -20.366 -20.464  0.00  0.00    -0.073 NA
ATOM     31  C   UNL     1      34.266 -20.301 -20.540  0.00  0.00    +0.176 C 
ATOM     32  C   UNL     1      34.895 -21.276 -19.746  0.00  0.00    +0.063 C 
ATOM     33  C   UNL     1      33.851 -21.951 -19.172  0.00  0.00    +0.155 C 
ATOM     34  C   UNL     1      33.762 -23.081 -18.239  0.00  0.00    +0.075 C 
ENDBRANCH  27  31
ENDBRANCH  24  26
ENDBRANCH  23  24
ENDBRANCH   2  23
TORSDOF 7
ENDMDL
MODEL 7
REMARK VINA RESULT:     -10.3      5.372     14.147
REMARK  Name = 32778
REMARK  7 active torsions:
REMARK  status: ('A' for Active; 'I' for Inactive)
REMARK    1  A    between atoms: C_1  and  S_7
REMARK    2  A    between atoms: C_2  and  C_23
REMARK    3  A    between atoms: S_7  and  N_12
REMARK    4  A    between atoms: N_11  and  N_16
REMARK    5  A    between atoms: C_23  and  C_24
REMARK    6  A    between atoms: C_24  and  N_26
REMARK    7  A    between atoms: C_27  and  C_31
REMARK                            x       y       z     vdW  Elec       q    Type
REMARK                         _______ _______ _______ _____ _____    ______ ____
ROOT
ATOM      1  C   UNL     1      32.093 -11.947 -20.475  0.00  0.00    +0.125 C 
ATOM      2  C   UNL     1      32.966 -14.074 -22.054  0.00  0.00    -0.020 C 
ATOM      3  C   UNL     1      32.387 -11.740 -21.823  0.00  0.00    +0.020 C 
ATOM      4  C   UNL     1      32.236 -13.217 -19.917  0.00  0.00    +0.020 C 
ATOM      5  C   UNL     1      32.823 -12.803 -22.613  0.00  0.00    -0.003 C 
ATOM      6  C   UNL     1      32.672 -14.281 -20.707  0.00  0.00    -0.003 C 
ENDROOT
BRANCH   1   7
ATOM      7  S   UNL     1      31.543 -10.597 -19.475  0.00  0.00    +0.077 S 
ATOM      8  O   UNL     1      32.675 -10.107 -18.714  0.00  0.00    -0.150 OA
ATOM      9  O   UNL     1      30.339 -11.042 -18.797  0.00  0.00    -0.150 OA
BRANCH   7  12
ATOM     10  O   UNL     1      33.070  -8.162 -20.647  0.00  0.00    -0.250 OA
ATOM     11  N   UNL     1      31.344  -7.614 -22.087  0.00  0.00    -0.230 N 
ATOM     12  N   UNL     1      31.125  -9.452 -20.672  0.00  0.00    -0.168 N 
ATOM     13  C   UNL     1      31.951  -8.368 -21.109  0.00  0.00    +0.333 C 
ATOM     14  H   UNL     1      30.441  -7.845 -22.406  0.00  0.00    +0.171 HD
ATOM     15  H   UNL     1      30.241  -9.545 -21.098  0.00  0.00    +0.178 HD
BRANCH  11  16
ATOM     16  N   UNL     1      32.018  -6.525 -22.617  0.00  0.00    -0.205 NA
ATOM     17  C   UNL     1      32.005  -3.995 -24.574  0.00  0.00    +0.002 C 
ATOM     18  C   UNL     1      33.291  -4.660 -25.046  0.00  0.00    +0.002 C 
ATOM     19  C   UNL     1      31.772  -4.048 -23.069  0.00  0.00    +0.019 C 
ATOM     20  C   UNL     1      33.703  -5.950 -24.346  0.00  0.00    +0.019 C 
ATOM     21  C   UNL     1      31.132  -5.360 -22.607  0.00  0.00    +0.092 C 
ATOM     22  C   UNL     1      32.556  -6.874 -23.936  0.00  0.00    +0.092 C 
ENDBRANCH  11  16
ENDBRANCH   7  12
ENDBRANCH   1   7
BRANCH   2  23
ATOM     23  C   UNL     1      33.431 -15.211 -22.900  0.00  0.00    +0.048 C 
BRANCH  23  24
ATOM     24  C   UNL     1      34.928 -15.515 -22.750  0.00  0.00    +0.094 C 
BRANCH  24  26
ATOM     25  O   UNL     1      35.035 -18.215 -23.616  0.00  0.00    -0.268 OA
ATOM     26  N   UNL     1      35.173 -16.661 -21.918  0.00  0.00    -0.299 N 
ATOM     27  C   UNL     1      35.209 -17.959 -22.425  0.00  0.00    +0.267 C 
ATOM     28  H   UNL     1      35.321 -16.525 -20.954  0.00  0.00    +0.150 HD
BRANCH  27  31
ATOM     29  O   UNL     1      36.484 -20.191 -19.948  0.00  0.00    -0.358 OA
ATOM     30  N   UNL     1      36.602 -19.087 -20.786  0.00  0.00    -0.073 NA
ATOM     31  C   UNL     1      35.439 -19.025 -21.440  0.00  0.00    +0.176 C 
ATOM     32  C   UNL     1      34.557 -20.051 -21.061  0.00  0.00    +0.063 C 
ATOM     33  C   UNL     1      35.262 -20.756 -20.122  0.00  0.00    +0.155 C 
ATOM     34  C   UNL     1      34.966 -21.943 -19.309  0.00  0.00    +0.075 C 
ENDBRANCH  27  31
ENDBRANCH  24  26
ENDBRANCH  23  24
ENDBRANCH   2  23
TORSDOF 7
ENDMDL
MODEL 8
REMARK VINA RESULT:     -10.3      3.204     11.834
REMARK  Name = 32778
REMARK  7 active torsions:
REMARK  status: ('A' for Active; 'I' for Inactive)
REMARK    1  A    between atoms: C_1  and  S_7
REMARK    2  A    between atoms: C_2  and  C_23
REMARK    3  A    between atoms: S_7  and  N_12
REMARK    4  A    between atoms: N_11  and  N_16
REMARK    5  A    between atoms: C_23  and  C_24
REMARK    6  A    between atoms: C_24  and  N_26
REMARK    7  A    between atoms: C_27  and  C_31
REMARK                            x       y       z     vdW  Elec       q    Type
REMARK                         _______ _______ _______ _____ _____    ______ ____
ROOT
ATOM      1  C   UNL     1      34.841 -17.665 -23.186  0.00  0.00    +0.125 C 
ATOM      2  C   UNL     1      34.986 -19.728 -21.314  0.00  0.00    -0.020 C 
ATOM      3  C   UNL     1      34.628 -18.985 -23.585  0.00  0.00    +0.020 C 
ATOM      4  C   UNL     1      35.127 -17.377 -21.851  0.00  0.00    +0.020 C 
ATOM      5  C   UNL     1      34.700 -20.016 -22.649  0.00  0.00    -0.003 C 
ATOM      6  C   UNL     1      35.198 -18.409 -20.915  0.00  0.00    -0.003 C 
ENDROOT
BRANCH   1   7
ATOM      7  S   UNL     1      34.751 -16.359 -24.373  0.00  0.00    +0.077 S 
ATOM      8  O   UNL     1      34.309 -16.923 -25.634  0.00  0.00    -0.150 OA
ATOM      9  O   UNL     1      36.004 -15.632 -24.292  0.00  0.00    -0.150 OA
BRANCH   7  12
ATOM     10  O   UNL     1      34.780 -14.019 -22.333  0.00  0.00    -0.250 OA
ATOM     11  N   UNL     1      32.483 -13.755 -22.415  0.00  0.00    -0.230 N 
ATOM     12  N   UNL     1      33.500 -15.401 -23.711  0.00  0.00    -0.168 N 
ATOM     13  C   UNL     1      33.677 -14.343 -22.764  0.00  0.00    +0.333 C 
ATOM     14  H   UNL     1      31.637 -14.073 -22.806  0.00  0.00    +0.171 HD
ATOM     15  H   UNL     1      32.579 -15.594 -24.005  0.00  0.00    +0.178 HD
BRANCH  11  16
ATOM     16  N   UNL     1      32.486 -12.708 -21.505  0.00  0.00    -0.205 NA
ATOM     17  C   UNL     1      30.886 -10.943 -19.370  0.00  0.00    +0.002 C 
ATOM     18  C   UNL     1      31.464  -9.824 -20.227  0.00  0.00    +0.002 C 
ATOM     19  C   UNL     1      31.827 -12.119 -19.135  0.00  0.00    +0.019 C 
ATOM     20  C   UNL     1      32.340 -10.233 -21.406  0.00  0.00    +0.019 C 
ATOM     21  C   UNL     1      31.812 -13.137 -20.279  0.00  0.00    +0.092 C 
ATOM     22  C   UNL     1      31.916 -11.510 -22.131  0.00  0.00    +0.092 C 
ENDBRANCH  11  16
ENDBRANCH   7  12
ENDBRANCH   1   7
BRANCH   2  23
ATOM     23  C   UNL     1      35.061 -20.832 -20.313  0.00  0.00    +0.048 C 
BRANCH  23  24
ATOM     24  C   UNL     1      36.444 -20.977 -19.664  0.00  0.00    +0.094 C 
BRANCH  24  26
ATOM     25  O   UNL     1      37.685 -20.565 -17.146  0.00  0.00    -0.268 OA
ATOM     26  N   UNL     1      36.435 -21.893 -18.556  0.00  0.00    -0.299 N 
ATOM     27  C   UNL     1      37.072 -21.612 -17.349  0.00  0.00    +0.267 C 
ATOM     28  H   UNL     1      35.960 -22.751 -18.653  0.00  0.00    +0.150 HD
BRANCH  27  31
ATOM     29  O   UNL     1      37.685 -24.059 -14.823  0.00  0.00    -0.358 OA
ATOM     30  N   UNL     1      38.109 -23.077 -15.712  0.00  0.00    -0.073 NA
ATOM     31  C   UNL     1      36.997 -22.665 -16.326  0.00  0.00    +0.176 C 
ATOM     32  C   UNL     1      35.852 -23.343 -15.872  0.00  0.00    +0.063 C 
ATOM     33  C   UNL     1      36.339 -24.208 -14.929  0.00  0.00    +0.155 C 
ATOM     34  C   UNL     1      35.720 -25.212 -14.054  0.00  0.00    +0.075 C 
ENDBRANCH  27  31
ENDBRANCH  24  26
ENDBRANCH  23  24
ENDBRANCH   2  23
TORSDOF 7
ENDMDL
MODEL 9
REMARK VINA RESULT:     -10.2      3.377     11.724
REMARK  Name = 32778
REMARK  7 active torsions:
REMARK  status: ('A' for Active; 'I' for Inactive)
REMARK    1  A    between atoms: C_1  and  S_7
REMARK    2  A    between atoms: C_2  and  C_23
REMARK    3  A    between atoms: S_7  and  N_12
REMARK    4  A    between atoms: N_11  and  N_16
REMARK    5  A    between atoms: C_23  and  C_24
REMARK    6  A    between atoms: C_24  and  N_26
REMARK    7  A    between atoms: C_27  and  C_31
REMARK                            x       y       z     vdW  Elec       q    Type
REMARK                         _______ _______ _______ _____ _____    ______ ____
ROOT
ATOM      1  C   UNL     1      34.768 -17.539 -23.244  0.00  0.00    +0.125 C 
ATOM      2  C   UNL     1      34.791 -19.592 -21.356  0.00  0.00    -0.020 C 
ATOM      3  C   UNL     1      34.574 -18.859 -23.648  0.00  0.00    +0.020 C 
ATOM      4  C   UNL     1      34.975 -17.244 -21.896  0.00  0.00    +0.020 C 
ATOM      5  C   UNL     1      34.584 -19.886 -22.704  0.00  0.00    -0.003 C 
ATOM      6  C   UNL     1      34.986 -18.271 -20.952  0.00  0.00    -0.003 C 
ENDROOT
BRANCH   1   7
ATOM      7  S   UNL     1      34.756 -16.238 -24.442  0.00  0.00    +0.077 S 
ATOM      8  O   UNL     1      34.338 -16.798 -25.712  0.00  0.00    -0.150 OA
ATOM      9  O   UNL     1      36.028 -15.549 -24.325  0.00  0.00    -0.150 OA
BRANCH   7  12
ATOM     10  O   UNL     1      34.753 -14.028 -22.263  0.00  0.00    -0.250 OA
ATOM     11  N   UNL     1      32.493 -13.606 -22.517  0.00  0.00    -0.230 N 
ATOM     12  N   UNL     1      33.514 -15.239 -23.826  0.00  0.00    -0.168 N 
ATOM     13  C   UNL     1      33.674 -14.251 -22.803  0.00  0.00    +0.333 C 
ATOM     14  H   UNL     1      31.666 -13.843 -22.996  0.00  0.00    +0.171 HD
ATOM     15  H   UNL     1      32.612 -15.353 -24.207  0.00  0.00    +0.178 HD
BRANCH  11  16
ATOM     16  N   UNL     1      32.481 -12.616 -21.546  0.00  0.00    -0.205 NA
ATOM     17  C   UNL     1      30.868 -11.026 -19.288  0.00  0.00    +0.002 C 
ATOM     18  C   UNL     1      31.403  -9.842 -20.083  0.00  0.00    +0.002 C 
ATOM     19  C   UNL     1      31.841 -12.188 -19.136  0.00  0.00    +0.019 C 
ATOM     20  C   UNL     1      32.272 -10.157 -21.296  0.00  0.00    +0.019 C 
ATOM     21  C   UNL     1      31.837 -13.136 -20.339  0.00  0.00    +0.092 C 
ATOM     22  C   UNL     1      31.871 -11.398 -22.091  0.00  0.00    +0.092 C 
ENDBRANCH  11  16
ENDBRANCH   7  12
ENDBRANCH   1   7
BRANCH   2  23
ATOM     23  C   UNL     1      34.801 -20.689 -20.347  0.00  0.00    +0.048 C 
BRANCH  23  24
ATOM     24  C   UNL     1      33.412 -21.276 -20.064  0.00  0.00    +0.094 C 
BRANCH  24  26
ATOM     25  O   UNL     1      33.723 -23.937 -19.130  0.00  0.00    -0.268 OA
ATOM     26  N   UNL     1      33.271 -21.717 -18.703  0.00  0.00    -0.299 N 
ATOM     27  C   UNL     1      33.441 -23.048 -18.328  0.00  0.00    +0.267 C 
ATOM     28  H   UNL     1      33.046 -21.054 -18.010  0.00  0.00    +0.150 HD
BRANCH  27  31
ATOM     29  O   UNL     1      33.734 -23.798 -14.850  0.00  0.00    -0.358 OA
ATOM     30  N   UNL     1      34.281 -23.554 -16.105  0.00  0.00    -0.073 NA
ATOM     31  C   UNL     1      33.231 -23.343 -16.903  0.00  0.00    +0.176 C 
ATOM     32  C   UNL     1      32.008 -23.439 -16.216  0.00  0.00    +0.063 C 
ATOM     33  C   UNL     1      32.380 -23.727 -14.930  0.00  0.00    +0.155 C 
ATOM     34  C   UNL     1      31.637 -23.962 -13.685  0.00  0.00    +0.075 C 
ENDBRANCH  27  31
ENDBRANCH  24  26
ENDBRANCH  23  24
ENDBRANCH   2  23
TORSDOF 7
ENDMDL
