MODEL 1
REMARK VINA RESULT:     -11.6      0.000      0.000
REMARK  Name = 9976892
REMARK  4 active torsions:
REMARK  status: ('A' for Active; 'I' for Inactive)
REMARK    1  A    between atoms: N_1  and  C_13
REMARK    2  A    between atoms: C_10  and  O_17
REMARK    3  A    between atoms: O_17  and  C_20
REMARK    4  A    between atoms: C_19  and  N_25
REMARK                            x       y       z     vdW  Elec       q    Type
REMARK                         _______ _______ _______ _____ _____    ______ ____
ROOT
ATOM      1  N   UNL     1      36.246 -24.368 -13.763  0.00  0.00    +0.389 N 
ATOM      2  C   UNL     1      37.277 -23.877 -14.689  0.00  0.00    -0.073 C 
ATOM      3  C   UNL     1      35.014 -24.803 -14.441  0.00  0.00    -0.073 C 
ATOM      4  C   UNL     1      36.932 -22.524 -15.322  0.00  0.00    +0.003 C 
ATOM      5  C   UNL     1      34.197 -23.645 -15.020  0.00  0.00    +0.003 C 
ATOM      6  C   UNL     1      35.997 -22.634 -16.500  0.00  0.00    -0.025 C 
ATOM      7  C   UNL     1      34.703 -23.165 -16.357  0.00  0.00    -0.028 C 
ATOM      8  C   UNL     1      36.421 -22.186 -17.761  0.00  0.00    +0.033 C 
ATOM      9  C   UNL     1      33.861 -23.233 -17.480  0.00  0.00    -0.002 C 
ATOM     10  C   UNL     1      35.576 -22.265 -18.868  0.00  0.00    +0.147 C 
ATOM     11  C   UNL     1      34.296 -22.788 -18.727  0.00  0.00    +0.037 C 
ATOM     12  H   UNL     1      35.992 -23.593 -13.149  0.00  0.00    -0.080 HD
ENDROOT
BRANCH   1  13
ATOM     13  C   UNL     1      36.788 -25.486 -13.035  0.00  0.00    -0.058 C 
ATOM     14  C   UNL     1      37.999 -26.090 -13.774  0.00  0.00    -0.021 C 
ATOM     15  C   UNL     1      37.781 -25.009 -11.955  0.00  0.00    -0.021 C 
ATOM     16  C   UNL     1      38.702 -26.163 -12.403  0.00  0.00    -0.004 C 
ENDBRANCH   1  13
BRANCH  10  17
ATOM     17  O   UNL     1      36.004 -21.827 -20.084  0.00  0.00    -0.436 OA
BRANCH  17  20
ATOM     18  N   UNL     1      36.675 -19.677 -20.643  0.00  0.00    -0.209 NA
ATOM     19  C   UNL     1      35.016 -18.010 -21.204  0.00  0.00    +0.073 C 
ATOM     20  C   UNL     1      35.659 -20.540 -20.462  0.00  0.00    +0.230 C 
ATOM     21  C   UNL     1      34.003 -18.941 -21.005  0.00  0.00    +0.021 C 
ATOM     22  C   UNL     1      36.324 -18.424 -21.012  0.00  0.00    +0.117 C 
ATOM     23  C   UNL     1      34.323 -20.239 -20.624  0.00  0.00    +0.059 C 
BRANCH  19  25
ATOM     24  O   UNL     1      35.261 -16.629 -23.918  0.00  0.00    -0.275 OA
ATOM     25  N   UNL     1      34.718 -16.671 -21.594  0.00  0.00    -0.257 N 
ATOM     26  C   UNL     1      33.704 -14.568 -21.509  0.00  0.00    +0.031 C 
ATOM     27  C   UNL     1      34.284 -15.666 -20.643  0.00  0.00    +0.099 C 
ATOM     28  C   UNL     1      34.528 -14.648 -22.778  0.00  0.00    +0.087 C 
ATOM     29  C   UNL     1      34.872 -16.116 -22.880  0.00  0.00    +0.229 C 
ENDBRANCH  19  25
ENDBRANCH  17  20
ENDBRANCH  10  17
TORSDOF 4
ENDMDL
MODEL 2
REMARK VINA RESULT:     -11.2      2.803     10.071
REMARK  Name = 9976892
REMARK  4 active torsions:
REMARK  status: ('A' for Active; 'I' for Inactive)
REMARK    1  A    between atoms: N_1  and  C_13
REMARK    2  A    between atoms: C_10  and  O_17
REMARK    3  A    between atoms: O_17  and  C_20
REMARK    4  A    between atoms: C_19  and  N_25
REMARK                            x       y       z     vdW  Elec       q    Type
REMARK                         _______ _______ _______ _____ _____    ______ ____
ROOT
ATOM      1  N   UNL     1      32.714 -13.396 -20.731  0.00  0.00    +0.389 N 
ATOM      2  C   UNL     1      32.962 -14.675 -20.048  0.00  0.00    -0.073 C 
ATOM      3  C   UNL     1      32.671 -13.518 -22.197  0.00  0.00    -0.073 C 
ATOM      4  C   UNL     1      34.393 -15.193 -20.228  0.00  0.00    +0.003 C 
ATOM      5  C   UNL     1      34.041 -13.792 -22.825  0.00  0.00    +0.003 C 
ATOM      6  C   UNL     1      34.612 -15.907 -21.538  0.00  0.00    -0.025 C 
ATOM      7  C   UNL     1      34.445 -15.243 -22.767  0.00  0.00    -0.028 C 
ATOM      8  C   UNL     1      35.004 -17.255 -21.533  0.00  0.00    +0.033 C 
ATOM      9  C   UNL     1      34.675 -15.945 -23.963  0.00  0.00    -0.002 C 
ATOM     10  C   UNL     1      35.224 -17.940 -22.728  0.00  0.00    +0.147 C 
ATOM     11  C   UNL     1      35.060 -17.284 -23.942  0.00  0.00    +0.037 C 
ATOM     12  H   UNL     1      33.490 -12.773 -20.504  0.00  0.00    -0.080 HD
ENDROOT
BRANCH   1  13
ATOM     13  C   UNL     1      31.450 -12.879 -20.275  0.00  0.00    -0.058 C 
ATOM     14  C   UNL     1      31.635 -11.988 -19.030  0.00  0.00    -0.021 C 
ATOM     15  C   UNL     1      31.072 -11.596 -21.044  0.00  0.00    -0.021 C 
ATOM     16  C   UNL     1      30.647 -11.000 -19.685  0.00  0.00    -0.004 C 
ENDBRANCH   1  13
BRANCH  10  17
ATOM     17  O   UNL     1      35.602 -19.247 -22.704  0.00  0.00    -0.436 OA
BRANCH  17  20
ATOM     18  N   UNL     1      36.292 -20.496 -20.874  0.00  0.00    -0.209 NA
ATOM     19  C   UNL     1      34.645 -21.461 -19.389  0.00  0.00    +0.073 C 
ATOM     20  C   UNL     1      35.267 -19.993 -21.586  0.00  0.00    +0.230 C 
ATOM     21  C   UNL     1      33.623 -20.918 -20.160  0.00  0.00    +0.021 C 
ATOM     22  C   UNL     1      35.951 -21.223 -19.785  0.00  0.00    +0.117 C 
ATOM     23  C   UNL     1      33.932 -20.165 -21.287  0.00  0.00    +0.059 C 
BRANCH  19  25
ATOM     24  O   UNL     1      36.454 -22.344 -17.092  0.00  0.00    -0.275 OA
ATOM     25  N   UNL     1      34.358 -22.237 -18.228  0.00  0.00    -0.257 N 
ATOM     26  C   UNL     1      33.071 -23.188 -16.525  0.00  0.00    +0.031 C 
ATOM     27  C   UNL     1      33.055 -22.831 -17.997  0.00  0.00    +0.099 C 
ATOM     28  C   UNL     1      34.528 -23.508 -16.256  0.00  0.00    +0.087 C 
ATOM     29  C   UNL     1      35.267 -22.605 -17.217  0.00  0.00    +0.229 C 
ENDBRANCH  19  25
ENDBRANCH  17  20
ENDBRANCH  10  17
TORSDOF 4
ENDMDL
MODEL 3
REMARK VINA RESULT:     -11.2      1.757      2.588
REMARK  Name = 9976892
REMARK  4 active torsions:
REMARK  status: ('A' for Active; 'I' for Inactive)
REMARK    1  A    between atoms: N_1  and  C_13
REMARK    2  A    between atoms: C_10  and  O_17
REMARK    3  A    between atoms: O_17  and  C_20
REMARK    4  A    between atoms: C_19  and  N_25
REMARK                            x       y       z     vdW  Elec       q    Type
REMARK                         _______ _______ _______ _____ _____    ______ ____
ROOT
ATOM      1  N   UNL     1      37.887 -24.440 -13.520  0.00  0.00    +0.389 N 
ATOM      2  C   UNL     1      37.955 -24.275 -14.980  0.00  0.00    -0.073 C 
ATOM      3  C   UNL     1      36.556 -24.847 -13.042  0.00  0.00    -0.073 C 
ATOM      4  C   UNL     1      37.197 -23.045 -15.489  0.00  0.00    +0.003 C 
ATOM      5  C   UNL     1      35.507 -23.735 -13.145  0.00  0.00    +0.003 C 
ATOM      6  C   UNL     1      35.714 -23.272 -15.634  0.00  0.00    -0.025 C 
ATOM      7  C   UNL     1      34.914 -23.598 -14.524  0.00  0.00    -0.028 C 
ATOM      8  C   UNL     1      35.115 -23.141 -16.897  0.00  0.00    +0.033 C 
ATOM      9  C   UNL     1      33.533 -23.786 -14.704  0.00  0.00    -0.002 C 
ATOM     10  C   UNL     1      33.744 -23.334 -17.062  0.00  0.00    +0.147 C 
ATOM     11  C   UNL     1      32.953 -23.655 -15.965  0.00  0.00    +0.037 C 
ATOM     12  H   UNL     1      38.093 -23.533 -13.100  0.00  0.00    -0.080 HD
ENDROOT
BRANCH   1  13
ATOM     13  C   UNL     1      38.840 -25.448 -13.134  0.00  0.00    -0.058 C 
ATOM     14  C   UNL     1      38.792 -26.650 -14.099  0.00  0.00    -0.021 C 
ATOM     15  C   UNL     1      40.235 -25.136 -13.714  0.00  0.00    -0.021 C 
ATOM     16  C   UNL     1      40.335 -26.633 -14.076  0.00  0.00    -0.004 C 
ENDBRANCH   1  13
BRANCH  10  17
ATOM     17  O   UNL     1      33.181 -23.204 -18.294  0.00  0.00    -0.436 OA
BRANCH  17  20
ATOM     18  N   UNL     1      32.654 -21.312 -19.530  0.00  0.00    -0.209 NA
ATOM     19  C   UNL     1      34.410 -20.082 -20.649  0.00  0.00    +0.073 C 
ATOM     20  C   UNL     1      33.607 -22.153 -19.089  0.00  0.00    +0.230 C 
ATOM     21  C   UNL     1      35.355 -20.980 -20.167  0.00  0.00    +0.021 C 
ATOM     22  C   UNL     1      33.084 -20.290 -20.305  0.00  0.00    +0.117 C 
ATOM     23  C   UNL     1      34.953 -22.044 -19.368  0.00  0.00    +0.059 C 
BRANCH  19  25
ATOM     24  O   UNL     1      34.914 -19.932 -23.658  0.00  0.00    -0.275 OA
ATOM     25  N   UNL     1      34.792 -18.982 -21.472  0.00  0.00    -0.257 N 
ATOM     26  C   UNL     1      35.039 -16.751 -22.124  0.00  0.00    +0.031 C 
ATOM     27  C   UNL     1      35.092 -17.673 -20.924  0.00  0.00    +0.099 C 
ATOM     28  C   UNL     1      35.497 -17.635 -23.267  0.00  0.00    +0.087 C 
ATOM     29  C   UNL     1      35.011 -19.009 -22.863  0.00  0.00    +0.229 C 
ENDBRANCH  19  25
ENDBRANCH  17  20
ENDBRANCH  10  17
TORSDOF 4
ENDMDL
MODEL 4
REMARK VINA RESULT:     -11.0      2.629     10.064
REMARK  Name = 9976892
REMARK  4 active torsions:
REMARK  status: ('A' for Active; 'I' for Inactive)
REMARK    1  A    between atoms: N_1  and  C_13
REMARK    2  A    between atoms: C_10  and  O_17
REMARK    3  A    between atoms: O_17  and  C_20
REMARK    4  A    between atoms: C_19  and  N_25
REMARK                            x       y       z     vdW  Elec       q    Type
REMARK                         _______ _______ _______ _____ _____    ______ ____
ROOT
ATOM      1  N   UNL     1      32.796 -13.563 -20.591  0.00  0.00    +0.389 N 
ATOM      2  C   UNL     1      32.806 -14.902 -19.983  0.00  0.00    -0.073 C 
ATOM      3  C   UNL     1      32.963 -13.586 -22.053  0.00  0.00    -0.073 C 
ATOM      4  C   UNL     1      34.186 -15.567 -19.997  0.00  0.00    +0.003 C 
ATOM      5  C   UNL     1      34.376 -13.974 -22.498  0.00  0.00    +0.003 C 
ATOM      6  C   UNL     1      34.526 -16.217 -21.314  0.00  0.00    -0.025 C 
ATOM      7  C   UNL     1      34.616 -15.463 -22.498  0.00  0.00    -0.028 C 
ATOM      8  C   UNL     1      34.771 -17.598 -21.360  0.00  0.00    +0.033 C 
ATOM      9  C   UNL     1      34.950 -16.109 -23.700  0.00  0.00    -0.002 C 
ATOM     10  C   UNL     1      35.098 -18.227 -22.561  0.00  0.00    +0.147 C 
ATOM     11  C   UNL     1      35.188 -17.482 -23.731  0.00  0.00    +0.037 C 
ATOM     12  H   UNL     1      33.589 -13.047 -20.207  0.00  0.00    -0.080 HD
ENDROOT
BRANCH   1  13
ATOM     13  C   UNL     1      31.537 -12.936 -20.282  0.00  0.00    -0.058 C 
ATOM     14  C   UNL     1      31.688 -11.947 -19.109  0.00  0.00    -0.021 C 
ATOM     15  C   UNL     1      31.299 -11.708 -21.186  0.00  0.00    -0.021 C 
ATOM     16  C   UNL     1      30.815 -10.968 -19.921  0.00  0.00    -0.004 C 
ENDBRANCH   1  13
BRANCH  10  17
ATOM     17  O   UNL     1      35.331 -19.568 -22.586  0.00  0.00    -0.436 OA
BRANCH  17  20
ATOM     18  N   UNL     1      33.900 -20.495 -21.013  0.00  0.00    -0.209 NA
ATOM     19  C   UNL     1      34.812 -21.650 -19.094  0.00  0.00    +0.073 C 
ATOM     20  C   UNL     1      35.167 -20.272 -21.405  0.00  0.00    +0.230 C 
ATOM     21  C   UNL     1      36.102 -21.393 -19.544  0.00  0.00    +0.021 C 
ATOM     22  C   UNL     1      33.754 -21.184 -19.858  0.00  0.00    +0.117 C 
ATOM     23  C   UNL     1      36.293 -20.688 -20.726  0.00  0.00    +0.059 C 
BRANCH  19  25
ATOM     24  O   UNL     1      32.255 -22.884 -17.967  0.00  0.00    -0.275 OA
ATOM     25  N   UNL     1      34.584 -22.370 -17.884  0.00  0.00    -0.257 N 
ATOM     26  C   UNL     1      35.093 -23.687 -16.023  0.00  0.00    +0.031 C 
ATOM     27  C   UNL     1      35.625 -22.570 -16.895  0.00  0.00    +0.099 C 
ATOM     28  C   UNL     1      33.592 -23.482 -16.065  0.00  0.00    +0.087 C 
ATOM     29  C   UNL     1      33.357 -22.900 -17.440  0.00  0.00    +0.229 C 
ENDBRANCH  19  25
ENDBRANCH  17  20
ENDBRANCH  10  17
TORSDOF 4
ENDMDL
MODEL 5
REMARK VINA RESULT:     -10.8      2.085      3.900
REMARK  Name = 9976892
REMARK  4 active torsions:
REMARK  status: ('A' for Active; 'I' for Inactive)
REMARK    1  A    between atoms: N_1  and  C_13
REMARK    2  A    between atoms: C_10  and  O_17
REMARK    3  A    between atoms: O_17  and  C_20
REMARK    4  A    between atoms: C_19  and  N_25
REMARK                            x       y       z     vdW  Elec       q    Type
REMARK                         _______ _______ _______ _____ _____    ______ ____
ROOT
ATOM      1  N   UNL     1      31.987 -23.654 -15.394  0.00  0.00    +0.389 N 
ATOM      2  C   UNL     1      32.005 -23.301 -16.821  0.00  0.00    -0.073 C 
ATOM      3  C   UNL     1      33.097 -23.059 -14.632  0.00  0.00    -0.073 C 
ATOM      4  C   UNL     1      33.140 -23.975 -17.600  0.00  0.00    +0.003 C 
ATOM      5  C   UNL     1      34.458 -23.683 -14.953  0.00  0.00    +0.003 C 
ATOM      6  C   UNL     1      34.465 -23.269 -17.459  0.00  0.00    -0.025 C 
ATOM      7  C   UNL     1      35.089 -23.131 -16.206  0.00  0.00    -0.028 C 
ATOM      8  C   UNL     1      35.097 -22.752 -18.601  0.00  0.00    +0.033 C 
ATOM      9  C   UNL     1      36.331 -22.480 -16.126  0.00  0.00    -0.002 C 
ATOM     10  C   UNL     1      36.328 -22.103 -18.506  0.00  0.00    +0.147 C 
ATOM     11  C   UNL     1      36.945 -21.968 -17.268  0.00  0.00    +0.037 C 
ATOM     12  H   UNL     1      32.088 -24.668 -15.328  0.00  0.00    -0.080 HD
ENDROOT
BRANCH   1  13
ATOM     13  C   UNL     1      30.745 -23.194 -14.830  0.00  0.00    -0.058 C 
ATOM     14  C   UNL     1      29.712 -22.902 -15.937  0.00  0.00    -0.021 C 
ATOM     15  C   UNL     1      29.853 -24.383 -14.417  0.00  0.00    -0.021 C 
ATOM     16  C   UNL     1      28.672 -23.617 -15.049  0.00  0.00    -0.004 C 
ENDBRANCH   1  13
BRANCH  10  17
ATOM     17  O   UNL     1      36.924 -21.607 -19.624  0.00  0.00    -0.436 OA
BRANCH  17  20
ATOM     18  N   UNL     1      37.256 -19.433 -20.362  0.00  0.00    -0.209 NA
ATOM     19  C   UNL     1      35.396 -18.171 -21.254  0.00  0.00    +0.073 C 
ATOM     20  C   UNL     1      36.397 -20.451 -20.175  0.00  0.00    +0.230 C 
ATOM     21  C   UNL     1      34.551 -19.254 -21.041  0.00  0.00    +0.021 C 
ATOM     22  C   UNL     1      36.729 -18.309 -20.901  0.00  0.00    +0.117 C 
ATOM     23  C   UNL     1      35.055 -20.426 -20.489  0.00  0.00    +0.059 C 
BRANCH  19  25
ATOM     24  O   UNL     1      35.117 -17.306 -24.171  0.00  0.00    -0.275 OA
ATOM     25  N   UNL     1      34.908 -16.956 -21.819  0.00  0.00    -0.257 N 
ATOM     26  C   UNL     1      33.698 -14.961 -21.942  0.00  0.00    +0.031 C 
ATOM     27  C   UNL     1      34.505 -15.829 -21.000  0.00  0.00    +0.099 C 
ATOM     28  C   UNL     1      34.343 -15.210 -23.290  0.00  0.00    +0.087 C 
ATOM     29  C   UNL     1      34.822 -16.640 -23.189  0.00  0.00    +0.229 C 
ENDBRANCH  19  25
ENDBRANCH  17  20
ENDBRANCH  10  17
TORSDOF 4
ENDMDL
MODEL 6
REMARK VINA RESULT:     -10.0      6.829     11.906
REMARK  Name = 9976892
REMARK  4 active torsions:
REMARK  status: ('A' for Active; 'I' for Inactive)
REMARK    1  A    between atoms: N_1  and  C_13
REMARK    2  A    between atoms: C_10  and  O_17
REMARK    3  A    between atoms: O_17  and  C_20
REMARK    4  A    between atoms: C_19  and  N_25
REMARK                            x       y       z     vdW  Elec       q    Type
REMARK                         _______ _______ _______ _____ _____    ______ ____
ROOT
ATOM      1  N   UNL     1      34.217 -16.475 -21.706  0.00  0.00    +0.389 N 
ATOM      2  C   UNL     1      33.720 -15.664 -20.585  0.00  0.00    -0.073 C 
ATOM      3  C   UNL     1      34.768 -15.670 -22.808  0.00  0.00    -0.073 C 
ATOM      4  C   UNL     1      32.433 -14.899 -20.911  0.00  0.00    +0.003 C 
ATOM      5  C   UNL     1      33.699 -14.909 -23.599  0.00  0.00    +0.003 C 
ATOM      6  C   UNL     1      32.672 -13.617 -21.668  0.00  0.00    -0.025 C 
ATOM      7  C   UNL     1      33.272 -13.622 -22.940  0.00  0.00    -0.028 C 
ATOM      8  C   UNL     1      32.277 -12.396 -21.100  0.00  0.00    +0.033 C 
ATOM      9  C   UNL     1      33.461 -12.404 -23.615  0.00  0.00    -0.002 C 
ATOM     10  C   UNL     1      32.475 -11.194 -21.779  0.00  0.00    +0.147 C 
ATOM     11  C   UNL     1      33.066 -11.199 -23.037  0.00  0.00    +0.037 C 
ATOM     12  H   UNL     1      33.423 -16.995 -22.082  0.00  0.00    -0.080 HD
ENDROOT
BRANCH   1  13
ATOM     13  C   UNL     1      35.252 -17.345 -21.211  0.00  0.00    -0.058 C 
ATOM     14  C   UNL     1      34.716 -18.775 -21.001  0.00  0.00    -0.021 C 
ATOM     15  C   UNL     1      36.095 -17.913 -22.372  0.00  0.00    -0.021 C 
ATOM     16  C   UNL     1      36.020 -19.278 -21.656  0.00  0.00    -0.004 C 
ENDBRANCH   1  13
BRANCH  10  17
ATOM     17  O   UNL     1      32.086 -10.019 -21.213  0.00  0.00    -0.436 OA
BRANCH  17  20
ATOM     18  N   UNL     1      31.193  -8.599 -22.815  0.00  0.00    -0.209 NA
ATOM     19  C   UNL     1      32.410  -6.617 -23.476  0.00  0.00    +0.073 C 
ATOM     20  C   UNL     1      32.206  -8.867 -21.972  0.00  0.00    +0.230 C 
ATOM     21  C   UNL     1      33.430  -6.940 -22.588  0.00  0.00    +0.021 C 
ATOM     22  C   UNL     1      31.322  -7.472 -23.551  0.00  0.00    +0.117 C 
ATOM     23  C   UNL     1      33.334  -8.091 -21.814  0.00  0.00    +0.059 C 
BRANCH  19  25
ATOM     24  O   UNL     1      31.335  -3.800 -22.985  0.00  0.00    -0.275 OA
ATOM     25  N   UNL     1      32.481  -5.443 -24.283  0.00  0.00    -0.257 N 
ATOM     26  C   UNL     1      33.304  -3.985 -25.912  0.00  0.00    +0.031 C 
ATOM     27  C   UNL     1      33.069  -5.450 -25.608  0.00  0.00    +0.099 C 
ATOM     28  C   UNL     1      32.180  -3.287 -25.173  0.00  0.00    +0.087 C 
ATOM     29  C   UNL     1      31.945  -4.178 -23.975  0.00  0.00    +0.229 C 
ENDBRANCH  19  25
ENDBRANCH  17  20
ENDBRANCH  10  17
TORSDOF 4
ENDMDL
MODEL 7
REMARK VINA RESULT:     -10.0      6.868     15.020
REMARK  Name = 9976892
REMARK  4 active torsions:
REMARK  status: ('A' for Active; 'I' for Inactive)
REMARK    1  A    between atoms: N_1  and  C_13
REMARK    2  A    between atoms: C_10  and  O_17
REMARK    3  A    between atoms: O_17  and  C_20
REMARK    4  A    between atoms: C_19  and  N_25
REMARK                            x       y       z     vdW  Elec       q    Type
REMARK                         _______ _______ _______ _____ _____    ______ ____
ROOT
ATOM      1  N   UNL     1      32.012  -5.197 -22.896  0.00  0.00    +0.389 N 
ATOM      2  C   UNL     1      31.003  -5.996 -22.186  0.00  0.00    -0.073 C 
ATOM      3  C   UNL     1      32.817  -5.984 -23.843  0.00  0.00    -0.073 C 
ATOM      4  C   UNL     1      31.603  -6.958 -21.155  0.00  0.00    +0.003 C 
ATOM      5  C   UNL     1      33.797  -6.942 -23.159  0.00  0.00    +0.003 C 
ATOM      6  C   UNL     1      32.119  -8.239 -21.760  0.00  0.00    -0.025 C 
ATOM      7  C   UNL     1      33.158  -8.231 -22.709  0.00  0.00    -0.028 C 
ATOM      8  C   UNL     1      31.564  -9.465 -21.360  0.00  0.00    +0.033 C 
ATOM      9  C   UNL     1      33.618  -9.451 -23.234  0.00  0.00    -0.002 C 
ATOM     10  C   UNL     1      32.026 -10.668 -21.893  0.00  0.00    +0.147 C 
ATOM     11  C   UNL     1      33.054 -10.660 -22.829  0.00  0.00    +0.037 C 
ATOM     12  H   UNL     1      32.654  -4.822 -22.196  0.00  0.00    -0.080 HD
ENDROOT
BRANCH   1  13
ATOM     13  C   UNL     1      31.334  -4.156 -23.625  0.00  0.00    -0.058 C 
ATOM     14  C   UNL     1      31.576  -2.780 -22.973  0.00  0.00    -0.021 C 
ATOM     15  C   UNL     1      32.194  -3.663 -24.807  0.00  0.00    -0.021 C 
ATOM     16  C   UNL     1      31.795  -2.229 -24.398  0.00  0.00    -0.004 C 
ENDBRANCH   1  13
BRANCH  10  17
ATOM     17  O   UNL     1      31.475 -11.846 -21.495  0.00  0.00    -0.436 OA
BRANCH  17  20
ATOM     18  N   UNL     1      32.491 -13.425 -22.858  0.00  0.00    -0.209 NA
ATOM     19  C   UNL     1      33.760 -15.229 -21.866  0.00  0.00    +0.073 C 
ATOM     20  C   UNL     1      32.248 -12.990 -21.609  0.00  0.00    +0.230 C 
ATOM     21  C   UNL     1      33.480 -14.736 -20.596  0.00  0.00    +0.021 C 
ATOM     22  C   UNL     1      33.246 -14.543 -22.955  0.00  0.00    +0.117 C 
ATOM     23  C   UNL     1      32.706 -13.590 -20.455  0.00  0.00    +0.059 C 
BRANCH  19  25
ATOM     24  O   UNL     1      34.824 -16.545 -24.409  0.00  0.00    -0.275 OA
ATOM     25  N   UNL     1      34.550 -16.403 -22.042  0.00  0.00    -0.257 N 
ATOM     26  C   UNL     1      36.058 -18.099 -21.486  0.00  0.00    +0.031 C 
ATOM     27  C   UNL     1      34.931 -17.253 -20.931  0.00  0.00    +0.099 C 
ATOM     28  C   UNL     1      35.703 -18.239 -22.953  0.00  0.00    +0.087 C 
ATOM     29  C   UNL     1      34.992 -16.943 -23.266  0.00  0.00    +0.229 C 
ENDBRANCH  19  25
ENDBRANCH  17  20
ENDBRANCH  10  17
TORSDOF 4
ENDMDL
MODEL 8
REMARK VINA RESULT:      -9.4      2.853      4.921
REMARK  Name = 9976892
REMARK  4 active torsions:
REMARK  status: ('A' for Active; 'I' for Inactive)
REMARK    1  A    between atoms: N_1  and  C_13
REMARK    2  A    between atoms: C_10  and  O_17
REMARK    3  A    between atoms: O_17  and  C_20
REMARK    4  A    between atoms: C_19  and  N_25
REMARK                            x       y       z     vdW  Elec       q    Type
REMARK                         _______ _______ _______ _____ _____    ______ ____
ROOT
ATOM      1  N   UNL     1      34.043 -22.525 -18.034  0.00  0.00    +0.389 N 
ATOM      2  C   UNL     1      33.243 -21.653 -18.907  0.00  0.00    -0.073 C 
ATOM      3  C   UNL     1      35.399 -22.011 -17.782  0.00  0.00    -0.073 C 
ATOM      4  C   UNL     1      33.712 -21.657 -20.366  0.00  0.00    +0.003 C 
ATOM      5  C   UNL     1      36.317 -22.092 -19.005  0.00  0.00    +0.003 C 
ATOM      6  C   UNL     1      34.889 -20.750 -20.621  0.00  0.00    -0.025 C 
ATOM      7  C   UNL     1      36.122 -20.956 -19.976  0.00  0.00    -0.028 C 
ATOM      8  C   UNL     1      34.758 -19.687 -21.529  0.00  0.00    +0.033 C 
ATOM      9  C   UNL     1      37.196 -20.094 -20.257  0.00  0.00    -0.002 C 
ATOM     10  C   UNL     1      35.831 -18.836 -21.794  0.00  0.00    +0.147 C 
ATOM     11  C   UNL     1      37.050 -19.041 -21.158  0.00  0.00    +0.037 C 
ATOM     12  H   UNL     1      34.146 -23.422 -18.510  0.00  0.00    -0.080 HD
ENDROOT
BRANCH   1  13
ATOM     13  C   UNL     1      33.359 -22.652 -16.774  0.00  0.00    -0.058 C 
ATOM     14  C   UNL     1      32.569 -23.975 -16.707  0.00  0.00    -0.021 C 
ATOM     15  C   UNL     1      34.293 -23.245 -15.698  0.00  0.00    -0.021 C 
ATOM     16  C   UNL     1      33.108 -24.136 -15.270  0.00  0.00    -0.004 C 
ENDBRANCH   1  13
BRANCH  10  17
ATOM     17  O   UNL     1      35.685 -17.810 -22.675  0.00  0.00    -0.436 OA
BRANCH  17  20
ATOM     18  N   UNL     1      34.485 -15.907 -23.244  0.00  0.00    -0.209 NA
ATOM     19  C   UNL     1      33.489 -14.552 -21.506  0.00  0.00    +0.073 C 
ATOM     20  C   UNL     1      34.944 -16.712 -22.269  0.00  0.00    +0.230 C 
ATOM     21  C   UNL     1      33.986 -15.417 -20.538  0.00  0.00    +0.021 C 
ATOM     22  C   UNL     1      33.764 -14.839 -22.833  0.00  0.00    +0.117 C 
ATOM     23  C   UNL     1      34.733 -16.526 -20.919  0.00  0.00    +0.059 C 
BRANCH  19  25
ATOM     24  O   UNL     1      33.013 -11.928 -22.995  0.00  0.00    -0.275 OA
ATOM     25  N   UNL     1      32.721 -13.407 -21.144  0.00  0.00    -0.257 N 
ATOM     26  C   UNL     1      31.062 -12.168 -20.060  0.00  0.00    +0.031 C 
ATOM     27  C   UNL     1      32.055 -13.295 -19.861  0.00  0.00    +0.099 C 
ATOM     28  C   UNL     1      31.751 -11.265 -21.064  0.00  0.00    +0.087 C 
ATOM     29  C   UNL     1      32.564 -12.228 -21.899  0.00  0.00    +0.229 C 
ENDBRANCH  19  25
ENDBRANCH  17  20
ENDBRANCH  10  17
TORSDOF 4
ENDMDL
MODEL 9
REMARK VINA RESULT:      -9.3      3.840     10.760
REMARK  Name = 9976892
REMARK  4 active torsions:
REMARK  status: ('A' for Active; 'I' for Inactive)
REMARK    1  A    between atoms: N_1  and  C_13
REMARK    2  A    between atoms: C_10  and  O_17
REMARK    3  A    between atoms: O_17  and  C_20
REMARK    4  A    between atoms: C_19  and  N_25
REMARK                            x       y       z     vdW  Elec       q    Type
REMARK                         _______ _______ _______ _____ _____    ______ ____
ROOT
ATOM      1  N   UNL     1      32.499 -11.782 -21.260  0.00  0.00    +0.389 N 
ATOM      2  C   UNL     1      32.904 -13.137 -20.857  0.00  0.00    -0.073 C 
ATOM      3  C   UNL     1      32.130 -11.682 -22.681  0.00  0.00    -0.073 C 
ATOM      4  C   UNL     1      34.263 -13.560 -21.426  0.00  0.00    +0.003 C 
ATOM      5  C   UNL     1      33.327 -11.800 -23.630  0.00  0.00    +0.003 C 
ATOM      6  C   UNL     1      34.188 -14.058 -22.848  0.00  0.00    -0.025 C 
ATOM      7  C   UNL     1      33.745 -13.225 -23.890  0.00  0.00    -0.028 C 
ATOM      8  C   UNL     1      34.582 -15.374 -23.140  0.00  0.00    +0.033 C 
ATOM      9  C   UNL     1      33.708 -13.727 -25.202  0.00  0.00    -0.002 C 
ATOM     10  C   UNL     1      34.535 -15.861 -24.446  0.00  0.00    +0.147 C 
ATOM     11  C   UNL     1      34.099 -15.037 -25.477  0.00  0.00    +0.037 C 
ATOM     12  H   UNL     1      33.301 -11.167 -21.115  0.00  0.00    -0.080 HD
ENDROOT
BRANCH   1  13
ATOM     13  C   UNL     1      31.364 -11.394 -20.463  0.00  0.00    -0.058 C 
ATOM     14  C   UNL     1      31.406 -12.072 -19.078  0.00  0.00    -0.021 C 
ATOM     15  C   UNL     1      31.634 -10.061 -19.734  0.00  0.00    -0.021 C 
ATOM     16  C   UNL     1      31.002 -10.707 -18.483  0.00  0.00    -0.004 C 
ENDBRANCH   1  13
BRANCH  10  17
ATOM     17  O   UNL     1      34.919 -17.139 -24.710  0.00  0.00    -0.436 OA
BRANCH  17  20
ATOM     18  N   UNL     1      35.381 -17.595 -22.483  0.00  0.00    -0.209 NA
ATOM     19  C   UNL     1      34.913 -19.791 -21.585  0.00  0.00    +0.073 C 
ATOM     20  C   UNL     1      34.912 -18.043 -23.661  0.00  0.00    +0.230 C 
ATOM     21  C   UNL     1      34.438 -20.204 -22.825  0.00  0.00    +0.021 C 
ATOM     22  C   UNL     1      35.369 -18.488 -21.467  0.00  0.00    +0.117 C 
ATOM     23  C   UNL     1      34.435 -19.316 -23.894  0.00  0.00    +0.059 C 
BRANCH  19  25
ATOM     24  O   UNL     1      32.617 -21.093 -20.047  0.00  0.00    -0.275 OA
ATOM     25  N   UNL     1      34.929 -20.680 -20.470  0.00  0.00    -0.257 N 
ATOM     26  C   UNL     1      35.772 -22.285 -18.995  0.00  0.00    +0.031 C 
ATOM     27  C   UNL     1      36.160 -21.066 -19.806  0.00  0.00    +0.099 C 
ATOM     28  C   UNL     1      34.323 -22.022 -18.637  0.00  0.00    +0.087 C 
ATOM     29  C   UNL     1      33.809 -21.229 -19.816  0.00  0.00    +0.229 C 
ENDBRANCH  19  25
ENDBRANCH  17  20
ENDBRANCH  10  17
TORSDOF 4
ENDMDL
