MODEL 1
REMARK VINA RESULT:     -11.9      0.000      0.000
REMARK  Name = 25118925
REMARK  3 active torsions:
REMARK  status: ('A' for Active; 'I' for Inactive)
REMARK    1  A    between atoms: C_3  and  C_12
REMARK    2  A    between atoms: C_5  and  C_24
REMARK    3  A    between atoms: C_27  and  C_33
REMARK                            x       y       z     vdW  Elec       q    Type
REMARK                         _______ _______ _______ _____ _____    ______ ____
ROOT
ATOM      1  N   UNL     1      34.414 -16.422 -24.149  0.00  0.00    -0.279 N 
ATOM      2  N   UNL     1      34.290 -16.465 -21.932  0.00  0.00    -0.394 NA
ATOM      3  C   UNL     1      33.994 -15.782 -23.016  0.00  0.00    +0.160 C 
ATOM      4  C   UNL     1      35.016 -17.587 -23.762  0.00  0.00    +0.152 C 
ATOM      5  C   UNL     1      34.927 -17.591 -22.390  0.00  0.00    +0.130 C 
ATOM      6  C   UNL     1      34.260 -15.966 -25.510  0.00  0.00    +0.115 C 
ENDROOT
BRANCH   3  12
ATOM      7  N   UNL     1      32.705 -11.740 -22.207  0.00  0.00    -0.296 N 
ATOM      8  N   UNL     1      32.256  -9.480 -22.826  0.00  0.00    -0.233 NA
ATOM      9  N   UNL     1      31.847  -8.610 -18.919  0.00  0.00    -0.223 N 
ATOM     10  N   UNL     1      31.790  -7.742 -21.178  0.00  0.00    -0.232 NA
ATOM     11  N   UNL     1      32.058  -9.769 -18.267  0.00  0.00    -0.183 NA
ATOM     12  C   UNL     1      33.277 -14.447 -23.060  0.00  0.00    +0.070 C 
ATOM     13  C   UNL     1      34.236 -13.286 -23.365  0.00  0.00    +0.030 C 
ATOM     14  C   UNL     1      32.516 -14.155 -21.758  0.00  0.00    +0.030 C 
ATOM     15  C   UNL     1      33.489 -11.954 -23.432  0.00  0.00    +0.092 C 
ATOM     16  C   UNL     1      31.781 -12.816 -21.829  0.00  0.00    +0.092 C 
ATOM     17  C   UNL     1      32.402 -10.419 -21.859  0.00  0.00    +0.118 C 
ATOM     18  C   UNL     1      32.246 -10.048 -20.527  0.00  0.00    +0.152 C 
ATOM     19  C   UNL     1      31.948  -8.721 -20.274  0.00  0.00    +0.133 C 
ATOM     20  C   UNL     1      32.300 -10.641 -19.252  0.00  0.00    +0.105 C 
ATOM     21  C   UNL     1      31.963  -8.218 -22.430  0.00  0.00    +0.252 C 
ATOM     22  H   UNL     1      31.640  -7.764 -18.462  0.00  0.00    +0.176 HD
ENDBRANCH   3  12
BRANCH   5  24
ATOM     23  F   UNL     1      36.893 -21.612 -19.092  0.00  0.00    -0.204 F 
ATOM     24  C   UNL     1      35.430 -18.626 -21.541  0.00  0.00    +0.027 C 
ATOM     25  C   UNL     1      34.564 -19.596 -21.035  0.00  0.00    +0.008 C 
ATOM     26  C   UNL     1      36.787 -18.667 -21.221  0.00  0.00    +0.005 C 
ATOM     27  C   UNL     1      35.055 -20.606 -20.208  0.00  0.00    +0.099 C 
ATOM     28  C   UNL     1      37.278 -19.676 -20.393  0.00  0.00    +0.030 C 
ATOM     29  C   UNL     1      36.412 -20.646 -19.887  0.00  0.00    +0.144 C 
BRANCH  27  33
ATOM     30  F   UNL     1      34.533 -22.922 -19.917  0.00  0.00    -0.166 F 
ATOM     31  F   UNL     1      33.967 -21.577 -18.312  0.00  0.00    -0.166 F 
ATOM     32  F   UNL     1      32.871 -21.546 -20.191  0.00  0.00    -0.166 F 
ATOM     33  C   UNL     1      34.128 -21.641 -19.667  0.00  0.00    +0.421 C 
ENDBRANCH  27  33
ENDBRANCH   5  24
TORSDOF 3
ENDMDL
MODEL 2
REMARK VINA RESULT:     -11.6      3.442      6.173
REMARK  Name = 25118925
REMARK  3 active torsions:
REMARK  status: ('A' for Active; 'I' for Inactive)
REMARK    1  A    between atoms: C_3  and  C_12
REMARK    2  A    between atoms: C_5  and  C_24
REMARK    3  A    between atoms: C_27  and  C_33
REMARK                            x       y       z     vdW  Elec       q    Type
REMARK                         _______ _______ _______ _____ _____    ______ ____
ROOT
ATOM      1  N   UNL     1      31.820 -11.763 -21.038  0.00  0.00    -0.279 N 
ATOM      2  N   UNL     1      33.059 -11.749 -22.881  0.00  0.00    -0.394 NA
ATOM      3  C   UNL     1      32.416 -11.005 -22.008  0.00  0.00    +0.160 C 
ATOM      4  C   UNL     1      32.101 -13.073 -21.310  0.00  0.00    +0.152 C 
ATOM      5  C   UNL     1      32.866 -13.038 -22.452  0.00  0.00    +0.130 C 
ATOM      6  C   UNL     1      31.035 -11.285 -19.925  0.00  0.00    +0.115 C 
ENDROOT
BRANCH   3  12
ATOM      7  N   UNL     1      32.228  -6.879 -23.269  0.00  0.00    -0.296 N 
ATOM      8  N   UNL     1      31.214  -4.721 -23.365  0.00  0.00    -0.233 NA
ATOM      9  N   UNL     1      33.843  -3.738 -26.247  0.00  0.00    -0.223 N 
ATOM     10  N   UNL     1      31.980  -2.983 -24.896  0.00  0.00    -0.232 NA
ATOM     11  N   UNL     1      34.607  -4.831 -26.429  0.00  0.00    -0.183 NA
ATOM     12  C   UNL     1      32.316  -9.492 -22.027  0.00  0.00    +0.070 C 
ATOM     13  C   UNL     1      31.076  -9.005 -22.792  0.00  0.00    +0.030 C 
ATOM     14  C   UNL     1      33.573  -8.837 -22.617  0.00  0.00    +0.030 C 
ATOM     15  C   UNL     1      30.980  -7.479 -22.777  0.00  0.00    +0.092 C 
ATOM     16  C   UNL     1      33.465  -7.312 -22.609  0.00  0.00    +0.092 C 
ATOM     17  C   UNL     1      32.152  -5.591 -23.812  0.00  0.00    +0.118 C 
ATOM     18  C   UNL     1      33.030  -5.184 -24.812  0.00  0.00    +0.152 C 
ATOM     19  C   UNL     1      32.883  -3.894 -25.292  0.00  0.00    +0.133 C 
ATOM     20  C   UNL     1      34.107  -5.709 -25.551  0.00  0.00    +0.105 C 
ATOM     21  C   UNL     1      31.188  -3.489 -23.927  0.00  0.00    +0.252 C 
ATOM     22  H   UNL     1      33.965  -2.904 -26.756  0.00  0.00    +0.176 HD
ENDBRANCH   3  12
BRANCH   5  24
ATOM     23  F   UNL     1      34.924 -17.507 -25.042  0.00  0.00    -0.204 F 
ATOM     24  C   UNL     1      33.397 -14.188 -23.115  0.00  0.00    +0.027 C 
ATOM     25  C   UNL     1      34.030 -15.190 -22.379  0.00  0.00    +0.008 C 
ATOM     26  C   UNL     1      33.280 -14.310 -24.500  0.00  0.00    +0.005 C 
ATOM     27  C   UNL     1      34.547 -16.312 -23.026  0.00  0.00    +0.099 C 
ATOM     28  C   UNL     1      33.797 -15.431 -25.148  0.00  0.00    +0.030 C 
ATOM     29  C   UNL     1      34.430 -16.432 -24.411  0.00  0.00    +0.144 C 
BRANCH  27  33
ATOM     30  F   UNL     1      34.609 -18.597 -22.325  0.00  0.00    -0.166 F 
ATOM     31  F   UNL     1      36.516 -17.606 -22.618  0.00  0.00    -0.166 F 
ATOM     32  F   UNL     1      35.279 -17.094 -20.904  0.00  0.00    -0.166 F 
ATOM     33  C   UNL     1      35.224 -17.380 -22.237  0.00  0.00    +0.421 C 
ENDBRANCH  27  33
ENDBRANCH   5  24
TORSDOF 3
ENDMDL
MODEL 3
REMARK VINA RESULT:     -10.9      4.268      7.118
REMARK  Name = 25118925
REMARK  3 active torsions:
REMARK  status: ('A' for Active; 'I' for Inactive)
REMARK    1  A    between atoms: C_3  and  C_12
REMARK    2  A    between atoms: C_5  and  C_24
REMARK    3  A    between atoms: C_27  and  C_33
REMARK                            x       y       z     vdW  Elec       q    Type
REMARK                         _______ _______ _______ _____ _____    ______ ____
ROOT
ATOM      1  N   UNL     1      31.765 -11.054 -20.498  0.00  0.00    -0.279 N 
ATOM      2  N   UNL     1      32.774 -11.123 -22.476  0.00  0.00    -0.394 NA
ATOM      3  C   UNL     1      32.190 -10.347 -21.588  0.00  0.00    +0.160 C 
ATOM      4  C   UNL     1      32.098 -12.364 -20.703  0.00  0.00    +0.152 C 
ATOM      5  C   UNL     1      32.720 -12.381 -21.929  0.00  0.00    +0.130 C 
ATOM      6  C   UNL     1      31.086 -10.531 -19.337  0.00  0.00    +0.115 C 
ENDROOT
BRANCH   3  12
ATOM      7  N   UNL     1      31.824  -6.324 -23.115  0.00  0.00    -0.296 N 
ATOM      8  N   UNL     1      30.675  -4.255 -23.425  0.00  0.00    -0.233 NA
ATOM      9  N   UNL     1      33.459  -3.245 -26.148  0.00  0.00    -0.223 N 
ATOM     10  N   UNL     1      31.444  -2.555 -24.997  0.00  0.00    -0.232 NA
ATOM     11  N   UNL     1      34.309  -4.288 -26.200  0.00  0.00    -0.183 NA
ATOM     12  C   UNL     1      31.988  -8.849 -21.710  0.00  0.00    +0.070 C 
ATOM     13  C   UNL     1      30.786  -8.498 -22.599  0.00  0.00    +0.030 C 
ATOM     14  C   UNL     1      33.242  -8.137 -22.239  0.00  0.00    +0.030 C 
ATOM     15  C   UNL     1      30.584  -6.986 -22.686  0.00  0.00    +0.092 C 
ATOM     16  C   UNL     1      33.028  -6.626 -22.334  0.00  0.00    +0.092 C 
ATOM     17  C   UNL     1      31.704  -5.078 -23.742  0.00  0.00    +0.118 C 
ATOM     18  C   UNL     1      32.632  -4.664 -24.693  0.00  0.00    +0.152 C 
ATOM     19  C   UNL     1      32.437  -3.418 -25.263  0.00  0.00    +0.133 C 
ATOM     20  C   UNL     1      33.800  -5.149 -25.311  0.00  0.00    +0.105 C 
ATOM     21  C   UNL     1      30.610  -3.062 -24.063  0.00  0.00    +0.252 C 
ATOM     22  H   UNL     1      33.566  -2.435 -26.696  0.00  0.00    +0.176 HD
ENDBRANCH   3  12
BRANCH   5  24
ATOM     23  F   UNL     1      34.767 -16.929 -24.387  0.00  0.00    -0.204 F 
ATOM     24  C   UNL     1      33.244 -13.550 -22.564  0.00  0.00    +0.027 C 
ATOM     25  C   UNL     1      32.968 -13.799 -23.908  0.00  0.00    +0.008 C 
ATOM     26  C   UNL     1      34.036 -14.441 -21.838  0.00  0.00    +0.005 C 
ATOM     27  C   UNL     1      33.480 -14.939 -24.527  0.00  0.00    +0.099 C 
ATOM     28  C   UNL     1      34.548 -15.582 -22.456  0.00  0.00    +0.030 C 
ATOM     29  C   UNL     1      34.270 -15.830 -23.801  0.00  0.00    +0.144 C 
BRANCH  27  33
ATOM     30  F   UNL     1      34.283 -15.145 -26.770  0.00  0.00    -0.166 F 
ATOM     31  F   UNL     1      32.640 -16.436 -26.191  0.00  0.00    -0.166 F 
ATOM     32  F   UNL     1      32.295 -14.309 -26.490  0.00  0.00    -0.166 F 
ATOM     33  C   UNL     1      33.182 -15.204 -25.964  0.00  0.00    +0.421 C 
ENDBRANCH  27  33
ENDBRANCH   5  24
TORSDOF 3
ENDMDL
MODEL 4
REMARK VINA RESULT:     -10.3      5.219     10.280
REMARK  Name = 25118925
REMARK  3 active torsions:
REMARK  status: ('A' for Active; 'I' for Inactive)
REMARK    1  A    between atoms: C_3  and  C_12
REMARK    2  A    between atoms: C_5  and  C_24
REMARK    3  A    between atoms: C_27  and  C_33
REMARK                            x       y       z     vdW  Elec       q    Type
REMARK                         _______ _______ _______ _____ _____    ______ ____
ROOT
ATOM      1  N   UNL     1      35.401 -18.936 -22.895  0.00  0.00    -0.279 N 
ATOM      2  N   UNL     1      34.204 -17.895 -21.340  0.00  0.00    -0.394 NA
ATOM      3  C   UNL     1      34.743 -19.039 -21.701  0.00  0.00    +0.160 C 
ATOM      4  C   UNL     1      35.275 -17.644 -23.322  0.00  0.00    +0.152 C 
ATOM      5  C   UNL     1      34.533 -17.021 -22.346  0.00  0.00    +0.130 C 
ATOM      6  C   UNL     1      36.105 -19.987 -23.590  0.00  0.00    +0.115 C 
ENDROOT
BRANCH   3  12
ATOM      7  N   UNL     1      34.768 -22.000 -18.556  0.00  0.00    -0.296 N 
ATOM      8  N   UNL     1      33.808 -23.788 -17.302  0.00  0.00    -0.233 NA
ATOM      9  N   UNL     1      36.758 -23.331 -14.605  0.00  0.00    -0.223 N 
ATOM     10  N   UNL     1      34.769 -24.577 -15.203  0.00  0.00    -0.232 NA
ATOM     11  N   UNL     1      37.518 -22.322 -15.069  0.00  0.00    -0.183 NA
ATOM     12  C   UNL     1      34.671 -20.341 -20.927  0.00  0.00    +0.070 C 
ATOM     13  C   UNL     1      33.534 -20.339 -19.895  0.00  0.00    +0.030 C 
ATOM     14  C   UNL     1      35.998 -20.672 -20.227  0.00  0.00    +0.030 C 
ATOM     15  C   UNL     1      33.463 -21.669 -19.146  0.00  0.00    +0.092 C 
ATOM     16  C   UNL     1      35.915 -21.998 -19.470  0.00  0.00    +0.092 C 
ATOM     17  C   UNL     1      34.774 -22.849 -17.444  0.00  0.00    +0.118 C 
ATOM     18  C   UNL     1      35.766 -22.747 -16.473  0.00  0.00    +0.152 C 
ATOM     19  C   UNL     1      35.695 -23.626 -15.406  0.00  0.00    +0.133 C 
ATOM     20  C   UNL     1      36.909 -21.971 -16.206  0.00  0.00    +0.105 C 
ATOM     21  C   UNL     1      33.865 -24.582 -16.206  0.00  0.00    +0.252 C 
ATOM     22  H   UNL     1      36.951 -23.811 -13.768  0.00  0.00    +0.176 HD
ENDBRANCH   3  12
BRANCH   5  24
ATOM     23  F   UNL     1      33.038 -11.667 -22.434  0.00  0.00    -0.204 F 
ATOM     24  C   UNL     1      34.146 -15.645 -22.366  0.00  0.00    +0.027 C 
ATOM     25  C   UNL     1      33.376 -15.120 -21.328  0.00  0.00    +0.008 C 
ATOM     26  C   UNL     1      34.542 -14.825 -23.424  0.00  0.00    +0.005 C 
ATOM     27  C   UNL     1      33.000 -13.778 -21.348  0.00  0.00    +0.099 C 
ATOM     28  C   UNL     1      34.166 -13.483 -23.444  0.00  0.00    +0.030 C 
ATOM     29  C   UNL     1      33.395 -12.959 -22.406  0.00  0.00    +0.144 C 
BRANCH  27  33
ATOM     30  F   UNL     1      32.755 -12.154 -19.609  0.00  0.00    -0.166 F 
ATOM     31  F   UNL     1      30.949 -12.771 -20.640  0.00  0.00    -0.166 F 
ATOM     32  F   UNL     1      31.928 -14.134 -19.256  0.00  0.00    -0.166 F 
ATOM     33  C   UNL     1      32.175 -13.219 -20.238  0.00  0.00    +0.421 C 
ENDBRANCH  27  33
ENDBRANCH   5  24
TORSDOF 3
ENDMDL
MODEL 5
REMARK VINA RESULT:     -10.2      5.803     10.386
REMARK  Name = 25118925
REMARK  3 active torsions:
REMARK  status: ('A' for Active; 'I' for Inactive)
REMARK    1  A    between atoms: C_3  and  C_12
REMARK    2  A    between atoms: C_5  and  C_24
REMARK    3  A    between atoms: C_27  and  C_33
REMARK                            x       y       z     vdW  Elec       q    Type
REMARK                         _______ _______ _______ _____ _____    ______ ____
ROOT
ATOM      1  N   UNL     1      35.019 -19.626 -23.503  0.00  0.00    -0.279 N 
ATOM      2  N   UNL     1      34.453 -18.239 -21.863  0.00  0.00    -0.394 NA
ATOM      3  C   UNL     1      34.703 -19.490 -22.180  0.00  0.00    +0.160 C 
ATOM      4  C   UNL     1      34.967 -18.381 -24.066  0.00  0.00    +0.152 C 
ATOM      5  C   UNL     1      34.616 -17.543 -23.035  0.00  0.00    +0.130 C 
ATOM      6  C   UNL     1      35.347 -20.849 -24.195  0.00  0.00    +0.115 C 
ENDROOT
BRANCH   3  12
ATOM      7  N   UNL     1      34.895 -22.005 -18.673  0.00  0.00    -0.296 N 
ATOM      8  N   UNL     1      33.990 -23.577 -17.123  0.00  0.00    -0.233 NA
ATOM      9  N   UNL     1      37.145 -22.863 -14.730  0.00  0.00    -0.223 N 
ATOM     10  N   UNL     1      35.088 -24.110 -15.011  0.00  0.00    -0.232 NA
ATOM     11  N   UNL     1      37.891 -21.950 -15.379  0.00  0.00    -0.183 NA
ATOM     12  C   UNL     1      34.659 -20.675 -21.233  0.00  0.00    +0.070 C 
ATOM     13  C   UNL     1      33.603 -20.497 -20.133  0.00  0.00    +0.030 C 
ATOM     14  C   UNL     1      36.027 -20.953 -20.592  0.00  0.00    +0.030 C 
ATOM     15  C   UNL     1      33.557 -21.713 -19.207  0.00  0.00    +0.092 C 
ATOM     16  C   UNL     1      35.970 -22.163 -19.658  0.00  0.00    +0.092 C 
ATOM     17  C   UNL     1      34.965 -22.698 -17.459  0.00  0.00    +0.118 C 
ATOM     18  C   UNL     1      36.029 -22.500 -16.584  0.00  0.00    +0.152 C 
ATOM     19  C   UNL     1      36.018 -23.227 -15.406  0.00  0.00    +0.133 C 
ATOM     20  C   UNL     1      37.207 -21.734 -16.508  0.00  0.00    +0.105 C 
ATOM     21  C   UNL     1      34.111 -24.219 -15.936  0.00  0.00    +0.252 C 
ATOM     22  H   UNL     1      37.389 -23.233 -13.851  0.00  0.00    +0.176 HD
ENDBRANCH   3  12
BRANCH   5  24
ATOM     23  F   UNL     1      33.931 -12.044 -23.488  0.00  0.00    -0.204 F 
ATOM     24  C   UNL     1      34.440 -16.129 -23.155  0.00  0.00    +0.027 C 
ATOM     25  C   UNL     1      34.074 -15.572 -24.380  0.00  0.00    +0.008 C 
ATOM     26  C   UNL     1      34.632 -15.306 -22.044  0.00  0.00    +0.005 C 
ATOM     27  C   UNL     1      33.902 -14.193 -24.496  0.00  0.00    +0.099 C 
ATOM     28  C   UNL     1      34.460 -13.927 -22.160  0.00  0.00    +0.030 C 
ATOM     29  C   UNL     1      34.095 -13.370 -23.386  0.00  0.00    +0.144 C 
BRANCH  27  33
ATOM     30  F   UNL     1      34.205 -14.112 -26.867  0.00  0.00    -0.166 F 
ATOM     31  F   UNL     1      32.196 -13.784 -26.121  0.00  0.00    -0.166 F 
ATOM     32  F   UNL     1      33.716 -12.251 -25.855  0.00  0.00    -0.166 F 
ATOM     33  C   UNL     1      33.512 -13.599 -25.807  0.00  0.00    +0.421 C 
ENDBRANCH  27  33
ENDBRANCH   5  24
TORSDOF 3
ENDMDL
MODEL 6
REMARK VINA RESULT:     -10.0      6.135     11.108
REMARK  Name = 25118925
REMARK  3 active torsions:
REMARK  status: ('A' for Active; 'I' for Inactive)
REMARK    1  A    between atoms: C_3  and  C_12
REMARK    2  A    between atoms: C_5  and  C_24
REMARK    3  A    between atoms: C_27  and  C_33
REMARK                            x       y       z     vdW  Elec       q    Type
REMARK                         _______ _______ _______ _____ _____    ______ ____
ROOT
ATOM      1  N   UNL     1      35.853 -20.978 -19.929  0.00  0.00    -0.279 N 
ATOM      2  N   UNL     1      33.938 -20.098 -20.633  0.00  0.00    -0.394 NA
ATOM      3  C   UNL     1      34.487 -21.050 -19.911  0.00  0.00    +0.160 C 
ATOM      4  C   UNL     1      36.196 -19.912 -20.713  0.00  0.00    +0.152 C 
ATOM      5  C   UNL     1      34.998 -19.385 -21.135  0.00  0.00    +0.130 C 
ATOM      6  C   UNL     1      36.776 -21.857 -19.253  0.00  0.00    +0.115 C 
ENDROOT
BRANCH   3  12
ATOM      7  N   UNL     1      32.768 -23.439 -16.750  0.00  0.00    -0.296 N 
ATOM      8  N   UNL     1      30.955 -24.522 -15.639  0.00  0.00    -0.233 NA
ATOM      9  N   UNL     1      33.391 -25.131 -12.496  0.00  0.00    -0.223 N 
ATOM     10  N   UNL     1      31.166 -25.454 -13.395  0.00  0.00    -0.232 NA
ATOM     11  N   UNL     1      34.573 -24.591 -12.845  0.00  0.00    -0.183 NA
ATOM     12  C   UNL     1      33.744 -22.120 -19.134  0.00  0.00    +0.070 C 
ATOM     13  C   UNL     1      32.588 -21.538 -18.308  0.00  0.00    +0.030 C 
ATOM     14  C   UNL     1      34.679 -22.922 -18.216  0.00  0.00    +0.030 C 
ATOM     15  C   UNL     1      31.837 -22.636 -17.556  0.00  0.00    +0.092 C 
ATOM     16  C   UNL     1      33.918 -24.011 -17.459  0.00  0.00    +0.092 C 
ATOM     17  C   UNL     1      32.244 -24.105 -15.636  0.00  0.00    +0.118 C 
ATOM     18  C   UNL     1      33.031 -24.350 -14.514  0.00  0.00    +0.152 C 
ATOM     19  C   UNL     1      32.432 -25.014 -13.458  0.00  0.00    +0.133 C 
ATOM     20  C   UNL     1      34.348 -24.117 -14.076  0.00  0.00    +0.105 C 
ATOM     21  C   UNL     1      30.503 -25.162 -14.535  0.00  0.00    +0.252 C 
ATOM     22  H   UNL     1      33.233 -25.569 -11.629  0.00  0.00    +0.176 HD
ENDBRANCH   3  12
BRANCH   5  24
ATOM     23  F   UNL     1      34.472 -14.960 -24.460  0.00  0.00    -0.204 F 
ATOM     24  C   UNL     1      34.862 -18.245 -21.988  0.00  0.00    +0.027 C 
ATOM     25  C   UNL     1      34.616 -16.987 -21.438  0.00  0.00    +0.008 C 
ATOM     26  C   UNL     1      34.977 -18.391 -23.371  0.00  0.00    +0.005 C 
ATOM     27  C   UNL     1      34.483 -15.876 -22.270  0.00  0.00    +0.099 C 
ATOM     28  C   UNL     1      34.844 -17.281 -24.203  0.00  0.00    +0.030 C 
ATOM     29  C   UNL     1      34.598 -16.022 -23.652  0.00  0.00    +0.144 C 
BRANCH  27  33
ATOM     30  F   UNL     1      34.692 -14.391 -20.406  0.00  0.00    -0.166 F 
ATOM     31  F   UNL     1      34.782 -13.506 -22.384  0.00  0.00    -0.166 F 
ATOM     32  F   UNL     1      32.887 -14.242 -21.610  0.00  0.00    -0.166 F 
ATOM     33  C   UNL     1      34.219 -14.532 -21.680  0.00  0.00    +0.421 C 
ENDBRANCH  27  33
ENDBRANCH   5  24
TORSDOF 3
ENDMDL
MODEL 7
REMARK VINA RESULT:      -9.9      3.543      5.857
REMARK  Name = 25118925
REMARK  3 active torsions:
REMARK  status: ('A' for Active; 'I' for Inactive)
REMARK    1  A    between atoms: C_3  and  C_12
REMARK    2  A    between atoms: C_5  and  C_24
REMARK    3  A    between atoms: C_27  and  C_33
REMARK                            x       y       z     vdW  Elec       q    Type
REMARK                         _______ _______ _______ _____ _____    ______ ____
ROOT
ATOM      1  N   UNL     1      32.228 -11.165 -21.241  0.00  0.00    -0.279 N 
ATOM      2  N   UNL     1      33.306 -12.040 -22.975  0.00  0.00    -0.394 NA
ATOM      3  C   UNL     1      32.703 -10.968 -22.507  0.00  0.00    +0.160 C 
ATOM      4  C   UNL     1      32.547 -12.443 -20.877  0.00  0.00    +0.152 C 
ATOM      5  C   UNL     1      33.211 -12.963 -21.963  0.00  0.00    +0.130 C 
ATOM      6  C   UNL     1      31.517 -10.211 -20.424  0.00  0.00    +0.115 C 
ENDROOT
BRANCH   3  12
ATOM      7  N   UNL     1      32.192  -6.785 -23.454  0.00  0.00    -0.296 N 
ATOM      8  N   UNL     1      32.804  -4.755 -24.548  0.00  0.00    -0.233 NA
ATOM      9  N   UNL     1      30.150  -2.830 -22.215  0.00  0.00    -0.223 N 
ATOM     10  N   UNL     1      31.795  -2.608 -23.979  0.00  0.00    -0.232 NA
ATOM     11  N   UNL     1      29.604  -3.778 -21.432  0.00  0.00    -0.183 NA
ATOM     12  C   UNL     1      32.530  -9.652 -23.241  0.00  0.00    +0.070 C 
ATOM     13  C   UNL     1      33.689  -8.681 -22.969  0.00  0.00    +0.030 C 
ATOM     14  C   UNL     1      31.198  -8.969 -22.897  0.00  0.00    +0.030 C 
ATOM     15  C   UNL     1      33.508  -7.373 -23.739  0.00  0.00    +0.092 C 
ATOM     16  C   UNL     1      31.030  -7.656 -23.662  0.00  0.00    +0.092 C 
ATOM     17  C   UNL     1      32.056  -5.402 -23.622  0.00  0.00    +0.118 C 
ATOM     18  C   UNL     1      31.156  -4.674 -22.850  0.00  0.00    +0.152 C 
ATOM     19  C   UNL     1      31.086  -3.311 -23.082  0.00  0.00    +0.133 C 
ATOM     20  C   UNL     1      30.220  -4.899 -21.823  0.00  0.00    +0.105 C 
ATOM     21  C   UNL     1      32.629  -3.417 -24.667  0.00  0.00    +0.252 C 
ATOM     22  H   UNL     1      29.899  -1.879 -22.168  0.00  0.00    +0.176 HD
ENDBRANCH   3  12
BRANCH   5  24
ATOM     23  F   UNL     1      35.266 -18.121 -22.255  0.00  0.00    -0.204 F 
ATOM     24  C   UNL     1      33.739 -14.290 -22.041  0.00  0.00    +0.027 C 
ATOM     25  C   UNL     1      33.832 -14.933 -23.275  0.00  0.00    +0.008 C 
ATOM     26  C   UNL     1      34.163 -14.940 -20.882  0.00  0.00    +0.005 C 
ATOM     27  C   UNL     1      34.347 -16.226 -23.351  0.00  0.00    +0.099 C 
ATOM     28  C   UNL     1      34.678 -16.234 -20.957  0.00  0.00    +0.030 C 
ATOM     29  C   UNL     1      34.770 -16.877 -22.192  0.00  0.00    +0.144 C 
BRANCH  27  33
ATOM     30  F   UNL     1      34.408 -18.275 -24.583  0.00  0.00    -0.166 F 
ATOM     31  F   UNL     1      33.437 -16.585 -25.533  0.00  0.00    -0.166 F 
ATOM     32  F   UNL     1      35.602 -16.620 -25.332  0.00  0.00    -0.166 F 
ATOM     33  C   UNL     1      34.444 -16.913 -24.671  0.00  0.00    +0.421 C 
ENDBRANCH  27  33
ENDBRANCH   5  24
TORSDOF 3
ENDMDL
MODEL 8
REMARK VINA RESULT:      -9.7      6.841     11.943
REMARK  Name = 25118925
REMARK  3 active torsions:
REMARK  status: ('A' for Active; 'I' for Inactive)
REMARK    1  A    between atoms: C_3  and  C_12
REMARK    2  A    between atoms: C_5  and  C_24
REMARK    3  A    between atoms: C_27  and  C_33
REMARK                            x       y       z     vdW  Elec       q    Type
REMARK                         _______ _______ _______ _____ _____    ______ ____
ROOT
ATOM      1  N   UNL     1      33.518 -21.821 -18.761  0.00  0.00    -0.279 N 
ATOM      2  N   UNL     1      35.494 -21.156 -19.528  0.00  0.00    -0.394 NA
ATOM      3  C   UNL     1      34.876 -21.973 -18.704  0.00  0.00    +0.160 C 
ATOM      4  C   UNL     1      33.254 -20.846 -19.681  0.00  0.00    +0.152 C 
ATOM      5  C   UNL     1      34.488 -20.451 -20.140  0.00  0.00    +0.130 C 
ATOM      6  C   UNL     1      32.532 -22.548 -17.998  0.00  0.00    +0.115 C 
ENDROOT
BRANCH   3  12
ATOM      7  N   UNL     1      36.287 -24.104 -15.221  0.00  0.00    -0.296 N 
ATOM      8  N   UNL     1      36.528 -26.052 -13.864  0.00  0.00    -0.233 NA
ATOM      9  N   UNL     1      37.952 -23.695 -10.932  0.00  0.00    -0.223 N 
ATOM     10  N   UNL     1      37.395 -25.959 -11.586  0.00  0.00    -0.232 NA
ATOM     11  N   UNL     1      37.936 -22.445 -11.432  0.00  0.00    -0.183 NA
ATOM     12  C   UNL     1      35.539 -22.978 -17.781  0.00  0.00    +0.070 C 
ATOM     13  C   UNL     1      34.521 -23.709 -16.894  0.00  0.00    +0.030 C 
ATOM     14  C   UNL     1      36.616 -22.330 -16.899  0.00  0.00    +0.030 C 
ATOM     15  C   UNL     1      35.207 -24.735 -15.993  0.00  0.00    +0.092 C 
ATOM     16  C   UNL     1      37.290 -23.361 -15.992  0.00  0.00    +0.092 C 
ATOM     17  C   UNL     1      36.655 -24.711 -14.016  0.00  0.00    +0.118 C 
ATOM     18  C   UNL     1      37.156 -23.956 -12.959  0.00  0.00    +0.152 C 
ATOM     19  C   UNL     1      37.495 -24.638 -11.804  0.00  0.00    +0.133 C 
ATOM     20  C   UNL     1      37.450 -22.611 -12.667  0.00  0.00    +0.105 C 
ATOM     21  C   UNL     1      36.901 -26.584 -12.676  0.00  0.00    +0.252 C 
ATOM     22  H   UNL     1      38.264 -23.908 -10.023  0.00  0.00    +0.176 HD
ENDBRANCH   3  12
BRANCH   5  24
ATOM     23  F   UNL     1      35.350 -16.522 -23.979  0.00  0.00    -0.204 F 
ATOM     24  C   UNL     1      34.708 -19.438 -21.126  0.00  0.00    +0.027 C 
ATOM     25  C   UNL     1      34.426 -18.104 -20.832  0.00  0.00    +0.008 C 
ATOM     26  C   UNL     1      35.207 -19.784 -22.382  0.00  0.00    +0.005 C 
ATOM     27  C   UNL     1      34.641 -17.117 -21.792  0.00  0.00    +0.099 C 
ATOM     28  C   UNL     1      35.422 -18.798 -23.343  0.00  0.00    +0.030 C 
ATOM     29  C   UNL     1      35.140 -17.464 -23.048  0.00  0.00    +0.144 C 
BRANCH  27  33
ATOM     30  F   UNL     1      35.162 -14.804 -22.109  0.00  0.00    -0.166 F 
ATOM     31  F   UNL     1      33.073 -15.312 -21.823  0.00  0.00    -0.166 F 
ATOM     32  F   UNL     1      34.454 -15.413 -20.145  0.00  0.00    -0.166 F 
ATOM     33  C   UNL     1      34.338 -15.692 -21.476  0.00  0.00    +0.421 C 
ENDBRANCH  27  33
ENDBRANCH   5  24
TORSDOF 3
ENDMDL
MODEL 9
REMARK VINA RESULT:      -9.4      2.442      4.252
REMARK  Name = 25118925
REMARK  3 active torsions:
REMARK  status: ('A' for Active; 'I' for Inactive)
REMARK    1  A    between atoms: C_3  and  C_12
REMARK    2  A    between atoms: C_5  and  C_24
REMARK    3  A    between atoms: C_27  and  C_33
REMARK                            x       y       z     vdW  Elec       q    Type
REMARK                         _______ _______ _______ _____ _____    ______ ____
ROOT
ATOM      1  N   UNL     1      33.653 -13.299 -25.077  0.00  0.00    -0.279 N 
ATOM      2  N   UNL     1      34.210 -14.246 -23.146  0.00  0.00    -0.394 NA
ATOM      3  C   UNL     1      33.896 -13.117 -23.744  0.00  0.00    +0.160 C 
ATOM      4  C   UNL     1      33.823 -14.628 -25.347  0.00  0.00    +0.152 C 
ATOM      5  C   UNL     1      34.166 -15.191 -24.141  0.00  0.00    +0.130 C 
ATOM      6  C   UNL     1      33.285 -12.286 -26.037  0.00  0.00    +0.115 C 
ENDROOT
BRANCH   3  12
ATOM      7  N   UNL     1      32.968  -8.993 -22.861  0.00  0.00    -0.296 N 
ATOM      8  N   UNL     1      32.102  -7.248 -21.482  0.00  0.00    -0.233 NA
ATOM      9  N   UNL     1      32.420  -4.758 -24.625  0.00  0.00    -0.223 N 
ATOM     10  N   UNL     1      31.769  -4.976 -22.303  0.00  0.00    -0.232 NA
ATOM     11  N   UNL     1      32.916  -5.505 -25.629  0.00  0.00    -0.183 NA
ATOM     12  C   UNL     1      33.801 -11.756 -23.082  0.00  0.00    +0.070 C 
ATOM     13  C   UNL     1      32.351 -11.376 -22.746  0.00  0.00    +0.030 C 
ATOM     14  C   UNL     1      34.435 -10.651 -23.940  0.00  0.00    +0.030 C 
ATOM     15  C   UNL     1      32.282 -10.014 -22.056  0.00  0.00    +0.092 C 
ATOM     16  C   UNL     1      34.351  -9.289 -23.248  0.00  0.00    +0.092 C 
ATOM     17  C   UNL     1      32.573  -7.662 -22.683  0.00  0.00    +0.118 C 
ATOM     18  C   UNL     1      32.657  -6.746 -23.728  0.00  0.00    +0.152 C 
ATOM     19  C   UNL     1      32.244  -5.451 -23.465  0.00  0.00    +0.133 C 
ATOM     20  C   UNL     1      33.059  -6.714 -25.076  0.00  0.00    +0.105 C 
ATOM     21  C   UNL     1      31.734  -5.950 -21.368  0.00  0.00    +0.252 C 
ATOM     22  H   UNL     1      32.204  -3.802 -24.719  0.00  0.00    +0.176 HD
ENDBRANCH   3  12
BRANCH   5  24
ATOM     23  F   UNL     1      35.240 -20.590 -23.354  0.00  0.00    -0.204 F 
ATOM     24  C   UNL     1      34.444 -16.579 -23.936  0.00  0.00    +0.027 C 
ATOM     25  C   UNL     1      35.132 -16.993 -22.795  0.00  0.00    +0.008 C 
ATOM     26  C   UNL     1      34.025 -17.520 -24.877  0.00  0.00    +0.005 C 
ATOM     27  C   UNL     1      35.403 -18.346 -22.596  0.00  0.00    +0.099 C 
ATOM     28  C   UNL     1      34.296 -18.873 -24.678  0.00  0.00    +0.030 C 
ATOM     29  C   UNL     1      34.985 -19.286 -23.537  0.00  0.00    +0.144 C 
BRANCH  27  33
ATOM     30  F   UNL     1      35.658 -19.944 -20.835  0.00  0.00    -0.166 F 
ATOM     31  F   UNL     1      37.467 -19.020 -21.594  0.00  0.00    -0.166 F 
ATOM     32  F   UNL     1      36.089 -17.864 -20.371  0.00  0.00    -0.166 F 
ATOM     33  C   UNL     1      36.140 -18.786 -21.376  0.00  0.00    +0.421 C 
ENDBRANCH  27  33
ENDBRANCH   5  24
TORSDOF 3
ENDMDL
