MODEL 1
REMARK VINA RESULT:     -11.7      0.000      0.000
REMARK  Name = 24941254
REMARK  6 active torsions:
REMARK  status: ('A' for Active; 'I' for Inactive)
REMARK    1  A    between atoms: C_1  and  S_21
REMARK    2  A    between atoms: C_4  and  C_9
REMARK    3  A    between atoms: N_8  and  C_11
REMARK    4  A    between atoms: C_12  and  C_18
REMARK    5  A    between atoms: C_18  and  O_19
REMARK    6  A    between atoms: S_21  and  N_24
REMARK                            x       y       z     vdW  Elec       q    Type
REMARK                         _______ _______ _______ _____ _____    ______ ____
ROOT
ATOM      1  C   UNL     1      35.243 -20.044 -20.925  0.00  0.00    +0.122 C 
ATOM      2  C   UNL     1      35.835 -20.761 -19.886  0.00  0.00    +0.024 C 
ATOM      3  C   UNL     1      33.862 -20.107 -21.116  0.00  0.00    +0.020 C 
ATOM      4  C   UNL     1      35.049 -21.541 -19.039  0.00  0.00    +0.055 C 
ATOM      5  C   UNL     1      33.075 -20.887 -20.269  0.00  0.00    +0.002 C 
ATOM      6  C   UNL     1      33.669 -21.604 -19.230  0.00  0.00    +0.005 C 
ENDROOT
BRANCH   4   9
ATOM      7  O   UNL     1      36.904 -22.386 -17.918  0.00  0.00    -0.270 OA
ATOM      8  N   UNL     1      34.788 -22.830 -17.005  0.00  0.00    -0.280 N 
ATOM      9  C   UNL     1      35.667 -22.289 -17.955  0.00  0.00    +0.250 C 
ATOM     10  H   UNL     1      33.831 -22.670 -17.168  0.00  0.00    +0.155 HD
BRANCH   8  11
ATOM     11  C   UNL     1      35.098 -23.574 -15.841  0.00  0.00    +0.057 C 
ATOM     12  C   UNL     1      34.101 -23.942 -14.937  0.00  0.00    +0.089 C 
ATOM     13  C   UNL     1      36.423 -23.940 -15.605  0.00  0.00    +0.015 C 
ATOM     14  C   UNL     1      34.430 -24.676 -13.797  0.00  0.00    +0.008 C 
ATOM     15  C   UNL     1      36.752 -24.672 -14.464  0.00  0.00    +0.001 C 
ATOM     16  C   UNL     1      35.755 -25.040 -13.561  0.00  0.00    +0.000 C 
BRANCH  12  18
ATOM     17  O   UNL     1      32.032 -23.893 -16.137  0.00  0.00    -0.245 OA
ATOM     18  C   UNL     1      32.706 -23.577 -15.154  0.00  0.00    +0.339 C 
BRANCH  18  19
ATOM     19  O   UNL     1      32.203 -22.831 -14.134  0.00  0.00    -0.477 OA
ATOM     20  H   UNL     1      32.782 -22.365 -13.565  0.00  0.00    +0.295 HD
ENDBRANCH  18  19
ENDBRANCH  12  18
ENDBRANCH   8  11
ENDBRANCH   4   9
BRANCH   1  21
ATOM     21  S   UNL     1      36.238 -19.058 -21.999  0.00  0.00    +0.064 S 
ATOM     22  O   UNL     1      37.425 -18.667 -21.268  0.00  0.00    -0.153 OA
ATOM     23  O   UNL     1      36.339 -19.746 -23.269  0.00  0.00    -0.153 OA
BRANCH  21  24
ATOM     24  N   UNL     1      35.219 -17.694 -22.184  0.00  0.00    -0.151 NA
ATOM     25  C   UNL     1      35.603 -16.739 -23.258  0.00  0.00    +0.101 C 
ATOM     26  C   UNL     1      34.850 -16.993 -20.918  0.00  0.00    +0.122 C 
ATOM     27  C   UNL     1      34.387 -15.889 -23.614  0.00  0.00    +0.045 C 
ATOM     28  C   UNL     1      33.962 -15.788 -21.121  0.00  0.00    -0.008 C 
ATOM     29  C   UNL     1      33.768 -15.241 -22.402  0.00  0.00    -0.023 C 
ATOM     30  C   UNL     1      33.356 -15.182 -20.012  0.00  0.00    -0.003 C 
ATOM     31  C   UNL     1      32.943 -14.119 -22.555  0.00  0.00    -0.004 C 
ATOM     32  C   UNL     1      32.547 -14.058 -20.175  0.00  0.00    -0.000 C 
ATOM     33  C   UNL     1      32.339 -13.529 -21.446  0.00  0.00    -0.000 C 
ENDBRANCH  21  24
ENDBRANCH   1  21
TORSDOF 6
ENDMDL
MODEL 2
REMARK VINA RESULT:     -11.3      1.339      2.208
REMARK  Name = 24941254
REMARK  6 active torsions:
REMARK  status: ('A' for Active; 'I' for Inactive)
REMARK    1  A    between atoms: C_1  and  S_21
REMARK    2  A    between atoms: C_4  and  C_9
REMARK    3  A    between atoms: N_8  and  C_11
REMARK    4  A    between atoms: C_12  and  C_18
REMARK    5  A    between atoms: C_18  and  O_19
REMARK    6  A    between atoms: S_21  and  N_24
REMARK                            x       y       z     vdW  Elec       q    Type
REMARK                         _______ _______ _______ _____ _____    ______ ____
ROOT
ATOM      1  C   UNL     1      34.802 -20.026 -20.670  0.00  0.00    +0.122 C 
ATOM      2  C   UNL     1      35.115 -21.067 -19.796  0.00  0.00    +0.024 C 
ATOM      3  C   UNL     1      33.471 -19.771 -21.003  0.00  0.00    +0.020 C 
ATOM      4  C   UNL     1      34.097 -21.853 -19.256  0.00  0.00    +0.055 C 
ATOM      5  C   UNL     1      32.454 -20.557 -20.462  0.00  0.00    +0.002 C 
ATOM      6  C   UNL     1      32.768 -21.599 -19.588  0.00  0.00    +0.005 C 
ENDROOT
BRANCH   4   9
ATOM      7  O   UNL     1      34.359 -24.109 -18.751  0.00  0.00    -0.270 OA
ATOM      8  N   UNL     1      34.816 -22.557 -17.053  0.00  0.00    -0.280 N 
ATOM      9  C   UNL     1      34.423 -22.938 -18.344  0.00  0.00    +0.250 C 
ATOM     10  H   UNL     1      34.819 -21.588 -16.876  0.00  0.00    +0.155 HD
BRANCH   8  11
ATOM     11  C   UNL     1      35.212 -23.381 -15.972  0.00  0.00    +0.057 C 
ATOM     12  C   UNL     1      36.539 -23.413 -15.541  0.00  0.00    +0.089 C 
ATOM     13  C   UNL     1      34.253 -24.168 -15.335  0.00  0.00    +0.015 C 
ATOM     14  C   UNL     1      36.905 -24.233 -14.473  0.00  0.00    +0.008 C 
ATOM     15  C   UNL     1      34.620 -24.988 -14.268  0.00  0.00    +0.001 C 
ATOM     16  C   UNL     1      35.946 -25.021 -13.838  0.00  0.00    +0.000 C 
BRANCH  12  18
ATOM     17  O   UNL     1      37.382 -21.501 -16.704  0.00  0.00    -0.245 OA
ATOM     18  C   UNL     1      37.567 -22.603 -16.184  0.00  0.00    +0.339 C 
BRANCH  18  19
ATOM     19  O   UNL     1      38.788 -23.200 -16.154  0.00  0.00    -0.477 OA
ATOM     20  H   UNL     1      39.561 -22.680 -16.056  0.00  0.00    +0.295 HD
ENDBRANCH  18  19
ENDBRANCH  12  18
ENDBRANCH   8  11
ENDBRANCH   4   9
BRANCH   1  21
ATOM     21  S   UNL     1      36.089 -19.031 -21.357  0.00  0.00    +0.064 S 
ATOM     22  O   UNL     1      36.976 -18.649 -20.278  0.00  0.00    -0.153 OA
ATOM     23  O   UNL     1      36.595 -19.708 -22.533  0.00  0.00    -0.153 OA
BRANCH  21  24
ATOM     24  N   UNL     1      35.182 -17.664 -21.847  0.00  0.00    -0.151 NA
ATOM     25  C   UNL     1      35.713 -16.921 -23.022  0.00  0.00    +0.101 C 
ATOM     26  C   UNL     1      34.763 -16.744 -20.747  0.00  0.00    +0.122 C 
ATOM     27  C   UNL     1      34.589 -16.077 -23.616  0.00  0.00    +0.045 C 
ATOM     28  C   UNL     1      33.978 -15.543 -21.218  0.00  0.00    -0.008 C 
ATOM     29  C   UNL     1      33.922 -15.206 -22.582  0.00  0.00    -0.023 C 
ATOM     30  C   UNL     1      33.329 -14.731 -20.279  0.00  0.00    -0.003 C 
ATOM     31  C   UNL     1      33.190 -14.082 -22.986  0.00  0.00    -0.004 C 
ATOM     32  C   UNL     1      32.613 -13.607 -20.690  0.00  0.00    -0.000 C 
ATOM     33  C   UNL     1      32.542 -13.284 -22.044  0.00  0.00    -0.000 C 
ENDBRANCH  21  24
ENDBRANCH   1  21
TORSDOF 6
ENDMDL
MODEL 3
REMARK VINA RESULT:     -11.1      8.183     14.711
REMARK  Name = 24941254
REMARK  6 active torsions:
REMARK  status: ('A' for Active; 'I' for Inactive)
REMARK    1  A    between atoms: C_1  and  S_21
REMARK    2  A    between atoms: C_4  and  C_9
REMARK    3  A    between atoms: N_8  and  C_11
REMARK    4  A    between atoms: C_12  and  C_18
REMARK    5  A    between atoms: C_18  and  O_19
REMARK    6  A    between atoms: S_21  and  N_24
REMARK                            x       y       z     vdW  Elec       q    Type
REMARK                         _______ _______ _______ _____ _____    ______ ____
ROOT
ATOM      1  C   UNL     1      31.775  -9.902 -20.169  0.00  0.00    +0.122 C 
ATOM      2  C   UNL     1      31.643  -9.300 -21.420  0.00  0.00    +0.024 C 
ATOM      3  C   UNL     1      32.437  -9.232 -19.140  0.00  0.00    +0.020 C 
ATOM      4  C   UNL     1      32.173  -8.029 -21.643  0.00  0.00    +0.055 C 
ATOM      5  C   UNL     1      32.967  -7.961 -19.362  0.00  0.00    +0.002 C 
ATOM      6  C   UNL     1      32.835  -7.360 -20.614  0.00  0.00    +0.005 C 
ENDROOT
BRANCH   4   9
ATOM      7  O   UNL     1      31.285  -7.919 -23.790  0.00  0.00    -0.270 OA
ATOM      8  N   UNL     1      32.762  -6.217 -23.137  0.00  0.00    -0.280 N 
ATOM      9  C   UNL     1      32.034  -7.401 -22.947  0.00  0.00    +0.250 C 
ATOM     10  H   UNL     1      33.314  -5.928 -22.376  0.00  0.00    +0.155 HD
BRANCH   8  11
ATOM     11  C   UNL     1      32.804  -5.382 -24.279  0.00  0.00    +0.057 C 
ATOM     12  C   UNL     1      32.077  -4.192 -24.327  0.00  0.00    +0.089 C 
ATOM     13  C   UNL     1      33.587  -5.764 -25.368  0.00  0.00    +0.015 C 
ATOM     14  C   UNL     1      32.134  -3.385 -25.464  0.00  0.00    +0.008 C 
ATOM     15  C   UNL     1      33.643  -4.958 -26.505  0.00  0.00    +0.001 C 
ATOM     16  C   UNL     1      32.917  -3.768 -26.552  0.00  0.00    +0.000 C 
BRANCH  12  18
ATOM     17  O   UNL     1      30.246  -4.351 -22.796  0.00  0.00    -0.245 OA
ATOM     18  C   UNL     1      31.248  -3.762 -23.207  0.00  0.00    +0.339 C 
BRANCH  18  19
ATOM     19  O   UNL     1      31.702  -2.612 -22.640  0.00  0.00    -0.477 OA
ATOM     20  H   UNL     1      31.767  -1.831 -23.153  0.00  0.00    +0.295 HD
ENDBRANCH  18  19
ENDBRANCH  12  18
ENDBRANCH   8  11
ENDBRANCH   4   9
BRANCH   1  21
ATOM     21  S   UNL     1      31.106 -11.512 -19.887  0.00  0.00    +0.064 S 
ATOM     22  O   UNL     1      31.266 -11.817 -18.481  0.00  0.00    -0.153 OA
ATOM     23  O   UNL     1      29.804 -11.569 -20.518  0.00  0.00    -0.153 OA
BRANCH  21  24
ATOM     24  N   UNL     1      32.207 -12.457 -20.796  0.00  0.00    -0.151 NA
ATOM     25  C   UNL     1      32.003 -12.453 -22.269  0.00  0.00    +0.101 C 
ATOM     26  C   UNL     1      32.455 -13.834 -20.271  0.00  0.00    +0.122 C 
ATOM     27  C   UNL     1      33.294 -12.908 -22.943  0.00  0.00    +0.045 C 
ATOM     28  C   UNL     1      33.420 -14.643 -21.104  0.00  0.00    -0.008 C 
ATOM     29  C   UNL     1      33.794 -14.219 -22.391  0.00  0.00    -0.023 C 
ATOM     30  C   UNL     1      33.916 -15.854 -20.604  0.00  0.00    -0.003 C 
ATOM     31  C   UNL     1      34.686 -14.996 -23.142  0.00  0.00    -0.004 C 
ATOM     32  C   UNL     1      34.795 -16.626 -21.364  0.00  0.00    -0.000 C 
ATOM     33  C   UNL     1      35.181 -16.196 -22.632  0.00  0.00    -0.000 C 
ENDBRANCH  21  24
ENDBRANCH   1  21
TORSDOF 6
ENDMDL
MODEL 4
REMARK VINA RESULT:     -10.9      4.571     11.131
REMARK  Name = 24941254
REMARK  6 active torsions:
REMARK  status: ('A' for Active; 'I' for Inactive)
REMARK    1  A    between atoms: C_1  and  S_21
REMARK    2  A    between atoms: C_4  and  C_9
REMARK    3  A    between atoms: N_8  and  C_11
REMARK    4  A    between atoms: C_12  and  C_18
REMARK    5  A    between atoms: C_18  and  O_19
REMARK    6  A    between atoms: S_21  and  N_24
REMARK                            x       y       z     vdW  Elec       q    Type
REMARK                         _______ _______ _______ _____ _____    ______ ____
ROOT
ATOM      1  C   UNL     1      34.046 -15.302 -22.420  0.00  0.00    +0.122 C 
ATOM      2  C   UNL     1      33.842 -14.001 -22.882  0.00  0.00    +0.024 C 
ATOM      3  C   UNL     1      33.607 -15.666 -21.147  0.00  0.00    +0.020 C 
ATOM      4  C   UNL     1      33.199 -13.066 -22.072  0.00  0.00    +0.055 C 
ATOM      5  C   UNL     1      32.964 -14.730 -20.337  0.00  0.00    +0.002 C 
ATOM      6  C   UNL     1      32.760 -13.430 -20.800  0.00  0.00    +0.005 C 
ENDROOT
BRANCH   4   9
ATOM      7  O   UNL     1      33.503 -11.363 -23.628  0.00  0.00    -0.270 OA
ATOM      8  N   UNL     1      32.170 -10.897 -21.754  0.00  0.00    -0.280 N 
ATOM      9  C   UNL     1      32.985 -11.710 -22.554  0.00  0.00    +0.250 C 
ATOM     10  H   UNL     1      31.830 -11.313 -20.929  0.00  0.00    +0.155 HD
BRANCH   8  11
ATOM     11  C   UNL     1      31.769  -9.558 -21.978  0.00  0.00    +0.057 C 
ATOM     12  C   UNL     1      31.932  -8.584 -20.993  0.00  0.00    +0.089 C 
ATOM     13  C   UNL     1      31.202  -9.219 -23.207  0.00  0.00    +0.015 C 
ATOM     14  C   UNL     1      31.529  -7.271 -21.238  0.00  0.00    +0.008 C 
ATOM     15  C   UNL     1      30.798  -7.906 -23.451  0.00  0.00    +0.001 C 
ATOM     16  C   UNL     1      30.962  -6.932 -22.466  0.00  0.00    +0.000 C 
BRANCH  12  18
ATOM     17  O   UNL     1      32.280  -9.918 -19.038  0.00  0.00    -0.245 OA
ATOM     18  C   UNL     1      32.520  -8.904 -19.698  0.00  0.00    +0.339 C 
BRANCH  18  19
ATOM     19  O   UNL     1      33.388  -7.947 -19.274  0.00  0.00    -0.477 OA
ATOM     20  H   UNL     1      34.277  -8.172 -19.083  0.00  0.00    +0.295 HD
ENDBRANCH  18  19
ENDBRANCH  12  18
ENDBRANCH   8  11
ENDBRANCH   4   9
BRANCH   1  21
ATOM     21  S   UNL     1      34.862 -16.486 -23.444  0.00  0.00    +0.064 S 
ATOM     22  O   UNL     1      33.893 -16.992 -24.393  0.00  0.00    -0.153 OA
ATOM     23  O   UNL     1      36.109 -15.903 -23.893  0.00  0.00    -0.153 OA
BRANCH  21  24
ATOM     24  N   UNL     1      35.201 -17.701 -22.287  0.00  0.00    -0.151 NA
ATOM     25  C   UNL     1      36.513 -18.386 -22.430  0.00  0.00    +0.101 C 
ATOM     26  C   UNL     1      34.091 -18.668 -22.028  0.00  0.00    +0.122 C 
ATOM     27  C   UNL     1      36.866 -19.051 -21.103  0.00  0.00    +0.045 C 
ATOM     28  C   UNL     1      34.430 -19.733 -21.013  0.00  0.00    -0.008 C 
ATOM     29  C   UNL     1      35.757 -19.938 -20.596  0.00  0.00    -0.023 C 
ATOM     30  C   UNL     1      33.413 -20.555 -20.509  0.00  0.00    -0.003 C 
ATOM     31  C   UNL     1      36.039 -20.938 -19.657  0.00  0.00    -0.004 C 
ATOM     32  C   UNL     1      33.707 -21.556 -19.583  0.00  0.00    -0.000 C 
ATOM     33  C   UNL     1      35.019 -21.746 -19.156  0.00  0.00    -0.000 C 
ENDBRANCH  21  24
ENDBRANCH   1  21
TORSDOF 6
ENDMDL
MODEL 5
REMARK VINA RESULT:     -10.7      7.336     11.419
REMARK  Name = 24941254
REMARK  6 active torsions:
REMARK  status: ('A' for Active; 'I' for Inactive)
REMARK    1  A    between atoms: C_1  and  S_21
REMARK    2  A    between atoms: C_4  and  C_9
REMARK    3  A    between atoms: N_8  and  C_11
REMARK    4  A    between atoms: C_12  and  C_18
REMARK    5  A    between atoms: C_18  and  O_19
REMARK    6  A    between atoms: S_21  and  N_24
REMARK                            x       y       z     vdW  Elec       q    Type
REMARK                         _______ _______ _______ _____ _____    ______ ____
ROOT
ATOM      1  C   UNL     1      31.884  -9.274 -20.241  0.00  0.00    +0.122 C 
ATOM      2  C   UNL     1      32.446  -9.971 -21.311  0.00  0.00    +0.024 C 
ATOM      3  C   UNL     1      31.151  -9.960 -19.271  0.00  0.00    +0.020 C 
ATOM      4  C   UNL     1      32.274 -11.351 -21.411  0.00  0.00    +0.055 C 
ATOM      5  C   UNL     1      30.980 -11.340 -19.372  0.00  0.00    +0.002 C 
ATOM      6  C   UNL     1      31.542 -12.036 -20.443  0.00  0.00    +0.005 C 
ENDROOT
BRANCH   4   9
ATOM      7  O   UNL     1      33.361 -11.440 -23.467  0.00  0.00    -0.270 OA
ATOM      8  N   UNL     1      32.832 -13.476 -22.429  0.00  0.00    -0.280 N 
ATOM      9  C   UNL     1      32.861 -12.078 -22.527  0.00  0.00    +0.250 C 
ATOM     10  H   UNL     1      32.401 -13.840 -21.623  0.00  0.00    +0.155 HD
BRANCH   8  11
ATOM     11  C   UNL     1      33.343 -14.434 -23.338  0.00  0.00    +0.057 C 
ATOM     12  C   UNL     1      34.188 -15.457 -22.905  0.00  0.00    +0.089 C 
ATOM     13  C   UNL     1      32.991 -14.344 -24.685  0.00  0.00    +0.015 C 
ATOM     14  C   UNL     1      34.679 -16.390 -23.820  0.00  0.00    +0.008 C 
ATOM     15  C   UNL     1      33.484 -15.276 -25.599  0.00  0.00    +0.001 C 
ATOM     16  C   UNL     1      34.327 -16.298 -25.166  0.00  0.00    +0.000 C 
BRANCH  12  18
ATOM     17  O   UNL     1      34.600 -14.657 -20.689  0.00  0.00    -0.245 OA
ATOM     18  C   UNL     1      34.575 -15.581 -21.505  0.00  0.00    +0.339 C 
BRANCH  18  19
ATOM     19  O   UNL     1      34.917 -16.855 -21.175  0.00  0.00    -0.477 OA
ATOM     20  H   UNL     1      34.342 -17.373 -20.647  0.00  0.00    +0.295 HD
ENDBRANCH  18  19
ENDBRANCH  12  18
ENDBRANCH   8  11
ENDBRANCH   4   9
BRANCH   1  21
ATOM     21  S   UNL     1      32.099  -7.527 -20.113  0.00  0.00    +0.064 S 
ATOM     22  O   UNL     1      30.794  -6.935 -19.904  0.00  0.00    -0.153 OA
ATOM     23  O   UNL     1      33.186  -7.278 -19.190  0.00  0.00    -0.153 OA
BRANCH  21  24
ATOM     24  N   UNL     1      32.626  -7.172 -21.703  0.00  0.00    -0.151 NA
ATOM     25  C   UNL     1      34.057  -7.461 -21.991  0.00  0.00    +0.101 C 
ATOM     26  C   UNL     1      32.207  -5.841 -22.236  0.00  0.00    +0.122 C 
ATOM     27  C   UNL     1      34.241  -7.562 -23.503  0.00  0.00    +0.045 C 
ATOM     28  C   UNL     1      32.701  -5.557 -23.634  0.00  0.00    -0.008 C 
ATOM     29  C   UNL     1      33.695  -6.357 -24.226  0.00  0.00    -0.023 C 
ATOM     30  C   UNL     1      32.192  -4.457 -24.336  0.00  0.00    -0.003 C 
ATOM     31  C   UNL     1      34.136  -6.063 -25.523  0.00  0.00    -0.004 C 
ATOM     32  C   UNL     1      32.647  -4.166 -25.623  0.00  0.00    -0.000 C 
ATOM     33  C   UNL     1      33.617  -4.970 -26.216  0.00  0.00    -0.000 C 
ENDBRANCH  21  24
ENDBRANCH   1  21
TORSDOF 6
ENDMDL
MODEL 6
REMARK VINA RESULT:     -10.7      6.213     10.190
REMARK  Name = 24941254
REMARK  6 active torsions:
REMARK  status: ('A' for Active; 'I' for Inactive)
REMARK    1  A    between atoms: C_1  and  S_21
REMARK    2  A    between atoms: C_4  and  C_9
REMARK    3  A    between atoms: N_8  and  C_11
REMARK    4  A    between atoms: C_12  and  C_18
REMARK    5  A    between atoms: C_18  and  O_19
REMARK    6  A    between atoms: S_21  and  N_24
REMARK                            x       y       z     vdW  Elec       q    Type
REMARK                         _______ _______ _______ _____ _____    ______ ____
ROOT
ATOM      1  C   UNL     1      32.724 -10.980 -22.534  0.00  0.00    +0.122 C 
ATOM      2  C   UNL     1      32.763 -12.304 -22.098  0.00  0.00    +0.024 C 
ATOM      3  C   UNL     1      33.428 -10.603 -23.679  0.00  0.00    +0.020 C 
ATOM      4  C   UNL     1      33.505 -13.251 -22.804  0.00  0.00    +0.055 C 
ATOM      5  C   UNL     1      34.170 -11.550 -24.385  0.00  0.00    +0.002 C 
ATOM      6  C   UNL     1      34.208 -12.874 -23.948  0.00  0.00    +0.005 C 
ENDROOT
BRANCH   4   9
ATOM      7  O   UNL     1      32.657 -15.040 -21.583  0.00  0.00    -0.270 OA
ATOM      8  N   UNL     1      34.598 -15.411 -22.848  0.00  0.00    -0.280 N 
ATOM      9  C   UNL     1      33.545 -14.632 -22.349  0.00  0.00    +0.250 C 
ATOM     10  H   UNL     1      35.226 -14.947 -23.447  0.00  0.00    +0.155 HD
BRANCH   8  11
ATOM     11  C   UNL     1      34.876 -16.778 -22.604  0.00  0.00    +0.057 C 
ATOM     12  C   UNL     1      34.709 -17.735 -23.606  0.00  0.00    +0.089 C 
ATOM     13  C   UNL     1      35.323 -17.162 -21.340  0.00  0.00    +0.015 C 
ATOM     14  C   UNL     1      34.990 -19.076 -23.342  0.00  0.00    +0.008 C 
ATOM     15  C   UNL     1      35.603 -18.503 -21.077  0.00  0.00    +0.001 C 
ATOM     16  C   UNL     1      35.436 -19.459 -22.077  0.00  0.00    +0.000 C 
BRANCH  12  18
ATOM     17  O   UNL     1      33.230 -17.807 -25.484  0.00  0.00    -0.245 OA
ATOM     18  C   UNL     1      34.244 -17.368 -24.938  0.00  0.00    +0.339 C 
BRANCH  18  19
ATOM     19  O   UNL     1      35.063 -16.464 -25.540  0.00  0.00    -0.477 OA
ATOM     20  H   UNL     1      35.946 -16.698 -25.748  0.00  0.00    +0.295 HD
ENDBRANCH  18  19
ENDBRANCH  12  18
ENDBRANCH   8  11
ENDBRANCH   4   9
BRANCH   1  21
ATOM     21  S   UNL     1      31.788  -9.781 -21.640  0.00  0.00    +0.064 S 
ATOM     22  O   UNL     1      30.386 -10.112 -21.791  0.00  0.00    -0.153 OA
ATOM     23  O   UNL     1      32.382  -9.641 -20.327  0.00  0.00    -0.153 OA
BRANCH  21  24
ATOM     24  N   UNL     1      32.136  -8.380 -22.561  0.00  0.00    -0.151 NA
ATOM     25  C   UNL     1      33.566  -7.974 -22.608  0.00  0.00    +0.101 C 
ATOM     26  C   UNL     1      31.232  -7.214 -22.322  0.00  0.00    +0.122 C 
ATOM     27  C   UNL     1      33.775  -7.057 -23.810  0.00  0.00    +0.045 C 
ATOM     28  C   UNL     1      31.577  -5.994 -23.141  0.00  0.00    -0.008 C 
ATOM     29  C   UNL     1      32.803  -5.904 -23.823  0.00  0.00    -0.023 C 
ATOM     30  C   UNL     1      30.680  -4.918 -23.188  0.00  0.00    -0.003 C 
ATOM     31  C   UNL     1      33.096  -4.754 -24.569  0.00  0.00    -0.004 C 
ATOM     32  C   UNL     1      30.986  -3.773 -23.924  0.00  0.00    -0.000 C 
ATOM     33  C   UNL     1      32.193  -3.693 -24.615  0.00  0.00    -0.000 C 
ENDBRANCH  21  24
ENDBRANCH   1  21
TORSDOF 6
ENDMDL
MODEL 7
REMARK VINA RESULT:     -10.6      6.671     13.076
REMARK  Name = 24941254
REMARK  6 active torsions:
REMARK  status: ('A' for Active; 'I' for Inactive)
REMARK    1  A    between atoms: C_1  and  S_21
REMARK    2  A    between atoms: C_4  and  C_9
REMARK    3  A    between atoms: N_8  and  C_11
REMARK    4  A    between atoms: C_12  and  C_18
REMARK    5  A    between atoms: C_18  and  O_19
REMARK    6  A    between atoms: S_21  and  N_24
REMARK                            x       y       z     vdW  Elec       q    Type
REMARK                         _______ _______ _______ _____ _____    ______ ____
ROOT
ATOM      1  C   UNL     1      32.522 -12.383 -22.180  0.00  0.00    +0.122 C 
ATOM      2  C   UNL     1      32.514 -10.989 -22.113  0.00  0.00    +0.024 C 
ATOM      3  C   UNL     1      31.885 -13.131 -21.189  0.00  0.00    +0.020 C 
ATOM      4  C   UNL     1      31.870 -10.345 -21.057  0.00  0.00    +0.055 C 
ATOM      5  C   UNL     1      31.241 -12.487 -20.133  0.00  0.00    +0.002 C 
ATOM      6  C   UNL     1      31.233 -11.093 -20.068  0.00  0.00    +0.005 C 
ENDROOT
BRANCH   4   9
ATOM      7  O   UNL     1      32.204  -8.336 -19.932  0.00  0.00    -0.270 OA
ATOM      8  N   UNL     1      31.478  -8.226 -22.160  0.00  0.00    -0.280 N 
ATOM      9  C   UNL     1      31.861  -8.892 -20.988  0.00  0.00    +0.250 C 
ATOM     10  H   UNL     1      31.232  -8.803 -22.919  0.00  0.00    +0.155 HD
BRANCH   8  11
ATOM     11  C   UNL     1      31.400  -6.832 -22.397  0.00  0.00    +0.057 C 
ATOM     12  C   UNL     1      32.334  -6.187 -23.208  0.00  0.00    +0.089 C 
ATOM     13  C   UNL     1      30.368  -6.102 -21.805  0.00  0.00    +0.015 C 
ATOM     14  C   UNL     1      32.236  -4.813 -23.426  0.00  0.00    +0.008 C 
ATOM     15  C   UNL     1      30.272  -4.728 -22.023  0.00  0.00    +0.001 C 
ATOM     16  C   UNL     1      31.206  -4.084 -22.834  0.00  0.00    +0.000 C 
BRANCH  12  18
ATOM     17  O   UNL     1      33.887  -7.991 -23.445  0.00  0.00    -0.245 OA
ATOM     18  C   UNL     1      33.424  -6.919 -23.841  0.00  0.00    +0.339 C 
BRANCH  18  19
ATOM     19  O   UNL     1      33.896  -6.286 -24.949  0.00  0.00    -0.477 OA
ATOM     20  H   UNL     1      33.729  -6.642 -25.799  0.00  0.00    +0.295 HD
ENDBRANCH  18  19
ENDBRANCH  12  18
ENDBRANCH   8  11
ENDBRANCH   4   9
BRANCH   1  21
ATOM     21  S   UNL     1      33.339 -13.199 -23.515  0.00  0.00    +0.064 S 
ATOM     22  O   UNL     1      32.344 -13.506 -24.520  0.00  0.00    -0.153 OA
ATOM     23  O   UNL     1      34.523 -12.434 -23.847  0.00  0.00    -0.153 OA
BRANCH  21  24
ATOM     24  N   UNL     1      33.814 -14.648 -22.735  0.00  0.00    -0.151 NA
ATOM     25  C   UNL     1      34.630 -14.483 -21.502  0.00  0.00    +0.101 C 
ATOM     26  C   UNL     1      34.365 -15.708 -23.632  0.00  0.00    +0.122 C 
ATOM     27  C   UNL     1      34.553 -15.772 -20.688  0.00  0.00    +0.045 C 
ATOM     28  C   UNL     1      34.785 -16.965 -22.909  0.00  0.00    -0.008 C 
ATOM     29  C   UNL     1      34.907 -16.986 -21.508  0.00  0.00    -0.023 C 
ATOM     30  C   UNL     1      35.098 -18.114 -23.647  0.00  0.00    -0.003 C 
ATOM     31  C   UNL     1      35.306 -18.167 -20.868  0.00  0.00    -0.004 C 
ATOM     32  C   UNL     1      35.505 -19.281 -23.000  0.00  0.00    -0.000 C 
ATOM     33  C   UNL     1      35.607 -19.308 -21.611  0.00  0.00    -0.000 C 
ENDBRANCH  21  24
ENDBRANCH   1  21
TORSDOF 6
ENDMDL
MODEL 8
REMARK VINA RESULT:     -10.3      7.358     11.469
REMARK  Name = 24941254
REMARK  6 active torsions:
REMARK  status: ('A' for Active; 'I' for Inactive)
REMARK    1  A    between atoms: C_1  and  S_21
REMARK    2  A    between atoms: C_4  and  C_9
REMARK    3  A    between atoms: N_8  and  C_11
REMARK    4  A    between atoms: C_12  and  C_18
REMARK    5  A    between atoms: C_18  and  O_19
REMARK    6  A    between atoms: S_21  and  N_24
REMARK                            x       y       z     vdW  Elec       q    Type
REMARK                         _______ _______ _______ _____ _____    ______ ____
ROOT
ATOM      1  C   UNL     1      33.245  -9.755 -22.879  0.00  0.00    +0.122 C 
ATOM      2  C   UNL     1      33.035 -11.123 -22.707  0.00  0.00    +0.024 C 
ATOM      3  C   UNL     1      34.179  -9.306 -23.813  0.00  0.00    +0.020 C 
ATOM      4  C   UNL     1      33.759 -12.041 -23.467  0.00  0.00    +0.055 C 
ATOM      5  C   UNL     1      34.903 -10.224 -24.573  0.00  0.00    +0.002 C 
ATOM      6  C   UNL     1      34.692 -11.592 -24.400  0.00  0.00    +0.005 C 
ENDROOT
BRANCH   4   9
ATOM      7  O   UNL     1      32.457 -13.858 -22.820  0.00  0.00    -0.270 OA
ATOM      8  N   UNL     1      34.589 -14.304 -23.693  0.00  0.00    -0.280 N 
ATOM      9  C   UNL     1      33.539 -13.468 -23.288  0.00  0.00    +0.250 C 
ATOM     10  H   UNL     1      35.387 -13.849 -24.045  0.00  0.00    +0.155 HD
BRANCH   8  11
ATOM     11  C   UNL     1      34.651 -15.719 -23.663  0.00  0.00    +0.057 C 
ATOM     12  C   UNL     1      34.159 -16.482 -24.722  0.00  0.00    +0.089 C 
ATOM     13  C   UNL     1      35.215 -16.348 -22.553  0.00  0.00    +0.015 C 
ATOM     14  C   UNL     1      34.231 -17.875 -24.670  0.00  0.00    +0.008 C 
ATOM     15  C   UNL     1      35.286 -17.740 -22.501  0.00  0.00    +0.001 C 
ATOM     16  C   UNL     1      34.794 -18.503 -23.560  0.00  0.00    +0.000 C 
BRANCH  12  18
ATOM     17  O   UNL     1      34.012 -14.869 -26.482  0.00  0.00    -0.245 OA
ATOM     18  C   UNL     1      33.564 -15.857 -25.897  0.00  0.00    +0.339 C 
BRANCH  18  19
ATOM     19  O   UNL     1      32.428 -16.489 -26.299  0.00  0.00    -0.477 OA
ATOM     20  H   UNL     1      32.379 -16.862 -27.157  0.00  0.00    +0.295 HD
ENDBRANCH  18  19
ENDBRANCH  12  18
ENDBRANCH   8  11
ENDBRANCH   4   9
BRANCH   1  21
ATOM     21  S   UNL     1      32.331  -8.592 -21.916  0.00  0.00    +0.064 S 
ATOM     22  O   UNL     1      30.963  -9.059 -21.838  0.00  0.00    -0.153 OA
ATOM     23  O   UNL     1      33.091  -8.313 -20.715  0.00  0.00    -0.153 OA
BRANCH  21  24
ATOM     24  N   UNL     1      32.399  -7.228 -22.948  0.00  0.00    -0.151 NA
ATOM     25  C   UNL     1      33.759  -6.695 -23.229  0.00  0.00    +0.101 C 
ATOM     26  C   UNL     1      31.426  -6.137 -22.636  0.00  0.00    +0.122 C 
ATOM     27  C   UNL     1      33.699  -5.842 -24.493  0.00  0.00    +0.045 C 
ATOM     28  C   UNL     1      31.525  -4.945 -23.557  0.00  0.00    -0.008 C 
ATOM     29  C   UNL     1      32.625  -4.787 -24.419  0.00  0.00    -0.023 C 
ATOM     30  C   UNL     1      30.526  -3.963 -23.524  0.00  0.00    -0.003 C 
ATOM     31  C   UNL     1      32.689  -3.666 -25.257  0.00  0.00    -0.004 C 
ATOM     32  C   UNL     1      30.606  -2.845 -24.354  0.00  0.00    -0.000 C 
ATOM     33  C   UNL     1      31.686  -2.698 -25.222  0.00  0.00    -0.000 C 
ENDBRANCH  21  24
ENDBRANCH   1  21
TORSDOF 6
ENDMDL
MODEL 9
REMARK VINA RESULT:     -10.2      7.006     13.561
REMARK  Name = 24941254
REMARK  6 active torsions:
REMARK  status: ('A' for Active; 'I' for Inactive)
REMARK    1  A    between atoms: C_1  and  S_21
REMARK    2  A    between atoms: C_4  and  C_9
REMARK    3  A    between atoms: N_8  and  C_11
REMARK    4  A    between atoms: C_12  and  C_18
REMARK    5  A    between atoms: C_18  and  O_19
REMARK    6  A    between atoms: S_21  and  N_24
REMARK                            x       y       z     vdW  Elec       q    Type
REMARK                         _______ _______ _______ _____ _____    ______ ____
ROOT
ATOM      1  C   UNL     1      32.816 -11.938 -23.118  0.00  0.00    +0.122 C 
ATOM      2  C   UNL     1      33.081 -10.575 -23.250  0.00  0.00    +0.024 C 
ATOM      3  C   UNL     1      32.048 -12.398 -22.048  0.00  0.00    +0.020 C 
ATOM      4  C   UNL     1      32.579  -9.673 -22.313  0.00  0.00    +0.055 C 
ATOM      5  C   UNL     1      31.547 -11.496 -21.110  0.00  0.00    +0.002 C 
ATOM      6  C   UNL     1      31.812 -10.132 -21.243  0.00  0.00    +0.005 C 
ENDROOT
BRANCH   4   9
ATOM      7  O   UNL     1      33.792  -7.753 -21.807  0.00  0.00    -0.270 OA
ATOM      8  N   UNL     1      32.030  -7.551 -23.343  0.00  0.00    -0.280 N 
ATOM      9  C   UNL     1      32.855  -8.251 -22.451  0.00  0.00    +0.250 C 
ATOM     10  H   UNL     1      31.327  -8.083 -23.782  0.00  0.00    +0.155 HD
BRANCH   8  11
ATOM     11  C   UNL     1      32.077  -6.181 -23.698  0.00  0.00    +0.057 C 
ATOM     12  C   UNL     1      31.485  -5.209 -22.891  0.00  0.00    +0.089 C 
ATOM     13  C   UNL     1      32.727  -5.809 -24.875  0.00  0.00    +0.015 C 
ATOM     14  C   UNL     1      31.545  -3.865 -23.262  0.00  0.00    +0.008 C 
ATOM     15  C   UNL     1      32.785  -4.466 -25.245  0.00  0.00    +0.001 C 
ATOM     16  C   UNL     1      32.194  -3.494 -24.439  0.00  0.00    +0.000 C 
BRANCH  12  18
ATOM     17  O   UNL     1      29.576  -5.552 -21.492  0.00  0.00    -0.245 OA
ATOM     18  C   UNL     1      30.798  -5.563 -21.655  0.00  0.00    +0.339 C 
BRANCH  18  19
ATOM     19  O   UNL     1      31.663  -5.918 -20.667  0.00  0.00    -0.477 OA
ATOM     20  H   UNL     1      31.334  -6.203 -19.838  0.00  0.00    +0.295 HD
ENDBRANCH  18  19
ENDBRANCH  12  18
ENDBRANCH   8  11
ENDBRANCH   4   9
BRANCH   1  21
ATOM     21  S   UNL     1      33.453 -13.081 -24.303  0.00  0.00    +0.064 S 
ATOM     22  O   UNL     1      32.362 -13.471 -25.172  0.00  0.00    -0.153 OA
ATOM     23  O   UNL     1      34.675 -12.526 -24.846  0.00  0.00    -0.153 OA
BRANCH  21  24
ATOM     24  N   UNL     1      33.846 -14.392 -23.274  0.00  0.00    -0.151 NA
ATOM     25  C   UNL     1      34.599 -14.045 -22.040  0.00  0.00    +0.101 C 
ATOM     26  C   UNL     1      34.414 -15.595 -23.956  0.00  0.00    +0.122 C 
ATOM     27  C   UNL     1      34.444 -15.182 -21.035  0.00  0.00    +0.045 C 
ATOM     28  C   UNL     1      34.761 -16.725 -23.016  0.00  0.00    -0.008 C 
ATOM     29  C   UNL     1      34.808 -16.520 -21.626  0.00  0.00    -0.023 C 
ATOM     30  C   UNL     1      35.080 -17.984 -23.540  0.00  0.00    -0.003 C 
ATOM     31  C   UNL     1      35.140 -17.588 -20.782  0.00  0.00    -0.004 C 
ATOM     32  C   UNL     1      35.421 -19.038 -22.692  0.00  0.00    -0.000 C 
ATOM     33  C   UNL     1      35.448 -18.839 -21.313  0.00  0.00    -0.000 C 
ENDBRANCH  21  24
ENDBRANCH   1  21
TORSDOF 6
ENDMDL
