MODEL 1
REMARK VINA RESULT:     -11.2      0.000      0.000
REMARK  Name = 5497056
REMARK  11 active torsions:
REMARK  status: ('A' for Active; 'I' for Inactive)
REMARK    1  A    between atoms: N_2  and  C_22
REMARK    2  A    between atoms: C_3  and  C_5
REMARK    3  A    between atoms: C_8  and  C_11
REMARK    4  A    between atoms: C_13  and  C_17
REMARK    5  A    between atoms: C_17  and  N_18
REMARK    6  A    between atoms: C_22  and  C_24
REMARK    7  A    between atoms: C_24  and  C_26
REMARK    8  A    between atoms: C_24  and  C_29
REMARK    9  A    between atoms: C_26  and  O_27
REMARK   10  A    between atoms: C_29  and  C_30
REMARK   11  A    between atoms: C_33  and  C_38
REMARK                            x       y       z     vdW  Elec       q    Type
REMARK                         _______ _______ _______ _____ _____    ______ ____
ROOT
ATOM      1  O   UNL     1      33.767 -24.350 -18.788  0.00  0.00    -0.270 OA
ATOM      2  N   UNL     1      33.649 -22.975 -16.925  0.00  0.00    -0.302 N 
ATOM      3  C   UNL     1      33.794 -23.233 -18.280  0.00  0.00    +0.246 C 
ATOM      4  H   UNL     1      33.687 -22.041 -16.614  0.00  0.00    +0.150 HD
ENDROOT
BRANCH   3   5
ATOM      5  C   UNL     1      34.022 -22.048 -19.145  0.00  0.00    +0.053 C 
ATOM      6  C   UNL     1      35.321 -21.690 -19.509  0.00  0.00    +0.005 C 
ATOM      7  C   UNL     1      32.939 -21.291 -19.593  0.00  0.00    +0.005 C 
ATOM      8  C   UNL     1      34.453 -19.821 -20.771  0.00  0.00    -0.000 C 
ATOM      9  C   UNL     1      35.536 -20.577 -20.322  0.00  0.00    +0.000 C 
ATOM     10  C   UNL     1      33.154 -20.179 -20.406  0.00  0.00    +0.000 C 
BRANCH   8  11
ATOM     11  C   UNL     1      34.677 -18.667 -21.614  0.00  0.00    -0.000 C 
ATOM     12  C   UNL     1      34.526 -17.382 -21.094  0.00  0.00    -0.006 C 
ATOM     13  C   UNL     1      34.743 -16.271 -21.908  0.00  0.00    -0.044 C 
ATOM     14  C   UNL     1      35.045 -18.841 -22.949  0.00  0.00    -0.000 C 
ATOM     15  C   UNL     1      35.110 -16.444 -23.242  0.00  0.00    -0.006 C 
ATOM     16  C   UNL     1      35.262 -17.730 -23.763  0.00  0.00    -0.000 C 
BRANCH  13  17
ATOM     17  C   UNL     1      34.583 -14.896 -21.351  0.00  0.00    -0.059 C 
BRANCH  17  18
ATOM     18  N   UNL     1      34.578 -13.869 -22.394  0.00  0.00    +0.383 N 
ATOM     19  H   UNL     1      33.859 -13.176 -22.186  0.00  0.00    -0.089 HD
ATOM     20  H   UNL     1      34.383 -14.301 -23.297  0.00  0.00    -0.089 HD
ATOM     21  H   UNL     1      35.491 -13.414 -22.426  0.00  0.00    -0.089 HD
ENDBRANCH  17  18
ENDBRANCH  13  17
ENDBRANCH   8  11
ENDBRANCH   3   5
BRANCH   2  22
ATOM     22  C   UNL     1      33.446 -24.024 -15.954  0.00  0.00    +0.083 C 
ATOM     23  C   UNL     1      32.104 -23.835 -15.249  0.00  0.00    +0.022 C 
BRANCH  22  24
ATOM     24  C   UNL     1      34.620 -24.146 -14.957  0.00  0.00    +0.121 C 
BRANCH  24  26
ATOM     25  O   UNL     1      35.787 -22.072 -14.428  0.00  0.00    -0.250 OA
ATOM     26  C   UNL     1      35.645 -23.036 -15.169  0.00  0.00    +0.319 C 
BRANCH  26  27
ATOM     27  O   UNL     1      36.366 -23.288 -16.300  0.00  0.00    -0.444 OA
ATOM     28  C   UNL     1      37.448 -22.385 -16.554  0.00  0.00    +0.256 C 
ENDBRANCH  26  27
ENDBRANCH  24  26
BRANCH  24  29
ATOM     29  C   UNL     1      35.311 -25.522 -15.041  0.00  0.00    +0.039 C 
BRANCH  29  30
ATOM     30  C   UNL     1      36.501 -25.639 -14.117  0.00  0.00    -0.021 C 
ATOM     31  C   UNL     1      37.750 -25.985 -14.629  0.00  0.00    -0.002 C 
ATOM     32  C   UNL     1      36.348 -25.402 -12.751  0.00  0.00    -0.004 C 
ATOM     33  C   UNL     1      38.849 -26.095 -13.776  0.00  0.00    +0.030 C 
ATOM     34  C   UNL     1      37.446 -25.511 -11.897  0.00  0.00    -0.000 C 
ATOM     35  C   UNL     1      38.696 -25.858 -12.408  0.00  0.00    +0.003 C 
BRANCH  33  38
ATOM     36  N   UNL     1      41.090 -27.136 -13.533  0.00  0.00    -0.343 N 
ATOM     37  N   UNL     1      40.466 -26.139 -15.552  0.00  0.00    -0.285 NA
ATOM     38  C   UNL     1      40.152 -26.457 -14.309  0.00  0.00    +0.117 C 
ATOM     39  H   UNL     1      41.966 -27.371 -13.913  0.00  0.00    +0.144 HD
ATOM     40  H   UNL     1      40.876 -27.379 -12.602  0.00  0.00    +0.144 HD
ATOM     41  H   UNL     1      41.348 -26.384 -15.915  0.00  0.00    +0.188 HD
ENDBRANCH  33  38
ENDBRANCH  29  30
ENDBRANCH  24  29
ENDBRANCH  22  24
ENDBRANCH   2  22
TORSDOF 11
ENDMDL
MODEL 2
REMARK VINA RESULT:     -11.1      2.293      3.615
REMARK  Name = 5497056
REMARK  11 active torsions:
REMARK  status: ('A' for Active; 'I' for Inactive)
REMARK    1  A    between atoms: N_2  and  C_22
REMARK    2  A    between atoms: C_3  and  C_5
REMARK    3  A    between atoms: C_8  and  C_11
REMARK    4  A    between atoms: C_13  and  C_17
REMARK    5  A    between atoms: C_17  and  N_18
REMARK    6  A    between atoms: C_22  and  C_24
REMARK    7  A    between atoms: C_24  and  C_26
REMARK    8  A    between atoms: C_24  and  C_29
REMARK    9  A    between atoms: C_26  and  O_27
REMARK   10  A    between atoms: C_29  and  C_30
REMARK   11  A    between atoms: C_33  and  C_38
REMARK                            x       y       z     vdW  Elec       q    Type
REMARK                         _______ _______ _______ _____ _____    ______ ____
ROOT
ATOM      1  O   UNL     1      33.064 -24.696 -17.418  0.00  0.00    -0.270 OA
ATOM      2  N   UNL     1      31.802 -22.932 -16.599  0.00  0.00    -0.302 N 
ATOM      3  C   UNL     1      32.760 -23.507 -17.420  0.00  0.00    +0.246 C 
ATOM      4  H   UNL     1      31.630 -21.966 -16.676  0.00  0.00    +0.150 HD
ENDROOT
BRANCH   3   5
ATOM      5  C   UNL     1      33.467 -22.578 -18.338  0.00  0.00    +0.053 C 
ATOM      6  C   UNL     1      32.740 -21.676 -19.114  0.00  0.00    +0.005 C 
ATOM      7  C   UNL     1      34.860 -22.608 -18.425  0.00  0.00    +0.005 C 
ATOM      8  C   UNL     1      34.796 -20.833 -20.063  0.00  0.00    -0.000 C 
ATOM      9  C   UNL     1      33.404 -20.804 -19.977  0.00  0.00    +0.000 C 
ATOM     10  C   UNL     1      35.524 -21.736 -19.287  0.00  0.00    +0.000 C 
BRANCH   8  11
ATOM     11  C   UNL     1      35.484 -19.927 -20.958  0.00  0.00    -0.000 C 
ATOM     12  C   UNL     1      34.798 -19.345 -22.024  0.00  0.00    -0.006 C 
ATOM     13  C   UNL     1      35.462 -18.472 -22.885  0.00  0.00    -0.044 C 
ATOM     14  C   UNL     1      36.832 -19.636 -20.752  0.00  0.00    -0.000 C 
ATOM     15  C   UNL     1      36.811 -18.181 -22.681  0.00  0.00    -0.006 C 
ATOM     16  C   UNL     1      37.496 -18.763 -21.614  0.00  0.00    -0.000 C 
BRANCH  13  17
ATOM     17  C   UNL     1      34.730 -17.849 -24.025  0.00  0.00    -0.059 C 
BRANCH  17  18
ATOM     18  N   UNL     1      35.234 -16.513 -24.349  0.00  0.00    +0.383 N 
ATOM     19  H   UNL     1      35.738 -16.546 -25.235  0.00  0.00    -0.089 HD
ATOM     20  H   UNL     1      35.864 -16.198 -23.611  0.00  0.00    -0.089 HD
ATOM     21  H   UNL     1      34.451 -15.864 -24.427  0.00  0.00    -0.089 HD
ENDBRANCH  17  18
ENDBRANCH  13  17
ENDBRANCH   8  11
ENDBRANCH   3   5
BRANCH   2  22
ATOM     22  C   UNL     1      31.047 -23.699 -15.635  0.00  0.00    +0.083 C 
ATOM     23  C   UNL     1      30.095 -22.784 -14.866  0.00  0.00    +0.022 C 
BRANCH  22  24
ATOM     24  C   UNL     1      31.951 -24.528 -14.696  0.00  0.00    +0.121 C 
BRANCH  24  26
ATOM     25  O   UNL     1      31.171 -25.195 -12.486  0.00  0.00    -0.250 OA
ATOM     26  C   UNL     1      31.125 -25.336 -13.701  0.00  0.00    +0.319 C 
BRANCH  26  27
ATOM     27  O   UNL     1      30.340 -26.227 -14.373  0.00  0.00    -0.444 OA
ATOM     28  C   UNL     1      28.928 -26.039 -14.224  0.00  0.00    +0.256 C 
ENDBRANCH  26  27
ENDBRANCH  24  26
BRANCH  24  29
ATOM     29  C   UNL     1      32.966 -23.645 -13.942  0.00  0.00    +0.039 C 
BRANCH  29  30
ATOM     30  C   UNL     1      34.396 -23.920 -14.345  0.00  0.00    -0.021 C 
ATOM     31  C   UNL     1      34.891 -25.223 -14.315  0.00  0.00    -0.002 C 
ATOM     32  C   UNL     1      35.222 -22.870 -14.747  0.00  0.00    -0.004 C 
ATOM     33  C   UNL     1      36.211 -25.478 -14.685  0.00  0.00    +0.030 C 
ATOM     34  C   UNL     1      36.543 -23.124 -15.117  0.00  0.00    -0.000 C 
ATOM     35  C   UNL     1      37.038 -24.427 -15.087  0.00  0.00    +0.003 C 
BRANCH  33  38
ATOM     36  N   UNL     1      37.152 -27.422 -13.460  0.00  0.00    -0.343 N 
ATOM     37  N   UNL     1      36.805 -27.539 -15.768  0.00  0.00    -0.285 NA
ATOM     38  C   UNL     1      36.728 -26.836 -14.652  0.00  0.00    +0.117 C 
ATOM     39  H   UNL     1      37.500 -28.343 -13.461  0.00  0.00    +0.144 HD
ATOM     40  H   UNL     1      37.106 -26.913 -12.618  0.00  0.00    +0.144 HD
ATOM     41  H   UNL     1      37.155 -28.459 -15.748  0.00  0.00    +0.188 HD
ENDBRANCH  33  38
ENDBRANCH  29  30
ENDBRANCH  24  29
ENDBRANCH  22  24
ENDBRANCH   2  22
TORSDOF 11
ENDMDL
MODEL 3
REMARK VINA RESULT:     -10.9      6.425     14.572
REMARK  Name = 5497056
REMARK  11 active torsions:
REMARK  status: ('A' for Active; 'I' for Inactive)
REMARK    1  A    between atoms: N_2  and  C_22
REMARK    2  A    between atoms: C_3  and  C_5
REMARK    3  A    between atoms: C_8  and  C_11
REMARK    4  A    between atoms: C_13  and  C_17
REMARK    5  A    between atoms: C_17  and  N_18
REMARK    6  A    between atoms: C_22  and  C_24
REMARK    7  A    between atoms: C_24  and  C_26
REMARK    8  A    between atoms: C_24  and  C_29
REMARK    9  A    between atoms: C_26  and  O_27
REMARK   10  A    between atoms: C_29  and  C_30
REMARK   11  A    between atoms: C_33  and  C_38
REMARK                            x       y       z     vdW  Elec       q    Type
REMARK                         _______ _______ _______ _____ _____    ______ ____
ROOT
ATOM      1  O   UNL     1      33.382 -14.074 -24.983  0.00  0.00    -0.270 OA
ATOM      2  N   UNL     1      33.889 -12.838 -23.088  0.00  0.00    -0.302 N 
ATOM      3  C   UNL     1      33.799 -14.006 -23.831  0.00  0.00    +0.246 C 
ATOM      4  H   UNL     1      34.238 -12.887 -22.168  0.00  0.00    +0.150 HD
ENDROOT
BRANCH   3   5
ATOM      5  C   UNL     1      34.223 -15.249 -23.138  0.00  0.00    +0.053 C 
ATOM      6  C   UNL     1      34.188 -15.318 -21.745  0.00  0.00    +0.005 C 
ATOM      7  C   UNL     1      34.657 -16.349 -23.879  0.00  0.00    +0.005 C 
ATOM      8  C   UNL     1      35.020 -17.585 -21.835  0.00  0.00    -0.000 C 
ATOM      9  C   UNL     1      34.587 -16.485 -21.094  0.00  0.00    +0.000 C 
ATOM     10  C   UNL     1      35.055 -17.516 -23.228  0.00  0.00    +0.000 C 
BRANCH   8  11
ATOM     11  C   UNL     1      35.431 -18.796 -21.158  0.00  0.00    -0.000 C 
ATOM     12  C   UNL     1      34.477 -19.731 -20.761  0.00  0.00    -0.006 C 
ATOM     13  C   UNL     1      34.875 -20.898 -20.108  0.00  0.00    -0.044 C 
ATOM     14  C   UNL     1      36.784 -19.026 -20.904  0.00  0.00    -0.000 C 
ATOM     15  C   UNL     1      36.227 -21.129 -19.854  0.00  0.00    -0.006 C 
ATOM     16  C   UNL     1      37.182 -20.193 -20.252  0.00  0.00    -0.000 C 
BRANCH  13  17
ATOM     17  C   UNL     1      33.855 -21.900 -19.684  0.00  0.00    -0.059 C 
BRANCH  17  18
ATOM     18  N   UNL     1      32.662 -21.274 -19.112  0.00  0.00    +0.383 N 
ATOM     19  H   UNL     1      32.728 -20.261 -19.213  0.00  0.00    -0.089 HD
ATOM     20  H   UNL     1      32.592 -21.513 -18.123  0.00  0.00    -0.089 HD
ATOM     21  H   UNL     1      31.834 -21.612 -19.602  0.00  0.00    -0.089 HD
ENDBRANCH  17  18
ENDBRANCH  13  17
ENDBRANCH   8  11
ENDBRANCH   3   5
BRANCH   2  22
ATOM     22  C   UNL     1      33.491 -11.553 -23.613  0.00  0.00    +0.083 C 
ATOM     23  C   UNL     1      34.684 -10.862 -24.272  0.00  0.00    +0.022 C 
BRANCH  22  24
ATOM     24  C   UNL     1      32.810 -10.662 -22.550  0.00  0.00    +0.121 C 
BRANCH  24  26
ATOM     25  O   UNL     1      30.646 -11.508 -21.814  0.00  0.00    -0.250 OA
ATOM     26  C   UNL     1      31.862 -11.473 -21.673  0.00  0.00    +0.319 C 
BRANCH  26  27
ATOM     27  O   UNL     1      32.575 -12.140 -20.720  0.00  0.00    -0.444 OA
ATOM     28  C   UNL     1      31.858 -13.158 -20.013  0.00  0.00    +0.256 C 
ENDBRANCH  26  27
ENDBRANCH  24  26
BRANCH  24  29
ATOM     29  C   UNL     1      32.054  -9.478 -23.186  0.00  0.00    +0.039 C 
BRANCH  29  30
ATOM     30  C   UNL     1      32.064  -8.242 -22.317  0.00  0.00    -0.021 C 
ATOM     31  C   UNL     1      31.510  -7.053 -22.789  0.00  0.00    -0.002 C 
ATOM     32  C   UNL     1      32.630  -8.290 -21.043  0.00  0.00    -0.004 C 
ATOM     33  C   UNL     1      31.521  -5.911 -21.988  0.00  0.00    +0.030 C 
ATOM     34  C   UNL     1      32.641  -7.148 -20.241  0.00  0.00    -0.000 C 
ATOM     35  C   UNL     1      32.087  -5.958 -20.713  0.00  0.00    +0.003 C 
BRANCH  33  38
ATOM     36  N   UNL     1      31.320  -4.134 -23.710  0.00  0.00    -0.343 N 
ATOM     37  N   UNL     1      30.047  -4.028 -21.754  0.00  0.00    -0.285 NA
ATOM     38  C   UNL     1      30.944  -4.670 -22.480  0.00  0.00    +0.117 C 
ATOM     39  H   UNL     1      30.918  -3.292 -24.024  0.00  0.00    +0.144 HD
ATOM     40  H   UNL     1      31.991  -4.596 -24.265  0.00  0.00    +0.144 HD
ATOM     41  H   UNL     1      29.655  -3.188 -22.086  0.00  0.00    +0.188 HD
ENDBRANCH  33  38
ENDBRANCH  29  30
ENDBRANCH  24  29
ENDBRANCH  22  24
ENDBRANCH   2  22
TORSDOF 11
ENDMDL
MODEL 4
REMARK VINA RESULT:     -10.8      1.543      2.606
REMARK  Name = 5497056
REMARK  11 active torsions:
REMARK  status: ('A' for Active; 'I' for Inactive)
REMARK    1  A    between atoms: N_2  and  C_22
REMARK    2  A    between atoms: C_3  and  C_5
REMARK    3  A    between atoms: C_8  and  C_11
REMARK    4  A    between atoms: C_13  and  C_17
REMARK    5  A    between atoms: C_17  and  N_18
REMARK    6  A    between atoms: C_22  and  C_24
REMARK    7  A    between atoms: C_24  and  C_26
REMARK    8  A    between atoms: C_24  and  C_29
REMARK    9  A    between atoms: C_26  and  O_27
REMARK   10  A    between atoms: C_29  and  C_30
REMARK   11  A    between atoms: C_33  and  C_38
REMARK                            x       y       z     vdW  Elec       q    Type
REMARK                         _______ _______ _______ _____ _____    ______ ____
ROOT
ATOM      1  O   UNL     1      33.660 -24.536 -18.120  0.00  0.00    -0.270 OA
ATOM      2  N   UNL     1      32.869 -22.975 -16.598  0.00  0.00    -0.302 N 
ATOM      3  C   UNL     1      33.413 -23.374 -17.809  0.00  0.00    +0.246 C 
ATOM      4  H   UNL     1      32.709 -22.016 -16.444  0.00  0.00    +0.150 HD
ENDROOT
BRANCH   3   5
ATOM      5  C   UNL     1      33.733 -22.284 -18.767  0.00  0.00    +0.053 C 
ATOM      6  C   UNL     1      32.707 -21.513 -19.313  0.00  0.00    +0.005 C 
ATOM      7  C   UNL     1      35.059 -22.031 -19.120  0.00  0.00    +0.005 C 
ATOM      8  C   UNL     1      34.332 -20.236 -20.565  0.00  0.00    -0.000 C 
ATOM      9  C   UNL     1      33.007 -20.490 -20.212  0.00  0.00    +0.000 C 
ATOM     10  C   UNL     1      35.358 -21.007 -20.018  0.00  0.00    +0.000 C 
BRANCH   8  11
ATOM     11  C   UNL     1      34.642 -19.173 -21.497  0.00  0.00    -0.000 C 
ATOM     12  C   UNL     1      34.586 -17.843 -21.081  0.00  0.00    -0.006 C 
ATOM     13  C   UNL     1      34.884 -16.820 -21.980  0.00  0.00    -0.044 C 
ATOM     14  C   UNL     1      34.996 -19.481 -22.810  0.00  0.00    -0.000 C 
ATOM     15  C   UNL     1      35.238 -17.126 -23.294  0.00  0.00    -0.006 C 
ATOM     16  C   UNL     1      35.295 -18.457 -23.709  0.00  0.00    -0.000 C 
BRANCH  13  17
ATOM     17  C   UNL     1      34.826 -15.397 -21.537  0.00  0.00    -0.059 C 
BRANCH  17  18
ATOM     18  N   UNL     1      33.965 -15.212 -20.367  0.00  0.00    +0.383 N 
ATOM     19  H   UNL     1      34.505 -15.379 -19.518  0.00  0.00    -0.089 HD
ATOM     20  H   UNL     1      33.187 -15.870 -20.409  0.00  0.00    -0.089 HD
ATOM     21  H   UNL     1      33.604 -14.258 -20.359  0.00  0.00    -0.089 HD
ENDBRANCH  17  18
ENDBRANCH  13  17
ENDBRANCH   8  11
ENDBRANCH   3   5
BRANCH   2  22
ATOM     22  C   UNL     1      32.529 -23.914 -15.555  0.00  0.00    +0.083 C 
ATOM     23  C   UNL     1      31.325 -23.406 -14.763  0.00  0.00    +0.022 C 
BRANCH  22  24
ATOM     24  C   UNL     1      33.731 -24.252 -14.644  0.00  0.00    +0.121 C 
BRANCH  24  26
ATOM     25  O   UNL     1      32.433 -25.699 -13.175  0.00  0.00    -0.250 OA
ATOM     26  C   UNL     1      33.270 -24.816 -13.304  0.00  0.00    +0.319 C 
BRANCH  26  27
ATOM     27  O   UNL     1      33.930 -24.185 -12.290  0.00  0.00    -0.444 OA
ATOM     28  C   UNL     1      34.915 -24.974 -11.613  0.00  0.00    +0.256 C 
ENDBRANCH  26  27
ENDBRANCH  24  26
BRANCH  24  29
ATOM     29  C   UNL     1      34.643 -23.030 -14.414  0.00  0.00    +0.039 C 
BRANCH  29  30
ATOM     30  C   UNL     1      36.058 -23.256 -14.897  0.00  0.00    -0.021 C 
ATOM     31  C   UNL     1      36.785 -24.352 -14.434  0.00  0.00    -0.002 C 
ATOM     32  C   UNL     1      36.636 -22.367 -15.802  0.00  0.00    -0.004 C 
ATOM     33  C   UNL     1      38.091 -24.561 -14.878  0.00  0.00    +0.030 C 
ATOM     34  C   UNL     1      37.943 -22.575 -16.245  0.00  0.00    -0.000 C 
ATOM     35  C   UNL     1      38.671 -23.671 -15.784  0.00  0.00    +0.003 C 
BRANCH  33  38
ATOM     36  N   UNL     1      38.492 -26.370 -13.225  0.00  0.00    -0.343 N 
ATOM     37  N   UNL     1      39.905 -26.125 -15.070  0.00  0.00    -0.285 NA
ATOM     38  C   UNL     1      38.850 -25.703 -14.395  0.00  0.00    +0.117 C 
ATOM     39  H   UNL     1      39.021 -27.140 -12.915  0.00  0.00    +0.144 HD
ATOM     40  H   UNL     1      37.711 -26.068 -12.705  0.00  0.00    +0.144 HD
ATOM     41  H   UNL     1      40.420 -26.898 -14.745  0.00  0.00    +0.188 HD
ENDBRANCH  33  38
ENDBRANCH  29  30
ENDBRANCH  24  29
ENDBRANCH  22  24
ENDBRANCH   2  22
TORSDOF 11
ENDMDL
MODEL 5
REMARK VINA RESULT:     -10.7      3.893     11.111
REMARK  Name = 5497056
REMARK  11 active torsions:
REMARK  status: ('A' for Active; 'I' for Inactive)
REMARK    1  A    between atoms: N_2  and  C_22
REMARK    2  A    between atoms: C_3  and  C_5
REMARK    3  A    between atoms: C_8  and  C_11
REMARK    4  A    between atoms: C_13  and  C_17
REMARK    5  A    between atoms: C_17  and  N_18
REMARK    6  A    between atoms: C_22  and  C_24
REMARK    7  A    between atoms: C_24  and  C_26
REMARK    8  A    between atoms: C_24  and  C_29
REMARK    9  A    between atoms: C_26  and  O_27
REMARK   10  A    between atoms: C_29  and  C_30
REMARK   11  A    between atoms: C_33  and  C_38
REMARK                            x       y       z     vdW  Elec       q    Type
REMARK                         _______ _______ _______ _____ _____    ______ ____
ROOT
ATOM      1  O   UNL     1      36.847 -21.888 -20.229  0.00  0.00    -0.270 OA
ATOM      2  N   UNL     1      35.285 -20.176 -20.293  0.00  0.00    -0.302 N 
ATOM      3  C   UNL     1      35.825 -21.356 -19.805  0.00  0.00    +0.246 C 
ATOM      4  H   UNL     1      34.458 -19.829 -19.885  0.00  0.00    +0.150 HD
ENDROOT
BRANCH   3   5
ATOM      5  C   UNL     1      35.068 -22.009 -18.706  0.00  0.00    +0.053 C 
ATOM      6  C   UNL     1      35.735 -22.428 -17.554  0.00  0.00    +0.005 C 
ATOM      7  C   UNL     1      33.692 -22.203 -18.825  0.00  0.00    +0.005 C 
ATOM      8  C   UNL     1      33.648 -23.235 -16.641  0.00  0.00    -0.000 C 
ATOM      9  C   UNL     1      35.024 -23.042 -16.522  0.00  0.00    +0.000 C 
ATOM     10  C   UNL     1      32.982 -22.816 -17.792  0.00  0.00    +0.000 C 
BRANCH   8  11
ATOM     11  C   UNL     1      32.913 -23.870 -15.568  0.00  0.00    -0.000 C 
ATOM     12  C   UNL     1      31.535 -24.056 -15.681  0.00  0.00    -0.006 C 
ATOM     13  C   UNL     1      30.828 -24.668 -14.647  0.00  0.00    -0.044 C 
ATOM     14  C   UNL     1      33.583 -24.297 -14.422  0.00  0.00    -0.000 C 
ATOM     15  C   UNL     1      31.498 -25.095 -13.500  0.00  0.00    -0.006 C 
ATOM     16  C   UNL     1      32.876 -24.910 -13.388  0.00  0.00    -0.000 C 
BRANCH  13  17
ATOM     17  C   UNL     1      29.355 -24.868 -14.768  0.00  0.00    -0.059 C 
BRANCH  17  18
ATOM     18  N   UNL     1      28.870 -25.969 -13.934  0.00  0.00    +0.383 N 
ATOM     19  H   UNL     1      28.191 -25.613 -13.262  0.00  0.00    -0.089 HD
ATOM     20  H   UNL     1      29.655 -26.389 -13.435  0.00  0.00    -0.089 HD
ATOM     21  H   UNL     1      28.428 -26.673 -14.526  0.00  0.00    -0.089 HD
ENDBRANCH  17  18
ENDBRANCH  13  17
ENDBRANCH   8  11
ENDBRANCH   3   5
BRANCH   2  22
ATOM     22  C   UNL     1      35.890 -19.436 -21.376  0.00  0.00    +0.083 C 
ATOM     23  C   UNL     1      37.259 -18.908 -20.952  0.00  0.00    +0.022 C 
BRANCH  22  24
ATOM     24  C   UNL     1      34.971 -18.319 -21.918  0.00  0.00    +0.121 C 
BRANCH  24  26
ATOM     25  O   UNL     1      34.236 -19.412 -23.969  0.00  0.00    -0.250 OA
ATOM     26  C   UNL     1      34.765 -18.451 -23.424  0.00  0.00    +0.319 C 
BRANCH  26  27
ATOM     27  O   UNL     1      35.258 -17.346 -24.054  0.00  0.00    -0.444 OA
ATOM     28  C   UNL     1      34.411 -16.783 -25.062  0.00  0.00    +0.256 C 
ENDBRANCH  26  27
ENDBRANCH  24  26
BRANCH  24  29
ATOM     29  C   UNL     1      35.510 -16.913 -21.584  0.00  0.00    +0.039 C 
BRANCH  29  30
ATOM     30  C   UNL     1      34.412 -15.923 -21.270  0.00  0.00    -0.021 C 
ATOM     31  C   UNL     1      34.266 -14.775 -22.046  0.00  0.00    -0.002 C 
ATOM     32  C   UNL     1      33.546 -16.158 -20.202  0.00  0.00    -0.004 C 
ATOM     33  C   UNL     1      33.254 -13.860 -21.756  0.00  0.00    +0.030 C 
ATOM     34  C   UNL     1      32.533 -15.243 -19.911  0.00  0.00    -0.000 C 
ATOM     35  C   UNL     1      32.387 -14.094 -20.688  0.00  0.00    +0.003 C 
BRANCH  33  38
ATOM     36  N   UNL     1      33.838 -12.477 -23.734  0.00  0.00    -0.343 N 
ATOM     37  N   UNL     1      32.255 -11.718 -22.192  0.00  0.00    -0.285 NA
ATOM     38  C   UNL     1      33.102 -12.661 -22.565  0.00  0.00    +0.117 C 
ATOM     39  H   UNL     1      33.720 -11.656 -24.266  0.00  0.00    +0.144 HD
ATOM     40  H   UNL     1      34.477 -13.166 -24.027  0.00  0.00    +0.144 HD
ATOM     41  H   UNL     1      32.151 -10.906 -22.737  0.00  0.00    +0.188 HD
ENDBRANCH  33  38
ENDBRANCH  29  30
ENDBRANCH  24  29
ENDBRANCH  22  24
ENDBRANCH   2  22
TORSDOF 11
ENDMDL
MODEL 6
REMARK VINA RESULT:     -10.7      6.608     14.844
REMARK  Name = 5497056
REMARK  11 active torsions:
REMARK  status: ('A' for Active; 'I' for Inactive)
REMARK    1  A    between atoms: N_2  and  C_22
REMARK    2  A    between atoms: C_3  and  C_5
REMARK    3  A    between atoms: C_8  and  C_11
REMARK    4  A    between atoms: C_13  and  C_17
REMARK    5  A    between atoms: C_17  and  N_18
REMARK    6  A    between atoms: C_22  and  C_24
REMARK    7  A    between atoms: C_24  and  C_26
REMARK    8  A    between atoms: C_24  and  C_29
REMARK    9  A    between atoms: C_26  and  O_27
REMARK   10  A    between atoms: C_29  and  C_30
REMARK   11  A    between atoms: C_33  and  C_38
REMARK                            x       y       z     vdW  Elec       q    Type
REMARK                         _______ _______ _______ _____ _____    ______ ____
ROOT
ATOM      1  O   UNL     1      33.618 -13.426 -24.896  0.00  0.00    -0.270 OA
ATOM      2  N   UNL     1      33.628 -12.410 -22.812  0.00  0.00    -0.302 N 
ATOM      3  C   UNL     1      33.803 -13.474 -23.684  0.00  0.00    +0.246 C 
ATOM      4  H   UNL     1      33.802 -12.549 -21.853  0.00  0.00    +0.150 HD
ENDROOT
BRANCH   3   5
ATOM      5  C   UNL     1      34.221 -14.757 -23.063  0.00  0.00    +0.053 C 
ATOM      6  C   UNL     1      34.618 -15.824 -23.869  0.00  0.00    +0.005 C 
ATOM      7  C   UNL     1      34.217 -14.896 -21.675  0.00  0.00    +0.005 C 
ATOM      8  C   UNL     1      35.007 -17.168 -21.899  0.00  0.00    -0.000 C 
ATOM      9  C   UNL     1      35.010 -17.030 -23.286  0.00  0.00    +0.000 C 
ATOM     10  C   UNL     1      34.610 -16.100 -21.093  0.00  0.00    +0.000 C 
BRANCH   8  11
ATOM     11  C   UNL     1      35.416 -18.418 -21.296  0.00  0.00    -0.000 C 
ATOM     12  C   UNL     1      34.455 -19.326 -20.854  0.00  0.00    -0.006 C 
ATOM     13  C   UNL     1      34.850 -20.532 -20.273  0.00  0.00    -0.044 C 
ATOM     14  C   UNL     1      36.772 -18.714 -21.159  0.00  0.00    -0.000 C 
ATOM     15  C   UNL     1      36.206 -20.828 -20.135  0.00  0.00    -0.006 C 
ATOM     16  C   UNL     1      37.167 -19.920 -20.578  0.00  0.00    -0.000 C 
BRANCH  13  17
ATOM     17  C   UNL     1      33.822 -21.504 -19.800  0.00  0.00    -0.059 C 
BRANCH  17  18
ATOM     18  N   UNL     1      32.505 -20.888 -19.637  0.00  0.00    +0.383 N 
ATOM     19  H   UNL     1      32.505 -20.302 -18.802  0.00  0.00    -0.089 HD
ATOM     20  H   UNL     1      31.797 -21.616 -19.541  0.00  0.00    -0.089 HD
ATOM     21  H   UNL     1      32.294 -20.315 -20.455  0.00  0.00    -0.089 HD
ENDBRANCH  17  18
ENDBRANCH  13  17
ENDBRANCH   8  11
ENDBRANCH   3   5
BRANCH   2  22
ATOM     22  C   UNL     1      33.200 -11.105 -23.259  0.00  0.00    +0.083 C 
ATOM     23  C   UNL     1      34.395 -10.309 -23.780  0.00  0.00    +0.022 C 
BRANCH  22  24
ATOM     24  C   UNL     1      32.409 -10.336 -22.177  0.00  0.00    +0.121 C 
BRANCH  24  26
ATOM     25  O   UNL     1      31.179 -12.328 -21.501  0.00  0.00    -0.250 OA
ATOM     26  C   UNL     1      31.750 -11.292 -21.188  0.00  0.00    +0.319 C 
BRANCH  26  27
ATOM     27  O   UNL     1      31.896 -10.812 -19.918  0.00  0.00    -0.444 OA
ATOM     28  C   UNL     1      30.940 -11.288 -18.966  0.00  0.00    +0.256 C 
ENDBRANCH  26  27
ENDBRANCH  24  26
BRANCH  24  29
ATOM     29  C   UNL     1      31.347  -9.401 -22.791  0.00  0.00    +0.039 C 
BRANCH  29  30
ATOM     30  C   UNL     1      31.674  -7.938 -22.600  0.00  0.00    -0.021 C 
ATOM     31  C   UNL     1      31.960  -7.138 -23.705  0.00  0.00    -0.002 C 
ATOM     32  C   UNL     1      31.692  -7.389 -21.318  0.00  0.00    -0.004 C 
ATOM     33  C   UNL     1      32.264  -5.787 -23.529  0.00  0.00    +0.030 C 
ATOM     34  C   UNL     1      31.996  -6.038 -21.142  0.00  0.00    -0.000 C 
ATOM     35  C   UNL     1      32.282  -5.237 -22.247  0.00  0.00    +0.003 C 
BRANCH  33  38
ATOM     36  N   UNL     1      32.146  -3.624 -24.743  0.00  0.00    -0.343 N 
ATOM     37  N   UNL     1      33.243  -5.453 -25.698  0.00  0.00    -0.285 NA
ATOM     38  C   UNL     1      32.564  -4.953 -24.681  0.00  0.00    +0.117 C 
ATOM     39  H   UNL     1      32.359  -3.077 -25.533  0.00  0.00    +0.144 HD
ATOM     40  H   UNL     1      31.635  -3.233 -23.997  0.00  0.00    +0.144 HD
ATOM     41  H   UNL     1      33.447  -4.889 -26.479  0.00  0.00    +0.188 HD
ENDBRANCH  33  38
ENDBRANCH  29  30
ENDBRANCH  24  29
ENDBRANCH  22  24
ENDBRANCH   2  22
TORSDOF 11
ENDMDL
MODEL 7
REMARK VINA RESULT:     -10.5      1.833      2.261
REMARK  Name = 5497056
REMARK  11 active torsions:
REMARK  status: ('A' for Active; 'I' for Inactive)
REMARK    1  A    between atoms: N_2  and  C_22
REMARK    2  A    between atoms: C_3  and  C_5
REMARK    3  A    between atoms: C_8  and  C_11
REMARK    4  A    between atoms: C_13  and  C_17
REMARK    5  A    between atoms: C_17  and  N_18
REMARK    6  A    between atoms: C_22  and  C_24
REMARK    7  A    between atoms: C_24  and  C_26
REMARK    8  A    between atoms: C_24  and  C_29
REMARK    9  A    between atoms: C_26  and  O_27
REMARK   10  A    between atoms: C_29  and  C_30
REMARK   11  A    between atoms: C_33  and  C_38
REMARK                            x       y       z     vdW  Elec       q    Type
REMARK                         _______ _______ _______ _____ _____    ______ ____
ROOT
ATOM      1  O   UNL     1      33.839 -24.142 -19.217  0.00  0.00    -0.270 OA
ATOM      2  N   UNL     1      33.696 -22.837 -17.305  0.00  0.00    -0.302 N 
ATOM      3  C   UNL     1      33.850 -23.044 -18.668  0.00  0.00    +0.246 C 
ATOM      4  H   UNL     1      33.720 -21.915 -16.960  0.00  0.00    +0.150 HD
ENDROOT
BRANCH   3   5
ATOM      5  C   UNL     1      34.067 -21.825 -19.488  0.00  0.00    +0.053 C 
ATOM      6  C   UNL     1      35.357 -21.473 -19.886  0.00  0.00    +0.005 C 
ATOM      7  C   UNL     1      32.982 -21.031 -19.860  0.00  0.00    +0.005 C 
ATOM      8  C   UNL     1      34.477 -19.535 -21.029  0.00  0.00    -0.000 C 
ATOM      9  C   UNL     1      35.562 -20.328 -20.656  0.00  0.00    +0.000 C 
ATOM     10  C   UNL     1      33.187 -19.887 -20.631  0.00  0.00    +0.000 C 
BRANCH   8  11
ATOM     11  C   UNL     1      34.690 -18.348 -21.829  0.00  0.00    -0.000 C 
ATOM     12  C   UNL     1      34.489 -17.086 -21.272  0.00  0.00    -0.006 C 
ATOM     13  C   UNL     1      34.696 -15.943 -22.044  0.00  0.00    -0.044 C 
ATOM     14  C   UNL     1      35.098 -18.469 -23.158  0.00  0.00    -0.000 C 
ATOM     15  C   UNL     1      35.102 -16.062 -23.373  0.00  0.00    -0.006 C 
ATOM     16  C   UNL     1      35.304 -17.325 -23.930  0.00  0.00    -0.000 C 
BRANCH  13  17
ATOM     17  C   UNL     1      34.482 -14.592 -21.448  0.00  0.00    -0.059 C 
BRANCH  17  18
ATOM     18  N   UNL     1      33.963 -14.661 -20.081  0.00  0.00    +0.383 N 
ATOM     19  H   UNL     1      34.165 -15.580 -19.687  0.00  0.00    -0.089 HD
ATOM     20  H   UNL     1      32.954 -14.510 -20.091  0.00  0.00    -0.089 HD
ATOM     21  H   UNL     1      34.408 -13.941 -19.512  0.00  0.00    -0.089 HD
ENDBRANCH  17  18
ENDBRANCH  13  17
ENDBRANCH   8  11
ENDBRANCH   3   5
BRANCH   2  22
ATOM     22  C   UNL     1      33.502 -23.924 -16.374  0.00  0.00    +0.083 C 
ATOM     23  C   UNL     1      32.115 -23.830 -15.739  0.00  0.00    +0.022 C 
BRANCH  22  24
ATOM     24  C   UNL     1      34.627 -24.009 -15.318  0.00  0.00    +0.121 C 
BRANCH  24  26
ATOM     25  O   UNL     1      35.757 -21.915 -14.791  0.00  0.00    -0.250 OA
ATOM     26  C   UNL     1      35.655 -22.900 -15.512  0.00  0.00    +0.319 C 
BRANCH  26  27
ATOM     27  O   UNL     1      36.428 -23.176 -16.603  0.00  0.00    -0.444 OA
ATOM     28  C   UNL     1      37.352 -22.149 -16.978  0.00  0.00    +0.256 C 
ENDBRANCH  26  27
ENDBRANCH  24  26
BRANCH  24  29
ATOM     29  C   UNL     1      35.328 -25.383 -15.329  0.00  0.00    +0.039 C 
BRANCH  29  30
ATOM     30  C   UNL     1      36.203 -25.604 -14.117  0.00  0.00    -0.021 C 
ATOM     31  C   UNL     1      35.813 -25.105 -12.875  0.00  0.00    -0.002 C 
ATOM     32  C   UNL     1      37.402 -26.305 -14.242  0.00  0.00    -0.004 C 
ATOM     33  C   UNL     1      36.622 -25.307 -11.756  0.00  0.00    +0.030 C 
ATOM     34  C   UNL     1      38.212 -26.507 -13.123  0.00  0.00    -0.000 C 
ATOM     35  C   UNL     1      37.822 -26.009 -11.881  0.00  0.00    +0.003 C 
BRANCH  33  38
ATOM     36  N   UNL     1      36.766 -23.612  -9.947  0.00  0.00    -0.343 N 
ATOM     37  N   UNL     1      35.311 -25.430  -9.746  0.00  0.00    -0.285 NA
ATOM     38  C   UNL     1      36.216 -24.786 -10.461  0.00  0.00    +0.117 C 
ATOM     39  H   UNL     1      36.478 -23.278  -9.067  0.00  0.00    +0.144 HD
ATOM     40  H   UNL     1      37.445 -23.119 -10.463  0.00  0.00    +0.144 HD
ATOM     41  H   UNL     1      35.035 -25.078  -8.869  0.00  0.00    +0.188 HD
ENDBRANCH  33  38
ENDBRANCH  29  30
ENDBRANCH  24  29
ENDBRANCH  22  24
ENDBRANCH   2  22
TORSDOF 11
ENDMDL
MODEL 8
REMARK VINA RESULT:     -10.4      1.796      2.888
REMARK  Name = 5497056
REMARK  11 active torsions:
REMARK  status: ('A' for Active; 'I' for Inactive)
REMARK    1  A    between atoms: N_2  and  C_22
REMARK    2  A    between atoms: C_3  and  C_5
REMARK    3  A    between atoms: C_8  and  C_11
REMARK    4  A    between atoms: C_13  and  C_17
REMARK    5  A    between atoms: C_17  and  N_18
REMARK    6  A    between atoms: C_22  and  C_24
REMARK    7  A    between atoms: C_24  and  C_26
REMARK    8  A    between atoms: C_24  and  C_29
REMARK    9  A    between atoms: C_26  and  O_27
REMARK   10  A    between atoms: C_29  and  C_30
REMARK   11  A    between atoms: C_33  and  C_38
REMARK                            x       y       z     vdW  Elec       q    Type
REMARK                         _______ _______ _______ _____ _____    ______ ____
ROOT
ATOM      1  O   UNL     1      33.792 -24.352 -18.122  0.00  0.00    -0.270 OA
ATOM      2  N   UNL     1      32.355 -22.943 -16.969  0.00  0.00    -0.302 N 
ATOM      3  C   UNL     1      33.265 -23.254 -17.968  0.00  0.00    +0.246 C 
ATOM      4  H   UNL     1      31.989 -22.030 -16.930  0.00  0.00    +0.150 HD
ENDROOT
BRANCH   3   5
ATOM      5  C   UNL     1      33.625 -22.142 -18.886  0.00  0.00    +0.053 C 
ATOM      6  C   UNL     1      32.628 -21.315 -19.403  0.00  0.00    +0.005 C 
ATOM      7  C   UNL     1      34.959 -21.925 -19.231  0.00  0.00    +0.005 C 
ATOM      8  C   UNL     1      34.299 -20.054 -20.609  0.00  0.00    -0.000 C 
ATOM      9  C   UNL     1      32.965 -20.271 -20.265  0.00  0.00    +0.000 C 
ATOM     10  C   UNL     1      35.296 -20.881 -20.092  0.00  0.00    +0.000 C 
BRANCH   8  11
ATOM     11  C   UNL     1      34.648 -18.969 -21.502  0.00  0.00    -0.000 C 
ATOM     12  C   UNL     1      34.540 -17.648 -21.070  0.00  0.00    -0.006 C 
ATOM     13  C   UNL     1      34.877 -16.604 -21.931  0.00  0.00    -0.044 C 
ATOM     14  C   UNL     1      35.091 -19.248 -22.795  0.00  0.00    -0.000 C 
ATOM     15  C   UNL     1      35.320 -16.882 -23.224  0.00  0.00    -0.006 C 
ATOM     16  C   UNL     1      35.428 -18.204 -23.656  0.00  0.00    -0.000 C 
BRANCH  13  17
ATOM     17  C   UNL     1      34.763 -15.190 -21.469  0.00  0.00    -0.059 C 
BRANCH  17  18
ATOM     18  N   UNL     1      34.185 -14.315 -22.490  0.00  0.00    +0.383 N 
ATOM     19  H   UNL     1      34.920 -13.740 -22.901  0.00  0.00    -0.089 HD
ATOM     20  H   UNL     1      33.481 -13.712 -22.063  0.00  0.00    -0.089 HD
ATOM     21  H   UNL     1      33.750 -14.883 -23.217  0.00  0.00    -0.089 HD
ENDBRANCH  17  18
ENDBRANCH  13  17
ENDBRANCH   8  11
ENDBRANCH   3   5
BRANCH   2  22
ATOM     22  C   UNL     1      31.926 -23.909 -15.985  0.00  0.00    +0.083 C 
ATOM     23  C   UNL     1      30.522 -23.566 -15.490  0.00  0.00    +0.022 C 
BRANCH  22  24
ATOM     24  C   UNL     1      32.936 -24.066 -14.827  0.00  0.00    +0.121 C 
BRANCH  24  26
ATOM     25  O   UNL     1      31.997 -23.128 -12.782  0.00  0.00    -0.250 OA
ATOM     26  C   UNL     1      32.228 -24.110 -13.476  0.00  0.00    +0.319 C 
BRANCH  26  27
ATOM     27  O   UNL     1      31.901 -25.399 -13.171  0.00  0.00    -0.444 OA
ATOM     28  C   UNL     1      30.503 -25.656 -13.003  0.00  0.00    +0.256 C 
ENDBRANCH  26  27
ENDBRANCH  24  26
BRANCH  24  29
ATOM     29  C   UNL     1      33.995 -22.946 -14.828  0.00  0.00    +0.039 C 
BRANCH  29  30
ATOM     30  C   UNL     1      35.410 -23.478 -14.820  0.00  0.00    -0.021 C 
ATOM     31  C   UNL     1      35.705 -24.664 -14.150  0.00  0.00    -0.002 C 
ATOM     32  C   UNL     1      36.421 -22.780 -15.481  0.00  0.00    -0.004 C 
ATOM     33  C   UNL     1      37.011 -25.155 -14.141  0.00  0.00    +0.030 C 
ATOM     34  C   UNL     1      37.728 -23.270 -15.472  0.00  0.00    -0.000 C 
ATOM     35  C   UNL     1      38.023 -24.457 -14.802  0.00  0.00    +0.003 C 
BRANCH  33  38
ATOM     36  N   UNL     1      38.194 -27.332 -13.983  0.00  0.00    -0.343 N 
ATOM     37  N   UNL     1      36.763 -26.641 -12.269  0.00  0.00    -0.285 NA
ATOM     38  C   UNL     1      37.320 -26.391 -13.441  0.00  0.00    +0.117 C 
ATOM     39  H   UNL     1      38.388 -28.163 -13.492  0.00  0.00    +0.144 HD
ATOM     40  H   UNL     1      38.617 -27.166 -14.857  0.00  0.00    +0.144 HD
ATOM     41  H   UNL     1      36.971 -27.478 -11.794  0.00  0.00    +0.188 HD
ENDBRANCH  33  38
ENDBRANCH  29  30
ENDBRANCH  24  29
ENDBRANCH  22  24
ENDBRANCH   2  22
TORSDOF 11
ENDMDL
MODEL 9
REMARK VINA RESULT:     -10.1      2.466      5.043
REMARK  Name = 5497056
REMARK  11 active torsions:
REMARK  status: ('A' for Active; 'I' for Inactive)
REMARK    1  A    between atoms: N_2  and  C_22
REMARK    2  A    between atoms: C_3  and  C_5
REMARK    3  A    between atoms: C_8  and  C_11
REMARK    4  A    between atoms: C_13  and  C_17
REMARK    5  A    between atoms: C_17  and  N_18
REMARK    6  A    between atoms: C_22  and  C_24
REMARK    7  A    between atoms: C_24  and  C_26
REMARK    8  A    between atoms: C_24  and  C_29
REMARK    9  A    between atoms: C_26  and  O_27
REMARK   10  A    between atoms: C_29  and  C_30
REMARK   11  A    between atoms: C_33  and  C_38
REMARK                            x       y       z     vdW  Elec       q    Type
REMARK                         _______ _______ _______ _____ _____    ______ ____
ROOT
ATOM      1  O   UNL     1      37.903 -22.586 -16.048  0.00  0.00    -0.270 OA
ATOM      2  N   UNL     1      35.857 -23.674 -16.118  0.00  0.00    -0.302 N 
ATOM      3  C   UNL     1      36.813 -22.782 -16.579  0.00  0.00    +0.246 C 
ATOM      4  H   UNL     1      35.011 -23.760 -16.615  0.00  0.00    +0.150 HD
ENDROOT
BRANCH   3   5
ATOM      5  C   UNL     1      36.447 -22.007 -17.791  0.00  0.00    +0.053 C 
ATOM      6  C   UNL     1      35.227 -22.241 -18.427  0.00  0.00    +0.005 C 
ATOM      7  C   UNL     1      37.321 -21.043 -18.295  0.00  0.00    +0.005 C 
ATOM      8  C   UNL     1      35.756 -20.550 -20.069  0.00  0.00    -0.000 C 
ATOM      9  C   UNL     1      34.882 -21.513 -19.566  0.00  0.00    +0.000 C 
ATOM     10  C   UNL     1      36.976 -20.315 -19.434  0.00  0.00    +0.000 C 
BRANCH   8  11
ATOM     11  C   UNL     1      35.397 -19.795 -21.250  0.00  0.00    -0.000 C 
ATOM     12  C   UNL     1      35.349 -18.402 -21.199  0.00  0.00    -0.006 C 
ATOM     13  C   UNL     1      35.002 -17.675 -22.338  0.00  0.00    -0.044 C 
ATOM     14  C   UNL     1      35.098 -20.461 -22.438  0.00  0.00    -0.000 C 
ATOM     15  C   UNL     1      34.703 -18.341 -23.526  0.00  0.00    -0.006 C 
ATOM     16  C   UNL     1      34.752 -19.734 -23.577  0.00  0.00    -0.000 C 
BRANCH  13  17
ATOM     17  C   UNL     1      34.952 -16.185 -22.285  0.00  0.00    -0.059 C 
BRANCH  17  18
ATOM     18  N   UNL     1      34.538 -15.687 -20.972  0.00  0.00    +0.383 N 
ATOM     19  H   UNL     1      33.525 -15.567 -20.958  0.00  0.00    -0.089 HD
ATOM     20  H   UNL     1      34.990 -14.791 -20.789  0.00  0.00    -0.089 HD
ATOM     21  H   UNL     1      34.811 -16.358 -20.253  0.00  0.00    -0.089 HD
ENDBRANCH  17  18
ENDBRANCH  13  17
ENDBRANCH   8  11
ENDBRANCH   3   5
BRANCH   2  22
ATOM     22  C   UNL     1      36.054 -24.481 -14.937  0.00  0.00    +0.083 C 
ATOM     23  C   UNL     1      35.951 -25.964 -15.291  0.00  0.00    +0.022 C 
BRANCH  22  24
ATOM     24  C   UNL     1      35.107 -24.086 -13.782  0.00  0.00    +0.121 C 
BRANCH  24  26
ATOM     25  O   UNL     1      37.006 -23.157 -12.568  0.00  0.00    -0.250 OA
ATOM     26  C   UNL     1      35.890 -23.661 -12.544  0.00  0.00    +0.319 C 
BRANCH  26  27
ATOM     27  O   UNL     1      35.158 -23.929 -11.424  0.00  0.00    -0.444 OA
ATOM     28  C   UNL     1      35.894 -24.477 -10.325  0.00  0.00    +0.256 C 
ENDBRANCH  26  27
ENDBRANCH  24  26
BRANCH  24  29
ATOM     29  C   UNL     1      34.130 -25.223 -13.421  0.00  0.00    +0.039 C 
BRANCH  29  30
ATOM     30  C   UNL     1      32.699 -24.904 -13.788  0.00  0.00    -0.021 C 
ATOM     31  C   UNL     1      32.423 -24.152 -14.929  0.00  0.00    -0.002 C 
ATOM     32  C   UNL     1      31.654 -25.359 -12.984  0.00  0.00    -0.004 C 
ATOM     33  C   UNL     1      31.102 -23.856 -15.268  0.00  0.00    +0.030 C 
ATOM     34  C   UNL     1      30.333 -25.063 -13.321  0.00  0.00    -0.000 C 
ATOM     35  C   UNL     1      30.057 -24.312 -14.463  0.00  0.00    +0.003 C 
BRANCH  33  38
ATOM     36  N   UNL     1      31.820 -22.715 -17.353  0.00  0.00    -0.343 N 
ATOM     37  N   UNL     1      29.576 -22.678 -16.702  0.00  0.00    -0.285 NA
ATOM     38  C   UNL     1      30.814 -23.071 -16.457  0.00  0.00    +0.117 C 
ATOM     39  H   UNL     1      31.603 -22.182 -18.152  0.00  0.00    +0.144 HD
ATOM     40  H   UNL     1      32.750 -22.995 -17.186  0.00  0.00    +0.144 HD
ATOM     41  H   UNL     1      29.379 -22.146 -17.507  0.00  0.00    +0.188 HD
ENDBRANCH  33  38
ENDBRANCH  29  30
ENDBRANCH  24  29
ENDBRANCH  22  24
ENDBRANCH   2  22
TORSDOF 11
ENDMDL
