MODEL 1
REMARK VINA RESULT:     -12.8      0.000      0.000
REMARK  Name = 10074640
REMARK  6 active torsions:
REMARK  status: ('A' for Active; 'I' for Inactive)
REMARK    1  A    between atoms: N_2  and  C_5
REMARK    2  A    between atoms: C_3  and  C_30
REMARK    3  A    between atoms: C_6  and  N_13
REMARK    4  A    between atoms: C_16  and  C_20
REMARK    5  A    between atoms: C_25  and  C_31
REMARK    6  A    between atoms: C_31  and  N_32
REMARK                            x       y       z     vdW  Elec       q    Type
REMARK                         _______ _______ _______ _____ _____    ______ ____
ROOT
ATOM      1  O   UNL     1      33.790 -24.091 -18.789  0.00  0.00    -0.270 OA
ATOM      2  N   UNL     1      33.237 -22.453 -17.202  0.00  0.00    -0.280 N 
ATOM      3  C   UNL     1      33.755 -22.905 -18.424  0.00  0.00    +0.249 C 
ATOM      4  H   UNL     1      33.278 -21.481 -17.054  0.00  0.00    +0.155 HD
ENDROOT
BRANCH   2   5
ATOM      5  C   UNL     1      32.664 -23.213 -16.154  0.00  0.00    +0.052 C 
ATOM      6  C   UNL     1      32.761 -24.052 -13.910  0.00  0.00    +0.048 C 
ATOM      7  C   UNL     1      33.328 -23.304 -14.943  0.00  0.00    +0.029 C 
ATOM      8  C   UNL     1      31.540 -24.695 -14.103  0.00  0.00    -0.008 C 
ATOM      9  C   UNL     1      31.450 -23.845 -16.363  0.00  0.00    +0.014 C 
ATOM     10  C   UNL     1      30.883 -24.592 -15.331  0.00  0.00    -0.002 C 
ATOM     11  C   UNL     1      30.911 -25.503 -13.015  0.00  0.00    +0.032 C 
BRANCH   6  13
ATOM     12  S   UNL     1      35.238 -24.661 -10.784  0.00  0.00    -0.059 S 
ATOM     13  N   UNL     1      33.438 -24.145 -12.674  0.00  0.00    -0.283 N 
ATOM     14  N   UNL     1      35.664 -24.595 -13.333  0.00  0.00    -0.384 NA
ATOM     15  C   UNL     1      34.745 -24.450 -12.411  0.00  0.00    +0.211 C 
ATOM     16  C   UNL     1      36.863 -24.899 -12.716  0.00  0.00    +0.124 C 
ATOM     17  C   UNL     1      36.829 -24.977 -11.340  0.00  0.00    +0.125 C 
ATOM     18  H   UNL     1      32.885 -23.962 -11.881  0.00  0.00    +0.155 HD
BRANCH  16  20
ATOM     19  N   UNL     1      39.458 -24.507 -15.348  0.00  0.00    -0.242 NA
ATOM     20  C   UNL     1      38.062 -25.116 -13.471  0.00  0.00    +0.046 C 
ATOM     21  C   UNL     1      38.974 -26.098 -13.101  0.00  0.00    +0.005 C 
ATOM     22  C   UNL     1      38.347 -24.354 -14.593  0.00  0.00    +0.101 C 
ATOM     23  C   UNL     1      40.128 -26.286 -13.853  0.00  0.00    +0.021 C 
ATOM     24  C   UNL     1      40.321 -25.471 -14.958  0.00  0.00    +0.099 C 
ENDBRANCH  16  20
ENDBRANCH   6  13
ENDBRANCH   2   5
BRANCH   3  30
ATOM     25  C   UNL     1      35.362 -19.925 -20.961  0.00  0.00    -0.043 C 
ATOM     26  C   UNL     1      36.220 -20.760 -20.258  0.00  0.00    -0.006 C 
ATOM     27  C   UNL     1      33.985 -20.054 -20.845  0.00  0.00    -0.006 C 
ATOM     28  C   UNL     1      35.689 -21.743 -19.422  0.00  0.00    +0.004 C 
ATOM     29  C   UNL     1      33.455 -21.036 -20.009  0.00  0.00    +0.004 C 
ATOM     30  C   UNL     1      34.307 -21.881 -19.298  0.00  0.00    +0.054 C 
BRANCH  25  31
ATOM     31  C   UNL     1      35.934 -18.866 -21.865  0.00  0.00    -0.050 C 
BRANCH  31  32
ATOM     32  N   UNL     1      35.010 -17.747 -22.045  0.00  0.00    +0.387 N 
ATOM     33  N   UNL     1      34.388 -14.937 -22.313  0.00  0.00    +0.383 N 
ATOM     34  C   UNL     1      35.054 -16.844 -20.889  0.00  0.00    -0.100 C 
ATOM     35  C   UNL     1      35.312 -17.014 -23.280  0.00  0.00    -0.100 C 
ATOM     36  C   UNL     1      34.087 -15.669 -21.077  0.00  0.00    -0.101 C 
ATOM     37  C   UNL     1      34.345 -15.842 -23.469  0.00  0.00    -0.101 C 
ATOM     38  C   UNL     1      33.463 -13.820 -22.494  0.00  0.00    -0.101 C 
ATOM     39  H   UNL     1      34.066 -18.128 -22.119  0.00  0.00    -0.079 HD
ATOM     40  H   UNL     1      35.331 -14.555 -22.239  0.00  0.00    -0.080 HD
ENDBRANCH  31  32
ENDBRANCH  25  31
ENDBRANCH   3  30
TORSDOF 6
ENDMDL
MODEL 2
REMARK VINA RESULT:      -9.9      2.594      5.670
REMARK  Name = 10074640
REMARK  6 active torsions:
REMARK  status: ('A' for Active; 'I' for Inactive)
REMARK    1  A    between atoms: N_2  and  C_5
REMARK    2  A    between atoms: C_3  and  C_30
REMARK    3  A    between atoms: C_6  and  N_13
REMARK    4  A    between atoms: C_16  and  C_20
REMARK    5  A    between atoms: C_25  and  C_31
REMARK    6  A    between atoms: C_31  and  N_32
REMARK                            x       y       z     vdW  Elec       q    Type
REMARK                         _______ _______ _______ _____ _____    ______ ____
ROOT
ATOM      1  O   UNL     1      36.399 -18.333 -20.615  0.00  0.00    -0.270 OA
ATOM      2  N   UNL     1      34.253 -19.198 -21.004  0.00  0.00    -0.280 N 
ATOM      3  C   UNL     1      35.264 -18.233 -21.108  0.00  0.00    +0.249 C 
ATOM      4  H   UNL     1      33.403 -18.977 -21.449  0.00  0.00    +0.155 HD
ENDROOT
BRANCH   2   5
ATOM      5  C   UNL     1      34.294 -20.450 -20.342  0.00  0.00    +0.052 C 
ATOM      6  C   UNL     1      33.286 -22.048 -18.867  0.00  0.00    +0.048 C 
ATOM      7  C   UNL     1      33.245 -20.815 -19.517  0.00  0.00    +0.029 C 
ATOM      8  C   UNL     1      34.375 -22.898 -19.052  0.00  0.00    -0.008 C 
ATOM      9  C   UNL     1      35.384 -21.282 -20.538  0.00  0.00    +0.014 C 
ATOM     10  C   UNL     1      35.426 -22.515 -19.888  0.00  0.00    -0.002 C 
ATOM     11  C   UNL     1      34.446 -24.224 -18.368  0.00  0.00    +0.032 C 
BRANCH   6  13
ATOM     12  S   UNL     1      30.756 -23.487 -16.074  0.00  0.00    -0.059 S 
ATOM     13  N   UNL     1      32.215 -22.421 -18.026  0.00  0.00    -0.283 N 
ATOM     14  N   UNL     1      33.321 -23.161 -16.071  0.00  0.00    -0.384 NA
ATOM     15  C   UNL     1      32.232 -22.981 -16.778  0.00  0.00    +0.211 C 
ATOM     16  C   UNL     1      32.973 -23.748 -14.870  0.00  0.00    +0.124 C 
ATOM     17  C   UNL     1      31.629 -24.000 -14.689  0.00  0.00    +0.125 C 
ATOM     18  H   UNL     1      31.317 -22.250 -18.393  0.00  0.00    +0.155 HD
BRANCH  16  20
ATOM     19  N   UNL     1      34.467 -24.948 -11.685  0.00  0.00    -0.242 NA
ATOM     20  C   UNL     1      33.957 -24.069 -13.878  0.00  0.00    +0.046 C 
ATOM     21  C   UNL     1      35.308 -23.833 -14.107  0.00  0.00    +0.005 C 
ATOM     22  C   UNL     1      33.591 -24.622 -12.662  0.00  0.00    +0.101 C 
ATOM     23  C   UNL     1      36.240 -24.155 -13.126  0.00  0.00    +0.021 C 
ATOM     24  C   UNL     1      35.772 -24.705 -11.944  0.00  0.00    +0.099 C 
ENDBRANCH  16  20
ENDBRANCH   6  13
ENDBRANCH   2   5
BRANCH   3  30
ATOM     25  C   UNL     1      34.243 -14.714 -23.223  0.00  0.00    -0.043 C 
ATOM     26  C   UNL     1      34.210 -14.711 -21.835  0.00  0.00    -0.006 C 
ATOM     27  C   UNL     1      34.607 -15.854 -23.927  0.00  0.00    -0.006 C 
ATOM     28  C   UNL     1      34.547 -15.873 -21.138  0.00  0.00    +0.004 C 
ATOM     29  C   UNL     1      34.945 -17.013 -23.230  0.00  0.00    +0.004 C 
ATOM     30  C   UNL     1      34.914 -17.023 -21.836  0.00  0.00    +0.054 C 
BRANCH  25  31
ATOM     31  C   UNL     1      33.882 -13.461 -23.975  0.00  0.00    -0.050 C 
BRANCH  31  32
ATOM     32  N   UNL     1      33.583 -12.352 -23.071  0.00  0.00    +0.387 N 
ATOM     33  N   UNL     1      32.055 -10.040 -22.247  0.00  0.00    +0.383 N 
ATOM     34  C   UNL     1      33.716 -11.064 -23.764  0.00  0.00    -0.100 C 
ATOM     35  C   UNL     1      32.237 -12.491 -22.502  0.00  0.00    -0.100 C 
ATOM     36  C   UNL     1      33.400  -9.901 -22.818  0.00  0.00    -0.101 C 
ATOM     37  C   UNL     1      31.923 -11.328 -21.555  0.00  0.00    -0.101 C 
ATOM     38  C   UNL     1      31.758  -8.932 -21.341  0.00  0.00    -0.101 C 
ATOM     39  H   UNL     1      34.259 -12.377 -22.308  0.00  0.00    -0.079 HD
ATOM     40  H   UNL     1      31.378 -10.013 -23.009  0.00  0.00    -0.080 HD
ENDBRANCH  31  32
ENDBRANCH  25  31
ENDBRANCH   3  30
TORSDOF 6
ENDMDL
MODEL 3
REMARK VINA RESULT:      -9.9      5.594     11.207
REMARK  Name = 10074640
REMARK  6 active torsions:
REMARK  status: ('A' for Active; 'I' for Inactive)
REMARK    1  A    between atoms: N_2  and  C_5
REMARK    2  A    between atoms: C_3  and  C_30
REMARK    3  A    between atoms: C_6  and  N_13
REMARK    4  A    between atoms: C_16  and  C_20
REMARK    5  A    between atoms: C_25  and  C_31
REMARK    6  A    between atoms: C_31  and  N_32
REMARK                            x       y       z     vdW  Elec       q    Type
REMARK                         _______ _______ _______ _____ _____    ______ ____
ROOT
ATOM      1  O   UNL     1      31.942 -13.861 -21.014  0.00  0.00    -0.270 OA
ATOM      2  N   UNL     1      33.296 -13.198 -22.812  0.00  0.00    -0.280 N 
ATOM      3  C   UNL     1      32.492 -12.974 -21.685  0.00  0.00    +0.249 C 
ATOM      4  H   UNL     1      33.665 -12.392 -23.240  0.00  0.00    +0.155 HD
ENDROOT
BRANCH   2   5
ATOM      5  C   UNL     1      33.646 -14.431 -23.413  0.00  0.00    +0.052 C 
ATOM      6  C   UNL     1      35.082 -16.348 -23.525  0.00  0.00    +0.048 C 
ATOM      7  C   UNL     1      34.738 -15.132 -22.932  0.00  0.00    +0.029 C 
ATOM      8  C   UNL     1      34.328 -16.844 -24.588  0.00  0.00    -0.008 C 
ATOM      9  C   UNL     1      32.886 -14.909 -24.467  0.00  0.00    +0.014 C 
ATOM     10  C   UNL     1      33.230 -16.123 -25.060  0.00  0.00    -0.002 C 
ATOM     11  C   UNL     1      34.674 -18.141 -25.241  0.00  0.00    +0.032 C 
BRANCH   6  13
ATOM     12  S   UNL     1      37.778 -18.658 -21.609  0.00  0.00    -0.059 S 
ATOM     13  N   UNL     1      36.196 -17.063 -23.034  0.00  0.00    -0.283 N 
ATOM     14  N   UNL     1      35.194 -18.727 -21.686  0.00  0.00    -0.384 NA
ATOM     15  C   UNL     1      36.250 -18.107 -22.153  0.00  0.00    +0.211 C 
ATOM     16  C   UNL     1      35.614 -19.723 -20.825  0.00  0.00    +0.124 C 
ATOM     17  C   UNL     1      36.978 -19.839 -20.657  0.00  0.00    +0.125 C 
ATOM     18  H   UNL     1      37.069 -16.765 -23.381  0.00  0.00    +0.155 HD
BRANCH  16  20
ATOM     19  N   UNL     1      32.383 -21.101 -19.610  0.00  0.00    -0.242 NA
ATOM     20  C   UNL     1      34.679 -20.579 -20.154  0.00  0.00    +0.046 C 
ATOM     21  C   UNL     1      35.112 -21.676 -19.418  0.00  0.00    +0.005 C 
ATOM     22  C   UNL     1      33.317 -20.336 -20.218  0.00  0.00    +0.101 C 
ATOM     23  C   UNL     1      34.182 -22.487 -18.778  0.00  0.00    +0.021 C 
ATOM     24  C   UNL     1      32.841 -22.159 -18.904  0.00  0.00    +0.099 C 
ENDBRANCH  16  20
ENDBRANCH   6  13
ENDBRANCH   2   5
BRANCH   3  30
ATOM     25  C   UNL     1      31.905  -8.924 -20.614  0.00  0.00    -0.043 C 
ATOM     26  C   UNL     1      32.235  -9.243 -21.924  0.00  0.00    -0.006 C 
ATOM     27  C   UNL     1      31.763  -9.913 -19.651  0.00  0.00    -0.006 C 
ATOM     28  C   UNL     1      32.429 -10.579 -22.277  0.00  0.00    +0.004 C 
ATOM     29  C   UNL     1      31.955 -11.248 -20.004  0.00  0.00    +0.004 C 
ATOM     30  C   UNL     1      32.288 -11.581 -21.317  0.00  0.00    +0.054 C 
BRANCH  25  31
ATOM     31  C   UNL     1      31.694  -7.482 -20.233  0.00  0.00    -0.050 C 
BRANCH  31  32
ATOM     32  N   UNL     1      31.452  -6.641 -21.404  0.00  0.00    +0.387 N 
ATOM     33  N   UNL     1      31.527  -4.126 -22.829  0.00  0.00    +0.383 N 
ATOM     34  C   UNL     1      30.518  -5.555 -21.083  0.00  0.00    -0.100 C 
ATOM     35  C   UNL     1      32.712  -6.095 -21.923  0.00  0.00    -0.100 C 
ATOM     36  C   UNL     1      30.267  -4.671 -22.309  0.00  0.00    -0.101 C 
ATOM     37  C   UNL     1      32.461  -5.213 -23.150  0.00  0.00    -0.101 C 
ATOM     38  C   UNL     1      31.285  -3.287 -24.001  0.00  0.00    -0.101 C 
ATOM     39  H   UNL     1      31.032  -7.223 -22.129  0.00  0.00    -0.079 HD
ATOM     40  H   UNL     1      31.947  -3.543 -22.106  0.00  0.00    -0.080 HD
ENDBRANCH  31  32
ENDBRANCH  25  31
ENDBRANCH   3  30
TORSDOF 6
ENDMDL
