MODEL 1
REMARK VINA RESULT:     -10.6      0.000      0.000
REMARK  Name = 91617630
REMARK  6 active torsions:
REMARK  status: ('A' for Active; 'I' for Inactive)
REMARK    1  A    between atoms: N_4  and  C_10
REMARK    2  A    between atoms: N_5  and  C_16
REMARK    3  A    between atoms: C_7  and  C_24
REMARK    4  A    between atoms: N_23  and  C_26
REMARK    5  A    between atoms: C_26  and  C_28
REMARK    6  A    between atoms: C_28  and  O_29
REMARK                            x       y       z     vdW  Elec       q    Type
REMARK                         _______ _______ _______ _____ _____    ______ ____
ROOT
ATOM      1  O   UNL     1      31.730 -22.806 -17.141  0.00  0.00    -0.252 OA
ATOM      2  O   UNL     1      33.022 -24.651 -13.077  0.00  0.00    -0.273 OA
ATOM      3  O   UNL     1      36.213 -23.607 -16.205  0.00  0.00    -0.273 OA
ATOM      4  N   UNL     1      32.330 -23.638 -15.058  0.00  0.00    -0.215 N 
ATOM      5  N   UNL     1      33.989 -23.105 -16.689  0.00  0.00    -0.215 N 
ATOM      6  C   UNL     1      32.618 -23.139 -16.349  0.00  0.00    +0.319 C 
ATOM      7  C   UNL     1      34.672 -23.509 -14.379  0.00  0.00    +0.229 C 
ATOM      8  C   UNL     1      33.278 -24.014 -14.099  0.00  0.00    +0.250 C 
ATOM      9  C   UNL     1      35.049 -23.437 -15.838  0.00  0.00    +0.250 C 
ENDROOT
BRANCH   4  10
ATOM     10  C   UNL     1      30.938 -23.860 -14.749  0.00  0.00    +0.084 C 
ATOM     11  C   UNL     1      30.398 -25.055 -15.539  0.00  0.00    +0.020 C 
ATOM     12  C   UNL     1      30.116 -22.597 -15.017  0.00  0.00    +0.020 C 
ATOM     13  C   UNL     1      28.630 -22.826 -14.749  0.00  0.00    +0.002 C 
ATOM     14  C   UNL     1      28.911 -25.280 -15.271  0.00  0.00    +0.002 C 
ATOM     15  C   UNL     1      28.094 -24.019 -15.535  0.00  0.00    +0.000 C 
ENDBRANCH   4  10
BRANCH   5  16
ATOM     16  C   UNL     1      34.302 -22.777 -18.059  0.00  0.00    +0.084 C 
ATOM     17  C   UNL     1      33.252 -21.826 -18.642  0.00  0.00    +0.020 C 
ATOM     18  C   UNL     1      35.708 -22.183 -18.161  0.00  0.00    +0.020 C 
ATOM     19  C   UNL     1      36.046 -21.777 -19.593  0.00  0.00    +0.002 C 
ATOM     20  C   UNL     1      33.593 -21.423 -20.074  0.00  0.00    +0.002 C 
ATOM     21  C   UNL     1      34.996 -20.833 -20.174  0.00  0.00    +0.000 C 
ENDBRANCH   5  16
BRANCH   7  24
ATOM     22  O   UNL     1      36.311 -23.701 -12.651  0.00  0.00    -0.274 OA
ATOM     23  N   UNL     1      35.874 -25.548 -13.999  0.00  0.00    -0.294 N 
ATOM     24  C   UNL     1      35.702 -24.243 -13.569  0.00  0.00    +0.240 C 
ATOM     25  H   UNL     1      35.324 -25.870 -14.750  0.00  0.00    +0.150 HD
BRANCH  23  26
ATOM     26  C   UNL     1      36.823 -26.459 -13.402  0.00  0.00    +0.200 C 
BRANCH  26  28
ATOM     27  O   UNL     1      38.945 -27.304 -14.162  0.00  0.00    -0.248 OA
ATOM     28  C   UNL     1      37.769 -27.063 -14.407  0.00  0.00    +0.334 C 
BRANCH  28  29
ATOM     29  O   UNL     1      37.197 -27.313 -15.609  0.00  0.00    -0.479 OA
ATOM     30  H   UNL     1      36.285 -27.139 -15.738  0.00  0.00    +0.295 HD
ENDBRANCH  28  29
ENDBRANCH  26  28
ENDBRANCH  23  26
ENDBRANCH   7  24
TORSDOF 6
ENDMDL
MODEL 2
REMARK VINA RESULT:     -10.5      1.615      5.610
REMARK  Name = 91617630
REMARK  6 active torsions:
REMARK  status: ('A' for Active; 'I' for Inactive)
REMARK    1  A    between atoms: N_4  and  C_10
REMARK    2  A    between atoms: N_5  and  C_16
REMARK    3  A    between atoms: C_7  and  C_24
REMARK    4  A    between atoms: N_23  and  C_26
REMARK    5  A    between atoms: C_26  and  C_28
REMARK    6  A    between atoms: C_28  and  O_29
REMARK                            x       y       z     vdW  Elec       q    Type
REMARK                         _______ _______ _______ _____ _____    ______ ____
ROOT
ATOM      1  O   UNL     1      32.892 -25.173 -12.708  0.00  0.00    -0.252 OA
ATOM      2  O   UNL     1      32.301 -22.944 -16.741  0.00  0.00    -0.273 OA
ATOM      3  O   UNL     1      36.545 -23.648 -15.145  0.00  0.00    -0.273 OA
ATOM      4  N   UNL     1      32.546 -24.152 -14.764  0.00  0.00    -0.215 N 
ATOM      5  N   UNL     1      34.753 -24.509 -13.930  0.00  0.00    -0.215 N 
ATOM      6  C   UNL     1      33.362 -24.667 -13.732  0.00  0.00    +0.319 C 
ATOM      7  C   UNL     1      34.448 -23.886 -16.272  0.00  0.00    +0.229 C 
ATOM      8  C   UNL     1      33.003 -23.587 -15.960  0.00  0.00    +0.250 C 
ATOM      9  C   UNL     1      35.359 -23.975 -15.072  0.00  0.00    +0.250 C 
ENDROOT
BRANCH   4  10
ATOM     10  C   UNL     1      31.125 -24.130 -14.511  0.00  0.00    +0.084 C 
ATOM     11  C   UNL     1      30.422 -25.233 -15.306  0.00  0.00    +0.020 C 
ATOM     12  C   UNL     1      30.540 -22.753 -14.830  0.00  0.00    +0.020 C 
ATOM     13  C   UNL     1      29.027 -22.723 -14.621  0.00  0.00    +0.002 C 
ATOM     14  C   UNL     1      28.909 -25.199 -15.098  0.00  0.00    +0.002 C 
ATOM     15  C   UNL     1      28.328 -23.824 -15.413  0.00  0.00    +0.000 C 
ENDBRANCH   4  10
BRANCH   5  16
ATOM     16  C   UNL     1      35.602 -24.856 -12.815  0.00  0.00    +0.084 C 
ATOM     17  C   UNL     1      36.640 -25.903 -13.230  0.00  0.00    +0.020 C 
ATOM     18  C   UNL     1      36.271 -23.606 -12.242  0.00  0.00    +0.020 C 
ATOM     19  C   UNL     1      37.218 -23.949 -11.095  0.00  0.00    +0.002 C 
ATOM     20  C   UNL     1      37.585 -26.244 -12.081  0.00  0.00    +0.002 C 
ATOM     21  C   UNL     1      38.249 -24.995 -11.509  0.00  0.00    +0.000 C 
ENDBRANCH   5  16
BRANCH   7  24
ATOM     22  O   UNL     1      35.881 -22.149 -17.072  0.00  0.00    -0.274 OA
ATOM     23  N   UNL     1      34.371 -23.132 -18.546  0.00  0.00    -0.294 N 
ATOM     24  C   UNL     1      34.994 -22.961 -17.322  0.00  0.00    +0.240 C 
ATOM     25  H   UNL     1      33.670 -23.819 -18.623  0.00  0.00    +0.150 HD
BRANCH  23  26
ATOM     26  C   UNL     1      34.696 -22.348 -19.715  0.00  0.00    +0.200 C 
BRANCH  26  28
ATOM     27  O   UNL     1      34.167 -20.139 -20.510  0.00  0.00    -0.248 OA
ATOM     28  C   UNL     1      33.834 -21.121 -19.858  0.00  0.00    +0.334 C 
BRANCH  28  29
ATOM     29  O   UNL     1      32.656 -21.206 -19.196  0.00  0.00    -0.479 OA
ATOM     30  H   UNL     1      32.289 -20.443 -18.793  0.00  0.00    +0.295 HD
ENDBRANCH  28  29
ENDBRANCH  26  28
ENDBRANCH  23  26
ENDBRANCH   7  24
TORSDOF 6
ENDMDL
MODEL 3
REMARK VINA RESULT:     -10.5      1.513      5.336
REMARK  Name = 91617630
REMARK  6 active torsions:
REMARK  status: ('A' for Active; 'I' for Inactive)
REMARK    1  A    between atoms: N_4  and  C_10
REMARK    2  A    between atoms: N_5  and  C_16
REMARK    3  A    between atoms: C_7  and  C_24
REMARK    4  A    between atoms: N_23  and  C_26
REMARK    5  A    between atoms: C_26  and  C_28
REMARK    6  A    between atoms: C_28  and  O_29
REMARK                            x       y       z     vdW  Elec       q    Type
REMARK                         _______ _______ _______ _____ _____    ______ ____
ROOT
ATOM      1  O   UNL     1      31.841 -23.429 -17.336  0.00  0.00    -0.252 OA
ATOM      2  O   UNL     1      36.301 -23.259 -16.041  0.00  0.00    -0.273 OA
ATOM      3  O   UNL     1      33.067 -24.152 -12.910  0.00  0.00    -0.273 OA
ATOM      4  N   UNL     1      34.091 -23.430 -16.761  0.00  0.00    -0.215 N 
ATOM      5  N   UNL     1      32.409 -23.884 -15.130  0.00  0.00    -0.215 N 
ATOM      6  C   UNL     1      32.715 -23.588 -16.477  0.00  0.00    +0.319 C 
ATOM      7  C   UNL     1      34.744 -24.367 -14.602  0.00  0.00    +0.229 C 
ATOM      8  C   UNL     1      35.137 -23.615 -15.850  0.00  0.00    +0.250 C 
ATOM      9  C   UNL     1      33.341 -24.107 -14.110  0.00  0.00    +0.250 C 
ENDROOT
BRANCH   4  10
ATOM     10  C   UNL     1      34.425 -22.948 -18.079  0.00  0.00    +0.084 C 
ATOM     11  C   UNL     1      35.805 -22.286 -18.073  0.00  0.00    +0.020 C 
ATOM     12  C   UNL     1      33.349 -21.990 -18.594  0.00  0.00    +0.020 C 
ATOM     13  C   UNL     1      33.710 -21.424 -19.966  0.00  0.00    +0.002 C 
ATOM     14  C   UNL     1      36.162 -21.718 -19.445  0.00  0.00    +0.002 C 
ATOM     15  C   UNL     1      35.086 -20.766 -19.959  0.00  0.00    +0.000 C 
ENDBRANCH   4  10
BRANCH   5  16
ATOM     16  C   UNL     1      31.010 -23.869 -14.772  0.00  0.00    +0.084 C 
ATOM     17  C   UNL     1      30.275 -22.747 -15.511  0.00  0.00    +0.020 C 
ATOM     18  C   UNL     1      30.371 -25.231 -15.049  0.00  0.00    +0.020 C 
ATOM     19  C   UNL     1      28.878 -25.227 -14.730  0.00  0.00    +0.002 C 
ATOM     20  C   UNL     1      28.782 -22.747 -15.189  0.00  0.00    +0.002 C 
ATOM     21  C   UNL     1      28.147 -24.107 -15.464  0.00  0.00    +0.000 C 
ENDBRANCH   5  16
BRANCH   7  24
ATOM     22  O   UNL     1      36.475 -23.203 -13.436  0.00  0.00    -0.274 OA
ATOM     23  N   UNL     1      35.791 -25.285 -12.651  0.00  0.00    -0.294 N 
ATOM     24  C   UNL     1      35.760 -24.200 -13.509  0.00  0.00    +0.240 C 
ATOM     25  H   UNL     1      35.165 -26.029 -12.813  0.00  0.00    +0.150 HD
BRANCH  23  26
ATOM     26  C   UNL     1      36.697 -25.383 -11.529  0.00  0.00    +0.200 C 
BRANCH  26  28
ATOM     27  O   UNL     1      35.465 -24.728  -9.568  0.00  0.00    -0.248 OA
ATOM     28  C   UNL     1      36.328 -24.462 -10.395  0.00  0.00    +0.334 C 
BRANCH  28  29
ATOM     29  O   UNL     1      37.041 -23.311 -10.378  0.00  0.00    -0.479 OA
ATOM     30  H   UNL     1      37.663 -23.135 -11.058  0.00  0.00    +0.295 HD
ENDBRANCH  28  29
ENDBRANCH  26  28
ENDBRANCH  23  26
ENDBRANCH   7  24
TORSDOF 6
ENDMDL
MODEL 4
REMARK VINA RESULT:     -10.4      1.592      1.802
REMARK  Name = 91617630
REMARK  6 active torsions:
REMARK  status: ('A' for Active; 'I' for Inactive)
REMARK    1  A    between atoms: N_4  and  C_10
REMARK    2  A    between atoms: N_5  and  C_16
REMARK    3  A    between atoms: C_7  and  C_24
REMARK    4  A    between atoms: N_23  and  C_26
REMARK    5  A    between atoms: C_26  and  C_28
REMARK    6  A    between atoms: C_28  and  O_29
REMARK                            x       y       z     vdW  Elec       q    Type
REMARK                         _______ _______ _______ _____ _____    ______ ____
ROOT
ATOM      1  O   UNL     1      32.945 -23.132 -16.341  0.00  0.00    -0.252 OA
ATOM      2  O   UNL     1      34.817 -24.542 -12.328  0.00  0.00    -0.273 OA
ATOM      3  O   UNL     1      37.556 -23.468 -15.850  0.00  0.00    -0.273 OA
ATOM      4  N   UNL     1      33.832 -23.747 -14.285  0.00  0.00    -0.215 N 
ATOM      5  N   UNL     1      35.257 -23.199 -16.119  0.00  0.00    -0.215 N 
ATOM      6  C   UNL     1      33.937 -23.326 -15.630  0.00  0.00    +0.319 C 
ATOM      7  C   UNL     1      36.209 -23.364 -13.876  0.00  0.00    +0.229 C 
ATOM      8  C   UNL     1      34.905 -23.965 -13.413  0.00  0.00    +0.250 C 
ATOM      9  C   UNL     1      36.425 -23.372 -15.370  0.00  0.00    +0.250 C 
ENDROOT
BRANCH   4  10
ATOM     10  C   UNL     1      32.506 -24.064 -13.811  0.00  0.00    +0.084 C 
ATOM     11  C   UNL     1      32.106 -25.477 -14.244  0.00  0.00    +0.020 C 
ATOM     12  C   UNL     1      31.494 -23.025 -14.298  0.00  0.00    +0.020 C 
ATOM     13  C   UNL     1      30.075 -23.371 -13.853  0.00  0.00    +0.002 C 
ATOM     14  C   UNL     1      30.686 -25.820 -13.802  0.00  0.00    +0.002 C 
ATOM     15  C   UNL     1      29.679 -24.780 -14.284  0.00  0.00    +0.000 C 
ENDBRANCH   4  10
BRANCH   5  16
ATOM     16  C   UNL     1      35.394 -22.951 -17.535  0.00  0.00    +0.084 C 
ATOM     17  C   UNL     1      34.046 -22.567 -18.151  0.00  0.00    +0.020 C 
ATOM     18  C   UNL     1      36.450 -21.874 -17.791  0.00  0.00    +0.020 C 
ATOM     19  C   UNL     1      36.578 -21.553 -19.278  0.00  0.00    +0.002 C 
ATOM     20  C   UNL     1      34.178 -22.247 -19.638  0.00  0.00    +0.002 C 
ATOM     21  C   UNL     1      35.233 -21.175 -19.891  0.00  0.00    +0.000 C 
ENDBRANCH   5  16
BRANCH   7  24
ATOM     22  O   UNL     1      37.941 -23.332 -12.230  0.00  0.00    -0.274 OA
ATOM     23  N   UNL     1      37.738 -25.192 -13.616  0.00  0.00    -0.294 N 
ATOM     24  C   UNL     1      37.381 -23.943 -13.138  0.00  0.00    +0.240 C 
ATOM     25  H   UNL     1      37.210 -25.580 -14.351  0.00  0.00    +0.150 HD
BRANCH  23  26
ATOM     26  C   UNL     1      38.848 -25.953 -13.091  0.00  0.00    +0.200 C 
BRANCH  26  28
ATOM     27  O   UNL     1      40.994 -26.722 -13.863  0.00  0.00    -0.248 OA
ATOM     28  C   UNL     1      40.035 -25.975 -14.018  0.00  0.00    +0.334 C 
BRANCH  28  29
ATOM     29  O   UNL     1      39.943 -25.090 -15.038  0.00  0.00    -0.479 OA
ATOM     30  H   UNL     1      39.301 -24.408 -15.009  0.00  0.00    +0.295 HD
ENDBRANCH  28  29
ENDBRANCH  26  28
ENDBRANCH  23  26
ENDBRANCH   7  24
TORSDOF 6
ENDMDL
MODEL 5
REMARK VINA RESULT:     -10.3      0.974      5.027
REMARK  Name = 91617630
REMARK  6 active torsions:
REMARK  status: ('A' for Active; 'I' for Inactive)
REMARK    1  A    between atoms: N_4  and  C_10
REMARK    2  A    between atoms: N_5  and  C_16
REMARK    3  A    between atoms: C_7  and  C_24
REMARK    4  A    between atoms: N_23  and  C_26
REMARK    5  A    between atoms: C_26  and  C_28
REMARK    6  A    between atoms: C_28  and  O_29
REMARK                            x       y       z     vdW  Elec       q    Type
REMARK                         _______ _______ _______ _____ _____    ______ ____
ROOT
ATOM      1  O   UNL     1      31.977 -23.370 -17.381  0.00  0.00    -0.252 OA
ATOM      2  O   UNL     1      36.529 -23.064 -16.496  0.00  0.00    -0.273 OA
ATOM      3  O   UNL     1      33.638 -24.205 -13.120  0.00  0.00    -0.273 OA
ATOM      4  N   UNL     1      34.269 -23.300 -17.015  0.00  0.00    -0.215 N 
ATOM      5  N   UNL     1      32.766 -23.883 -15.256  0.00  0.00    -0.215 N 
ATOM      6  C   UNL     1      32.934 -23.525 -16.613  0.00  0.00    +0.319 C 
ATOM      7  C   UNL     1      35.157 -24.288 -14.966  0.00  0.00    +0.229 C 
ATOM      8  C   UNL     1      35.403 -23.475 -16.213  0.00  0.00    +0.250 C 
ATOM      9  C   UNL     1      33.797 -24.105 -14.337  0.00  0.00    +0.250 C 
ENDROOT
BRANCH   4  10
ATOM     10  C   UNL     1      34.461 -22.755 -18.338  0.00  0.00    +0.084 C 
ATOM     11  C   UNL     1      35.811 -22.041 -18.433  0.00  0.00    +0.020 C 
ATOM     12  C   UNL     1      33.308 -21.820 -18.710  0.00  0.00    +0.020 C 
ATOM     13  C   UNL     1      33.517 -21.190 -20.086  0.00  0.00    +0.002 C 
ATOM     14  C   UNL     1      36.017 -21.408 -19.808  0.00  0.00    +0.002 C 
ATOM     15  C   UNL     1      34.864 -20.480 -20.179  0.00  0.00    +0.000 C 
ENDBRANCH   4  10
BRANCH   5  16
ATOM     16  C   UNL     1      31.407 -23.939 -14.771  0.00  0.00    +0.084 C 
ATOM     17  C   UNL     1      30.562 -22.827 -15.399  0.00  0.00    +0.020 C 
ATOM     18  C   UNL     1      30.799 -25.317 -15.037  0.00  0.00    +0.020 C 
ATOM     19  C   UNL     1      29.344 -25.388 -14.583  0.00  0.00    +0.002 C 
ATOM     20  C   UNL     1      29.107 -22.901 -14.942  0.00  0.00    +0.002 C 
ATOM     21  C   UNL     1      28.504 -24.277 -15.205  0.00  0.00    +0.000 C 
ENDBRANCH   5  16
BRANCH   7  24
ATOM     22  O   UNL     1      36.303 -23.160 -13.198  0.00  0.00    -0.274 OA
ATOM     23  N   UNL     1      37.198 -25.137 -14.041  0.00  0.00    -0.294 N 
ATOM     24  C   UNL     1      36.264 -24.119 -13.965  0.00  0.00    +0.240 C 
ATOM     25  H   UNL     1      37.057 -25.856 -14.699  0.00  0.00    +0.150 HD
BRANCH  23  26
ATOM     26  C   UNL     1      38.373 -25.197 -13.202  0.00  0.00    +0.200 C 
BRANCH  26  28
ATOM     27  O   UNL     1      40.647 -25.262 -13.987  0.00  0.00    -0.248 OA
ATOM     28  C   UNL     1      39.559 -25.816 -13.895  0.00  0.00    +0.334 C 
BRANCH  28  29
ATOM     29  O   UNL     1      39.307 -27.044 -14.407  0.00  0.00    -0.479 OA
ATOM     30  H   UNL     1      40.011 -27.646 -14.547  0.00  0.00    +0.295 HD
ENDBRANCH  28  29
ENDBRANCH  26  28
ENDBRANCH  23  26
ENDBRANCH   7  24
TORSDOF 6
ENDMDL
MODEL 6
REMARK VINA RESULT:     -10.3      1.385      2.160
REMARK  Name = 91617630
REMARK  6 active torsions:
REMARK  status: ('A' for Active; 'I' for Inactive)
REMARK    1  A    between atoms: N_4  and  C_10
REMARK    2  A    between atoms: N_5  and  C_16
REMARK    3  A    between atoms: C_7  and  C_24
REMARK    4  A    between atoms: N_23  and  C_26
REMARK    5  A    between atoms: C_26  and  C_28
REMARK    6  A    between atoms: C_28  and  O_29
REMARK                            x       y       z     vdW  Elec       q    Type
REMARK                         _______ _______ _______ _____ _____    ______ ____
ROOT
ATOM      1  O   UNL     1      31.789 -22.781 -17.309  0.00  0.00    -0.252 OA
ATOM      2  O   UNL     1      32.837 -24.607 -13.167  0.00  0.00    -0.273 OA
ATOM      3  O   UNL     1      36.206 -23.612 -16.119  0.00  0.00    -0.273 OA
ATOM      4  N   UNL     1      32.265 -23.603 -15.190  0.00  0.00    -0.215 N 
ATOM      5  N   UNL     1      34.017 -23.095 -16.729  0.00  0.00    -0.215 N 
ATOM      6  C   UNL     1      32.629 -23.116 -16.466  0.00  0.00    +0.319 C 
ATOM      7  C   UNL     1      34.567 -23.488 -14.382  0.00  0.00    +0.229 C 
ATOM      8  C   UNL     1      33.155 -23.979 -14.177  0.00  0.00    +0.250 C 
ATOM      9  C   UNL     1      35.025 -23.430 -15.818  0.00  0.00    +0.250 C 
ENDROOT
BRANCH   4  10
ATOM     10  C   UNL     1      30.856 -23.811 -14.958  0.00  0.00    +0.084 C 
ATOM     11  C   UNL     1      30.340 -24.978 -15.803  0.00  0.00    +0.020 C 
ATOM     12  C   UNL     1      30.067 -22.530 -15.235  0.00  0.00    +0.020 C 
ATOM     13  C   UNL     1      28.566 -22.743 -15.048  0.00  0.00    +0.002 C 
ATOM     14  C   UNL     1      28.839 -25.187 -15.617  0.00  0.00    +0.002 C 
ATOM     15  C   UNL     1      28.054 -23.907 -15.890  0.00  0.00    +0.000 C 
ENDBRANCH   4  10
BRANCH   5  16
ATOM     16  C   UNL     1      34.409 -22.780 -18.082  0.00  0.00    +0.084 C 
ATOM     17  C   UNL     1      33.389 -21.842 -18.737  0.00  0.00    +0.020 C 
ATOM     18  C   UNL     1      35.815 -22.178 -18.107  0.00  0.00    +0.020 C 
ATOM     19  C   UNL     1      36.234 -21.785 -19.521  0.00  0.00    +0.002 C 
ATOM     20  C   UNL     1      33.812 -21.452 -20.151  0.00  0.00    +0.002 C 
ATOM     21  C   UNL     1      35.216 -20.855 -20.173  0.00  0.00    +0.000 C 
ENDBRANCH   5  16
BRANCH   7  24
ATOM     22  O   UNL     1      35.978 -25.332 -13.820  0.00  0.00    -0.274 OA
ATOM     23  N   UNL     1      35.852 -23.524 -12.359  0.00  0.00    -0.294 N 
ATOM     24  C   UNL     1      35.543 -24.225 -13.512  0.00  0.00    +0.240 C 
ATOM     25  H   UNL     1      35.438 -22.641 -12.222  0.00  0.00    +0.150 HD
BRANCH  23  26
ATOM     26  C   UNL     1      36.750 -24.025 -11.344  0.00  0.00    +0.200 C 
BRANCH  26  28
ATOM     27  O   UNL     1      35.257 -25.694 -10.462  0.00  0.00    -0.248 OA
ATOM     28  C   UNL     1      36.038 -24.775 -10.248  0.00  0.00    +0.334 C 
BRANCH  28  29
ATOM     29  O   UNL     1      36.343 -24.336  -9.004  0.00  0.00    -0.479 OA
ATOM     30  H   UNL     1      36.398 -24.944  -8.294  0.00  0.00    +0.295 HD
ENDBRANCH  28  29
ENDBRANCH  26  28
ENDBRANCH  23  26
ENDBRANCH   7  24
TORSDOF 6
ENDMDL
MODEL 7
REMARK VINA RESULT:     -10.1      1.791      6.569
REMARK  Name = 91617630
REMARK  6 active torsions:
REMARK  status: ('A' for Active; 'I' for Inactive)
REMARK    1  A    between atoms: N_4  and  C_10
REMARK    2  A    between atoms: N_5  and  C_16
REMARK    3  A    between atoms: C_7  and  C_24
REMARK    4  A    between atoms: N_23  and  C_26
REMARK    5  A    between atoms: C_26  and  C_28
REMARK    6  A    between atoms: C_28  and  O_29
REMARK                            x       y       z     vdW  Elec       q    Type
REMARK                         _______ _______ _______ _____ _____    ______ ____
ROOT
ATOM      1  O   UNL     1      32.920 -24.430 -12.675  0.00  0.00    -0.252 OA
ATOM      2  O   UNL     1      36.359 -24.045 -15.775  0.00  0.00    -0.273 OA
ATOM      3  O   UNL     1      32.041 -23.182 -17.066  0.00  0.00    -0.273 OA
ATOM      4  N   UNL     1      34.685 -24.157 -14.158  0.00  0.00    -0.215 N 
ATOM      5  N   UNL     1      32.438 -23.718 -14.833  0.00  0.00    -0.215 N 
ATOM      6  C   UNL     1      33.319 -24.107 -13.799  0.00  0.00    +0.319 C 
ATOM      7  C   UNL     1      34.279 -22.964 -16.250  0.00  0.00    +0.229 C 
ATOM      8  C   UNL     1      35.215 -23.787 -15.400  0.00  0.00    +0.250 C 
ATOM      9  C   UNL     1      32.817 -23.312 -16.118  0.00  0.00    +0.250 C 
ENDROOT
BRANCH   4  10
ATOM     10  C   UNL     1      35.587 -24.726 -13.185  0.00  0.00    +0.084 C 
ATOM     11  C   UNL     1      36.543 -23.656 -12.652  0.00  0.00    +0.020 C 
ATOM     12  C   UNL     1      36.351 -25.909 -13.782  0.00  0.00    +0.020 C 
ATOM     13  C   UNL     1      37.351 -26.492 -12.786  0.00  0.00    +0.002 C 
ATOM     14  C   UNL     1      37.545 -24.242 -11.659  0.00  0.00    +0.002 C 
ATOM     15  C   UNL     1      38.303 -25.425 -12.255  0.00  0.00    +0.000 C 
ENDBRANCH   4  10
BRANCH   5  16
ATOM     16  C   UNL     1      31.027 -23.836 -14.552  0.00  0.00    +0.084 C 
ATOM     17  C   UNL     1      30.250 -22.679 -15.187  0.00  0.00    +0.020 C 
ATOM     18  C   UNL     1      30.497 -25.190 -15.027  0.00  0.00    +0.020 C 
ATOM     19  C   UNL     1      28.995 -25.321 -14.790  0.00  0.00    +0.002 C 
ATOM     20  C   UNL     1      28.748 -22.813 -14.949  0.00  0.00    +0.002 C 
ATOM     21  C   UNL     1      28.222 -24.165 -15.420  0.00  0.00    +0.000 C 
ENDBRANCH   5  16
BRANCH   7  24
ATOM     22  O   UNL     1      34.129 -23.561 -18.559  0.00  0.00    -0.274 OA
ATOM     23  N   UNL     1      35.840 -22.140 -17.872  0.00  0.00    -0.294 N 
ATOM     24  C   UNL     1      34.718 -22.929 -17.686  0.00  0.00    +0.240 C 
ATOM     25  H   UNL     1      36.225 -21.680 -17.091  0.00  0.00    +0.150 HD
BRANCH  23  26
ATOM     26  C   UNL     1      36.475 -21.958 -19.157  0.00  0.00    +0.200 C 
BRANCH  26  28
ATOM     27  O   UNL     1      36.579 -19.815 -20.248  0.00  0.00    -0.248 OA
ATOM     28  C   UNL     1      35.914 -20.794 -19.931  0.00  0.00    +0.334 C 
BRANCH  28  29
ATOM     29  O   UNL     1      34.603 -20.931 -20.241  0.00  0.00    -0.479 OA
ATOM     30  H   UNL     1      34.002 -21.258 -19.600  0.00  0.00    +0.295 HD
ENDBRANCH  28  29
ENDBRANCH  26  28
ENDBRANCH  23  26
ENDBRANCH   7  24
TORSDOF 6
ENDMDL
MODEL 8
REMARK VINA RESULT:      -9.3      2.453      7.029
REMARK  Name = 91617630
REMARK  6 active torsions:
REMARK  status: ('A' for Active; 'I' for Inactive)
REMARK    1  A    between atoms: N_4  and  C_10
REMARK    2  A    between atoms: N_5  and  C_16
REMARK    3  A    between atoms: C_7  and  C_24
REMARK    4  A    between atoms: N_23  and  C_26
REMARK    5  A    between atoms: C_26  and  C_28
REMARK    6  A    between atoms: C_28  and  O_29
REMARK                            x       y       z     vdW  Elec       q    Type
REMARK                         _______ _______ _______ _____ _____    ______ ____
ROOT
ATOM      1  O   UNL     1      34.543 -24.178 -13.344  0.00  0.00    -0.252 OA
ATOM      2  O   UNL     1      37.484 -22.882 -16.700  0.00  0.00    -0.273 OA
ATOM      3  O   UNL     1      33.013 -23.294 -17.644  0.00  0.00    -0.273 OA
ATOM      4  N   UNL     1      36.040 -23.439 -14.958  0.00  0.00    -0.215 N 
ATOM      5  N   UNL     1      33.715 -23.663 -15.453  0.00  0.00    -0.215 N 
ATOM      6  C   UNL     1      34.747 -23.772 -14.493  0.00  0.00    +0.319 C 
ATOM      7  C   UNL     1      35.153 -22.440 -17.003  0.00  0.00    +0.229 C 
ATOM      8  C   UNL     1      36.346 -22.953 -16.235  0.00  0.00    +0.250 C 
ATOM      9  C   UNL     1      33.864 -23.185 -16.760  0.00  0.00    +0.250 C 
ENDROOT
BRANCH   4  10
ATOM     10  C   UNL     1      37.137 -23.715 -14.063  0.00  0.00    +0.084 C 
ATOM     11  C   UNL     1      37.492 -25.203 -14.093  0.00  0.00    +0.020 C 
ATOM     12  C   UNL     1      36.807 -23.249 -12.643  0.00  0.00    +0.020 C 
ATOM     13  C   UNL     1      37.934 -23.581 -11.667  0.00  0.00    +0.002 C 
ATOM     14  C   UNL     1      38.617 -25.534 -13.115  0.00  0.00    +0.002 C 
ATOM     15  C   UNL     1      38.288 -25.065 -11.700  0.00  0.00    +0.000 C 
ENDBRANCH   4  10
BRANCH   5  16
ATOM     16  C   UNL     1      32.421 -24.170 -15.064  0.00  0.00    +0.084 C 
ATOM     17  C   UNL     1      32.555 -25.164 -13.905  0.00  0.00    +0.020 C 
ATOM     18  C   UNL     1      31.480 -23.020 -14.704  0.00  0.00    +0.020 C 
ATOM     19  C   UNL     1      30.120 -23.530 -14.236  0.00  0.00    +0.002 C 
ATOM     20  C   UNL     1      31.193 -25.672 -13.441  0.00  0.00    +0.002 C 
ATOM     21  C   UNL     1      30.255 -24.522 -13.085  0.00  0.00    +0.000 C 
ENDBRANCH   5  16
BRANCH   7  24
ATOM     22  O   UNL     1      35.048 -23.121 -19.292  0.00  0.00    -0.274 OA
ATOM     23  N   UNL     1      36.231 -21.193 -18.743  0.00  0.00    -0.294 N 
ATOM     24  C   UNL     1      35.453 -22.304 -18.469  0.00  0.00    +0.240 C 
ATOM     25  H   UNL     1      36.495 -20.609 -17.996  0.00  0.00    +0.150 HD
BRANCH  23  26
ATOM     26  C   UNL     1      36.678 -20.849 -20.074  0.00  0.00    +0.200 C 
BRANCH  26  28
ATOM     27  O   UNL     1      36.145 -18.601 -20.752  0.00  0.00    -0.248 OA
ATOM     28  C   UNL     1      35.829 -19.785 -20.721  0.00  0.00    +0.334 C 
BRANCH  28  29
ATOM     29  O   UNL     1      34.684 -20.261 -21.264  0.00  0.00    -0.479 OA
ATOM     30  H   UNL     1      34.422 -21.146 -21.103  0.00  0.00    +0.295 HD
ENDBRANCH  28  29
ENDBRANCH  26  28
ENDBRANCH  23  26
ENDBRANCH   7  24
TORSDOF 6
ENDMDL
MODEL 9
REMARK VINA RESULT:      -7.8      1.929      5.289
REMARK  Name = 91617630
REMARK  6 active torsions:
REMARK  status: ('A' for Active; 'I' for Inactive)
REMARK    1  A    between atoms: N_4  and  C_10
REMARK    2  A    between atoms: N_5  and  C_16
REMARK    3  A    between atoms: C_7  and  C_24
REMARK    4  A    between atoms: N_23  and  C_26
REMARK    5  A    between atoms: C_26  and  C_28
REMARK    6  A    between atoms: C_28  and  O_29
REMARK                            x       y       z     vdW  Elec       q    Type
REMARK                         _______ _______ _______ _____ _____    ______ ____
ROOT
ATOM      1  O   UNL     1      32.718 -24.799 -13.874  0.00  0.00    -0.252 OA
ATOM      2  O   UNL     1      32.598 -22.625 -17.980  0.00  0.00    -0.273 OA
ATOM      3  O   UNL     1      36.632 -23.334 -15.911  0.00  0.00    -0.273 OA
ATOM      4  N   UNL     1      32.611 -23.806 -15.971  0.00  0.00    -0.215 N 
ATOM      5  N   UNL     1      34.709 -24.166 -14.890  0.00  0.00    -0.215 N 
ATOM      6  C   UNL     1      33.303 -24.311 -14.847  0.00  0.00    +0.319 C 
ATOM      7  C   UNL     1      34.672 -23.575 -17.260  0.00  0.00    +0.229 C 
ATOM      8  C   UNL     1      33.203 -23.262 -17.116  0.00  0.00    +0.250 C 
ATOM      9  C   UNL     1      35.443 -23.652 -15.965  0.00  0.00    +0.250 C 
ENDROOT
BRANCH   4  10
ATOM     10  C   UNL     1      31.171 -23.771 -15.878  0.00  0.00    +0.084 C 
ATOM     11  C   UNL     1      30.725 -22.697 -14.883  0.00  0.00    +0.020 C 
ATOM     12  C   UNL     1      30.620 -25.147 -15.498  0.00  0.00    +0.020 C 
ATOM     13  C   UNL     1      29.101 -25.119 -15.341  0.00  0.00    +0.002 C 
ATOM     14  C   UNL     1      29.206 -22.674 -14.724  0.00  0.00    +0.002 C 
ATOM     15  C   UNL     1      28.658 -24.048 -14.350  0.00  0.00    +0.000 C 
ENDBRANCH   4  10
BRANCH   5  16
ATOM     16  C   UNL     1      35.426 -24.501 -13.683  0.00  0.00    +0.084 C 
ATOM     17  C   UNL     1      36.425 -25.632 -13.944  0.00  0.00    +0.020 C 
ATOM     18  C   UNL     1      36.121 -23.264 -13.111  0.00  0.00    +0.020 C 
ATOM     19  C   UNL     1      36.932 -23.601 -11.863  0.00  0.00    +0.002 C 
ATOM     20  C   UNL     1      37.234 -25.966 -12.693  0.00  0.00    +0.002 C 
ATOM     21  C   UNL     1      37.924 -24.731 -12.123  0.00  0.00    +0.000 C 
ENDBRANCH   5  16
BRANCH   7  24
ATOM     22  O   UNL     1      35.127 -22.766 -19.462  0.00  0.00    -0.274 OA
ATOM     23  N   UNL     1      36.200 -21.770 -17.652  0.00  0.00    -0.294 N 
ATOM     24  C   UNL     1      35.339 -22.670 -18.256  0.00  0.00    +0.240 C 
ATOM     25  H   UNL     1      36.285 -21.789 -16.671  0.00  0.00    +0.150 HD
BRANCH  23  26
ATOM     26  C   UNL     1      36.981 -20.805 -18.391  0.00  0.00    +0.200 C 
BRANCH  26  28
ATOM     27  O   UNL     1      38.565 -19.063 -17.887  0.00  0.00    -0.248 OA
ATOM     28  C   UNL     1      37.988 -20.084 -17.532  0.00  0.00    +0.334 C 
BRANCH  28  29
ATOM     29  O   UNL     1      38.196 -20.673 -16.330  0.00  0.00    -0.479 OA
ATOM     30  H   UNL     1      37.470 -20.854 -15.767  0.00  0.00    +0.295 HD
ENDBRANCH  28  29
ENDBRANCH  26  28
ENDBRANCH  23  26
ENDBRANCH   7  24
TORSDOF 6
ENDMDL
