MODEL 1
REMARK VINA RESULT:     -12.0      0.000      0.000
REMARK  Name = 10157080
REMARK  5 active torsions:
REMARK  status: ('A' for Active; 'I' for Inactive)
REMARK    1  A    between atoms: C_3  and  O_8
REMARK    2  A    between atoms: C_6  and  O_18
REMARK    3  A    between atoms: O_8  and  C_13
REMARK    4  A    between atoms: O_18  and  C_20
REMARK    5  A    between atoms: C_19  and  N_25
REMARK                            x       y       z     vdW  Elec       q    Type
REMARK                         _______ _______ _______ _____ _____    ______ ____
ROOT
ATOM      1  N   UNL     1      34.584 -23.435 -16.363  0.00  0.00    -0.277 NA
ATOM      2  N   UNL     1      32.207 -23.484 -16.756  0.00  0.00    -0.319 NA
ATOM      3  C   UNL     1      34.315 -23.307 -15.054  0.00  0.00    +0.278 C 
ATOM      4  C   UNL     1      33.054 -23.258 -14.514  0.00  0.00    +0.156 C 
ATOM      5  C   UNL     1      32.022 -23.353 -15.426  0.00  0.00    +0.113 C 
ATOM      6  C   UNL     1      33.495 -23.517 -17.150  0.00  0.00    +0.317 C 
ATOM      7  C   UNL     1      30.610 -23.311 -14.945  0.00  0.00    +0.063 C 
ENDROOT
BRANCH   3   8
ATOM      8  O   UNL     1      35.405 -23.222 -14.205  0.00  0.00    -0.429 OA
BRANCH   8  13
ATOM      9  O   UNL     1      39.922 -24.861 -14.609  0.00  0.00    -0.435 OA
ATOM     10  O   UNL     1      39.198 -27.153 -14.422  0.00  0.00    -0.435 OA
ATOM     11  C   UNL     1      38.573 -24.967 -14.460  0.00  0.00    +0.179 C 
ATOM     12  C   UNL     1      38.160 -26.275 -14.353  0.00  0.00    +0.177 C 
ATOM     13  C   UNL     1      36.326 -24.224 -14.256  0.00  0.00    +0.151 C 
ATOM     14  C   UNL     1      37.679 -23.917 -14.415  0.00  0.00    +0.078 C 
ATOM     15  C   UNL     1      36.830 -26.606 -14.196  0.00  0.00    +0.043 C 
ATOM     16  C   UNL     1      35.903 -25.562 -14.147  0.00  0.00    +0.041 C 
ATOM     17  C   UNL     1      40.311 -26.250 -14.583  0.00  0.00    +0.429 C 
ENDBRANCH   8  13
ENDBRANCH   3   8
BRANCH   6  18
ATOM     18  O   UNL     1      33.721 -23.646 -18.501  0.00  0.00    -0.375 OA
BRANCH  18  20
ATOM     19  C   UNL     1      34.575 -20.181 -20.618  0.00  0.00    +0.057 C 
ATOM     20  C   UNL     1      34.005 -22.496 -19.203  0.00  0.00    +0.161 C 
ATOM     21  C   UNL     1      33.251 -20.520 -20.341  0.00  0.00    +0.018 C 
ATOM     22  C   UNL     1      35.612 -21.006 -20.184  0.00  0.00    +0.018 C 
ATOM     23  C   UNL     1      32.963 -21.684 -19.629  0.00  0.00    +0.040 C 
ATOM     24  C   UNL     1      35.326 -22.170 -19.471  0.00  0.00    +0.040 C 
BRANCH  19  25
ATOM     25  N   UNL     1      34.860 -19.026 -21.325  0.00  0.00    -0.246 N 
ATOM     26  N   UNL     1      35.175 -16.861 -21.751  0.00  0.00    -0.224 NA
ATOM     27  C   UNL     1      35.195 -18.940 -22.653  0.00  0.00    +0.092 C 
ATOM     28  C   UNL     1      34.862 -17.746 -20.830  0.00  0.00    +0.172 C 
ATOM     29  C   UNL     1      35.382 -17.599 -22.889  0.00  0.00    +0.117 C 
ENDBRANCH  19  25
ENDBRANCH  18  20
ENDBRANCH   6  18
TORSDOF 5
ENDMDL
MODEL 2
REMARK VINA RESULT:     -11.2      2.596      5.500
REMARK  Name = 10157080
REMARK  5 active torsions:
REMARK  status: ('A' for Active; 'I' for Inactive)
REMARK    1  A    between atoms: C_3  and  O_8
REMARK    2  A    between atoms: C_6  and  O_18
REMARK    3  A    between atoms: O_8  and  C_13
REMARK    4  A    between atoms: O_18  and  C_20
REMARK    5  A    between atoms: C_19  and  N_25
REMARK                            x       y       z     vdW  Elec       q    Type
REMARK                         _______ _______ _______ _____ _____    ______ ____
ROOT
ATOM      1  N   UNL     1      33.339 -23.609 -16.279  0.00  0.00    -0.277 NA
ATOM      2  N   UNL     1      35.609 -22.989 -16.801  0.00  0.00    -0.319 NA
ATOM      3  C   UNL     1      33.667 -23.525 -14.980  0.00  0.00    +0.278 C 
ATOM      4  C   UNL     1      34.912 -23.190 -14.506  0.00  0.00    +0.156 C 
ATOM      5  C   UNL     1      35.857 -22.927 -15.476  0.00  0.00    +0.113 C 
ATOM      6  C   UNL     1      34.347 -23.331 -17.127  0.00  0.00    +0.317 C 
ATOM      7  C   UNL     1      37.243 -22.553 -15.070  0.00  0.00    +0.063 C 
ENDROOT
BRANCH   3   8
ATOM      8  O   UNL     1      32.661 -23.800 -14.070  0.00  0.00    -0.429 OA
BRANCH   8  13
ATOM      9  O   UNL     1      28.824 -22.346 -16.602  0.00  0.00    -0.435 OA
ATOM     10  O   UNL     1      27.608 -24.359 -16.077  0.00  0.00    -0.435 OA
ATOM     11  C   UNL     1      29.543 -23.194 -15.819  0.00  0.00    +0.179 C 
ATOM     12  C   UNL     1      28.849 -24.344 -15.519  0.00  0.00    +0.177 C 
ATOM     13  C   UNL     1      31.399 -23.969 -14.555  0.00  0.00    +0.151 C 
ATOM     14  C   UNL     1      30.822 -22.977 -15.351  0.00  0.00    +0.078 C 
ATOM     15  C   UNL     1      29.395 -25.340 -14.735  0.00  0.00    +0.043 C 
ATOM     16  C   UNL     1      30.690 -25.144 -14.249  0.00  0.00    +0.041 C 
ATOM     17  C   UNL     1      27.599 -23.091 -16.763  0.00  0.00    +0.429 C 
ENDBRANCH   8  13
ENDBRANCH   3   8
BRANCH   6  18
ATOM     18  O   UNL     1      34.059 -23.407 -18.470  0.00  0.00    -0.375 OA
BRANCH  18  20
ATOM     19  C   UNL     1      34.695 -19.993 -20.742  0.00  0.00    +0.057 C 
ATOM     20  C   UNL     1      34.270 -22.273 -19.224  0.00  0.00    +0.161 C 
ATOM     21  C   UNL     1      33.400 -20.349 -20.367  0.00  0.00    +0.018 C 
ATOM     22  C   UNL     1      35.776 -20.783 -20.353  0.00  0.00    +0.018 C 
ATOM     23  C   UNL     1      33.186 -21.497 -19.603  0.00  0.00    +0.040 C 
ATOM     24  C   UNL     1      35.563 -21.930 -19.589  0.00  0.00    +0.040 C 
BRANCH  19  25
ATOM     25  N   UNL     1      34.907 -18.855 -21.500  0.00  0.00    -0.246 N 
ATOM     26  N   UNL     1      35.168 -16.700 -22.006  0.00  0.00    -0.224 NA
ATOM     27  C   UNL     1      35.119 -18.801 -22.854  0.00  0.00    +0.092 C 
ATOM     28  C   UNL     1      34.946 -17.562 -21.039  0.00  0.00    +0.172 C 
ATOM     29  C   UNL     1      35.276 -17.466 -23.139  0.00  0.00    +0.117 C 
ENDBRANCH  19  25
ENDBRANCH  18  20
ENDBRANCH   6  18
TORSDOF 5
ENDMDL
MODEL 3
REMARK VINA RESULT:     -10.7      1.646      2.431
REMARK  Name = 10157080
REMARK  5 active torsions:
REMARK  status: ('A' for Active; 'I' for Inactive)
REMARK    1  A    between atoms: C_3  and  O_8
REMARK    2  A    between atoms: C_6  and  O_18
REMARK    3  A    between atoms: O_8  and  C_13
REMARK    4  A    between atoms: O_18  and  C_20
REMARK    5  A    between atoms: C_19  and  N_25
REMARK                            x       y       z     vdW  Elec       q    Type
REMARK                         _______ _______ _______ _____ _____    ______ ____
ROOT
ATOM      1  N   UNL     1      36.537 -22.217 -17.588  0.00  0.00    -0.277 NA
ATOM      2  N   UNL     1      34.348 -22.940 -18.291  0.00  0.00    -0.319 NA
ATOM      3  C   UNL     1      36.168 -22.492 -16.326  0.00  0.00    +0.278 C 
ATOM      4  C   UNL     1      34.938 -22.981 -15.958  0.00  0.00    +0.156 C 
ATOM      5  C   UNL     1      34.055 -23.189 -16.998  0.00  0.00    +0.113 C 
ATOM      6  C   UNL     1      35.588 -22.462 -18.511  0.00  0.00    +0.317 C 
ATOM      7  C   UNL     1      32.691 -23.719 -16.709  0.00  0.00    +0.063 C 
ENDROOT
BRANCH   3   8
ATOM      8  O   UNL     1      37.112 -22.259 -15.342  0.00  0.00    -0.429 OA
BRANCH   8  13
ATOM      9  O   UNL     1      40.390 -25.793 -15.184  0.00  0.00    -0.435 OA
ATOM     10  O   UNL     1      39.531 -26.612 -13.086  0.00  0.00    -0.435 OA
ATOM     11  C   UNL     1      39.334 -25.061 -14.737  0.00  0.00    +0.179 C 
ATOM     12  C   UNL     1      38.844 -25.528 -13.539  0.00  0.00    +0.177 C 
ATOM     13  C   UNL     1      37.693 -23.343 -14.754  0.00  0.00    +0.151 C 
ATOM     14  C   UNL     1      38.779 -23.968 -15.370  0.00  0.00    +0.078 C 
ATOM     15  C   UNL     1      37.772 -24.929 -12.909  0.00  0.00    +0.043 C 
ATOM     16  C   UNL     1      37.192 -23.821 -13.530  0.00  0.00    +0.041 C 
ATOM     17  C   UNL     1      40.510 -26.773 -14.133  0.00  0.00    +0.429 C 
ENDBRANCH   8  13
ENDBRANCH   3   8
BRANCH   6  18
ATOM     18  O   UNL     1      35.920 -22.193 -19.819  0.00  0.00    -0.375 OA
BRANCH  18  20
ATOM     19  C   UNL     1      35.226 -18.338 -21.193  0.00  0.00    +0.057 C 
ATOM     20  C   UNL     1      35.689 -20.913 -20.275  0.00  0.00    +0.161 C 
ATOM     21  C   UNL     1      36.532 -18.777 -20.976  0.00  0.00    +0.018 C 
ATOM     22  C   UNL     1      34.153 -19.195 -20.949  0.00  0.00    +0.018 C 
ATOM     23  C   UNL     1      36.766 -20.072 -20.514  0.00  0.00    +0.040 C 
ATOM     24  C   UNL     1      34.386 -20.491 -20.488  0.00  0.00    +0.040 C 
BRANCH  19  25
ATOM     25  N   UNL     1      34.995 -17.054 -21.650  0.00  0.00    -0.246 N 
ATOM     26  N   UNL     1      34.915 -15.313 -23.040  0.00  0.00    -0.224 NA
ATOM     27  C   UNL     1      34.474 -16.009 -20.929  0.00  0.00    +0.092 C 
ATOM     28  C   UNL     1      35.243 -16.579 -22.914  0.00  0.00    +0.172 C 
ATOM     29  C   UNL     1      34.436 -14.952 -21.807  0.00  0.00    +0.117 C 
ENDBRANCH  19  25
ENDBRANCH  18  20
ENDBRANCH   6  18
TORSDOF 5
ENDMDL
MODEL 4
REMARK VINA RESULT:     -10.5      2.015      3.112
REMARK  Name = 10157080
REMARK  5 active torsions:
REMARK  status: ('A' for Active; 'I' for Inactive)
REMARK    1  A    between atoms: C_3  and  O_8
REMARK    2  A    between atoms: C_6  and  O_18
REMARK    3  A    between atoms: O_8  and  C_13
REMARK    4  A    between atoms: O_18  and  C_20
REMARK    5  A    between atoms: C_19  and  N_25
REMARK                            x       y       z     vdW  Elec       q    Type
REMARK                         _______ _______ _______ _____ _____    ______ ____
ROOT
ATOM      1  N   UNL     1      36.642 -22.388 -17.646  0.00  0.00    -0.277 NA
ATOM      2  N   UNL     1      34.389 -22.751 -18.424  0.00  0.00    -0.319 NA
ATOM      3  C   UNL     1      36.215 -22.710 -16.414  0.00  0.00    +0.278 C 
ATOM      4  C   UNL     1      34.924 -23.056 -16.097  0.00  0.00    +0.156 C 
ATOM      5  C   UNL     1      34.041 -23.061 -17.158  0.00  0.00    +0.113 C 
ATOM      6  C   UNL     1      35.686 -22.429 -18.594  0.00  0.00    +0.317 C 
ATOM      7  C   UNL     1      32.614 -23.424 -16.924  0.00  0.00    +0.063 C 
ENDROOT
BRANCH   3   8
ATOM      8  O   UNL     1      37.163 -22.684 -15.406  0.00  0.00    -0.429 OA
BRANCH   8  13
ATOM      9  O   UNL     1      35.280 -24.038 -11.178  0.00  0.00    -0.435 OA
ATOM     10  O   UNL     1      36.478 -26.129 -11.217  0.00  0.00    -0.435 OA
ATOM     11  C   UNL     1      36.051 -24.171 -12.291  0.00  0.00    +0.179 C 
ATOM     12  C   UNL     1      36.734 -25.366 -12.314  0.00  0.00    +0.177 C 
ATOM     13  C   UNL     1      37.014 -23.564 -14.377  0.00  0.00    +0.151 C 
ATOM     14  C   UNL     1      36.170 -23.248 -13.310  0.00  0.00    +0.078 C 
ATOM     15  C   UNL     1      37.575 -25.702 -13.356  0.00  0.00    +0.043 C 
ATOM     16  C   UNL     1      37.712 -24.785 -14.400  0.00  0.00    +0.041 C 
ATOM     17  C   UNL     1      35.555 -25.282 -10.502  0.00  0.00    +0.429 C 
ENDBRANCH   8  13
ENDBRANCH   3   8
BRANCH   6  18
ATOM     18  O   UNL     1      36.076 -22.103 -19.873  0.00  0.00    -0.375 OA
BRANCH  18  20
ATOM     19  C   UNL     1      35.262 -18.249 -21.178  0.00  0.00    +0.057 C 
ATOM     20  C   UNL     1      35.805 -20.824 -20.306  0.00  0.00    +0.161 C 
ATOM     21  C   UNL     1      36.577 -18.635 -20.922  0.00  0.00    +0.018 C 
ATOM     22  C   UNL     1      34.220 -19.158 -20.996  0.00  0.00    +0.018 C 
ATOM     23  C   UNL     1      36.852 -19.931 -20.483  0.00  0.00    +0.040 C 
ATOM     24  C   UNL     1      34.493 -20.454 -20.558  0.00  0.00    +0.040 C 
BRANCH  19  25
ATOM     25  N   UNL     1      34.990 -16.964 -21.612  0.00  0.00    -0.246 N 
ATOM     26  N   UNL     1      34.846 -15.205 -22.974  0.00  0.00    -0.224 NA
ATOM     27  C   UNL     1      34.450 -15.945 -20.868  0.00  0.00    +0.092 C 
ATOM     28  C   UNL     1      35.210 -16.464 -22.872  0.00  0.00    +0.172 C 
ATOM     29  C   UNL     1      34.372 -14.876 -21.729  0.00  0.00    +0.117 C 
ENDBRANCH  19  25
ENDBRANCH  18  20
ENDBRANCH   6  18
TORSDOF 5
ENDMDL
MODEL 5
REMARK VINA RESULT:     -10.5      3.735     10.045
REMARK  Name = 10157080
REMARK  5 active torsions:
REMARK  status: ('A' for Active; 'I' for Inactive)
REMARK    1  A    between atoms: C_3  and  O_8
REMARK    2  A    between atoms: C_6  and  O_18
REMARK    3  A    between atoms: O_8  and  C_13
REMARK    4  A    between atoms: O_18  and  C_20
REMARK    5  A    between atoms: C_19  and  N_25
REMARK                            x       y       z     vdW  Elec       q    Type
REMARK                         _______ _______ _______ _____ _____    ______ ____
ROOT
ATOM      1  N   UNL     1      36.683 -19.825 -20.529  0.00  0.00    -0.277 NA
ATOM      2  N   UNL     1      34.786 -21.091 -19.748  0.00  0.00    -0.319 NA
ATOM      3  C   UNL     1      35.825 -19.062 -21.225  0.00  0.00    +0.278 C 
ATOM      4  C   UNL     1      34.463 -19.234 -21.246  0.00  0.00    +0.156 C 
ATOM      5  C   UNL     1      33.992 -20.279 -20.477  0.00  0.00    +0.113 C 
ATOM      6  C   UNL     1      36.102 -20.811 -19.819  0.00  0.00    +0.317 C 
ATOM      7  C   UNL     1      32.527 -20.554 -20.427  0.00  0.00    +0.063 C 
ENDROOT
BRANCH   3   8
ATOM      8  O   UNL     1      36.376 -18.033 -21.968  0.00  0.00    -0.429 OA
BRANCH   8  13
ATOM      9  O   UNL     1      34.052 -16.206 -25.778  0.00  0.00    -0.435 OA
ATOM     10  O   UNL     1      32.968 -14.534 -24.422  0.00  0.00    -0.435 OA
ATOM     11  C   UNL     1      34.406 -16.294 -24.467  0.00  0.00    +0.179 C 
ATOM     12  C   UNL     1      33.787 -15.339 -23.693  0.00  0.00    +0.177 C 
ATOM     13  C   UNL     1      35.521 -17.146 -22.550  0.00  0.00    +0.151 C 
ATOM     14  C   UNL     1      35.280 -17.213 -23.924  0.00  0.00    +0.078 C 
ATOM     15  C   UNL     1      34.008 -15.251 -22.333  0.00  0.00    +0.043 C 
ATOM     16  C   UNL     1      34.888 -16.171 -21.759  0.00  0.00    +0.041 C 
ATOM     17  C   UNL     1      33.139 -15.089 -25.741  0.00  0.00    +0.429 C 
ENDBRANCH   8  13
ENDBRANCH   3   8
BRANCH   6  18
ATOM     18  O   UNL     1      36.943 -21.620 -19.091  0.00  0.00    -0.375 OA
BRANCH  18  20
ATOM     19  C   UNL     1      35.465 -23.175 -15.538  0.00  0.00    +0.057 C 
ATOM     20  C   UNL     1      36.453 -22.137 -17.911  0.00  0.00    +0.161 C 
ATOM     21  C   UNL     1      34.700 -23.246 -16.701  0.00  0.00    +0.018 C 
ATOM     22  C   UNL     1      36.727 -22.582 -15.568  0.00  0.00    +0.018 C 
ATOM     23  C   UNL     1      35.197 -22.724 -17.896  0.00  0.00    +0.040 C 
ATOM     24  C   UNL     1      37.225 -22.060 -16.762  0.00  0.00    +0.040 C 
BRANCH  19  25
ATOM     25  N   UNL     1      34.973 -23.692 -14.353  0.00  0.00    -0.246 N 
ATOM     26  N   UNL     1      33.514 -24.487 -12.867  0.00  0.00    -0.224 NA
ATOM     27  C   UNL     1      35.695 -23.983 -13.223  0.00  0.00    +0.092 C 
ATOM     28  C   UNL     1      33.665 -24.014 -14.084  0.00  0.00    +0.172 C 
ATOM     29  C   UNL     1      34.774 -24.470 -12.326  0.00  0.00    +0.117 C 
ENDBRANCH  19  25
ENDBRANCH  18  20
ENDBRANCH   6  18
TORSDOF 5
ENDMDL
MODEL 6
REMARK VINA RESULT:     -10.3      1.972      2.964
REMARK  Name = 10157080
REMARK  5 active torsions:
REMARK  status: ('A' for Active; 'I' for Inactive)
REMARK    1  A    between atoms: C_3  and  O_8
REMARK    2  A    between atoms: C_6  and  O_18
REMARK    3  A    between atoms: O_8  and  C_13
REMARK    4  A    between atoms: O_18  and  C_20
REMARK    5  A    between atoms: C_19  and  N_25
REMARK                            x       y       z     vdW  Elec       q    Type
REMARK                         _______ _______ _______ _____ _____    ______ ____
ROOT
ATOM      1  N   UNL     1      34.724 -23.848 -16.786  0.00  0.00    -0.277 NA
ATOM      2  N   UNL     1      32.395 -23.282 -16.532  0.00  0.00    -0.319 NA
ATOM      3  C   UNL     1      34.823 -23.833 -15.447  0.00  0.00    +0.278 C 
ATOM      4  C   UNL     1      33.788 -23.559 -14.588  0.00  0.00    +0.156 C 
ATOM      5  C   UNL     1      32.579 -23.286 -15.195  0.00  0.00    +0.113 C 
ATOM      6  C   UNL     1      33.494 -23.567 -17.257  0.00  0.00    +0.317 C 
ATOM      7  C   UNL     1      31.387 -22.975 -14.353  0.00  0.00    +0.063 C 
ENDROOT
BRANCH   3   8
ATOM      8  O   UNL     1      36.069 -24.120 -14.917  0.00  0.00    -0.429 OA
BRANCH   8  13
ATOM      9  O   UNL     1      34.962 -25.566 -10.451  0.00  0.00    -0.435 OA
ATOM     10  O   UNL     1      36.526 -24.017  -9.470  0.00  0.00    -0.435 OA
ATOM     11  C   UNL     1      35.615 -24.828 -11.389  0.00  0.00    +0.179 C 
ATOM     12  C   UNL     1      36.508 -23.943 -10.829  0.00  0.00    +0.177 C 
ATOM     13  C   UNL     1      36.205 -24.070 -13.562  0.00  0.00    +0.151 C 
ATOM     14  C   UNL     1      35.441 -24.915 -12.755  0.00  0.00    +0.078 C 
ATOM     15  C   UNL     1      37.275 -23.097 -11.603  0.00  0.00    +0.043 C 
ATOM     16  C   UNL     1      37.118 -23.166 -12.989  0.00  0.00    +0.041 C 
ATOM     17  C   UNL     1      35.545 -25.048  -9.238  0.00  0.00    +0.429 C 
ENDBRANCH   8  13
ENDBRANCH   3   8
BRANCH   6  18
ATOM     18  O   UNL     1      33.345 -23.567 -18.624  0.00  0.00    -0.375 OA
BRANCH  18  20
ATOM     19  C   UNL     1      34.493 -20.135 -20.655  0.00  0.00    +0.057 C 
ATOM     20  C   UNL     1      33.726 -22.428 -19.299  0.00  0.00    +0.161 C 
ATOM     21  C   UNL     1      35.461 -21.015 -20.172  0.00  0.00    +0.018 C 
ATOM     22  C   UNL     1      33.140 -20.407 -20.456  0.00  0.00    +0.018 C 
ATOM     23  C   UNL     1      35.075 -22.170 -19.490  0.00  0.00    +0.040 C 
ATOM     24  C   UNL     1      32.753 -21.561 -19.774  0.00  0.00    +0.040 C 
BRANCH  19  25
ATOM     25  N   UNL     1      34.876 -18.990 -21.331  0.00  0.00    -0.246 N 
ATOM     26  N   UNL     1      35.619 -17.687 -22.980  0.00  0.00    -0.224 NA
ATOM     27  C   UNL     1      34.866 -17.708 -20.842  0.00  0.00    +0.092 C 
ATOM     28  C   UNL     1      35.338 -18.920 -22.622  0.00  0.00    +0.172 C 
ATOM     29  C   UNL     1      35.327 -16.927 -21.875  0.00  0.00    +0.117 C 
ENDBRANCH  19  25
ENDBRANCH  18  20
ENDBRANCH   6  18
TORSDOF 5
ENDMDL
MODEL 7
REMARK VINA RESULT:     -10.2      4.151      8.159
REMARK  Name = 10157080
REMARK  5 active torsions:
REMARK  status: ('A' for Active; 'I' for Inactive)
REMARK    1  A    between atoms: C_3  and  O_8
REMARK    2  A    between atoms: C_6  and  O_18
REMARK    3  A    between atoms: O_8  and  C_13
REMARK    4  A    between atoms: O_18  and  C_20
REMARK    5  A    between atoms: C_19  and  N_25
REMARK                            x       y       z     vdW  Elec       q    Type
REMARK                         _______ _______ _______ _____ _____    ______ ____
ROOT
ATOM      1  N   UNL     1      35.798 -17.785 -22.062  0.00  0.00    -0.277 NA
ATOM      2  N   UNL     1      34.596 -17.656 -24.148  0.00  0.00    -0.319 NA
ATOM      3  C   UNL     1      35.555 -19.106 -22.062  0.00  0.00    +0.278 C 
ATOM      4  C   UNL     1      34.857 -19.776 -23.037  0.00  0.00    +0.156 C 
ATOM      5  C   UNL     1      34.395 -18.988 -24.071  0.00  0.00    +0.113 C 
ATOM      6  C   UNL     1      35.295 -17.128 -23.125  0.00  0.00    +0.317 C 
ATOM      7  C   UNL     1      33.624 -19.615 -25.184  0.00  0.00    +0.063 C 
ENDROOT
BRANCH   3   8
ATOM      8  O   UNL     1      36.056 -19.825 -20.990  0.00  0.00    -0.429 OA
BRANCH   8  13
ATOM      9  O   UNL     1      34.995 -23.185 -17.698  0.00  0.00    -0.435 OA
ATOM     10  O   UNL     1      32.627 -22.842 -17.987  0.00  0.00    -0.435 OA
ATOM     11  C   UNL     1      34.720 -22.228 -18.625  0.00  0.00    +0.179 C 
ATOM     12  C   UNL     1      33.368 -22.032 -18.790  0.00  0.00    +0.177 C 
ATOM     13  C   UNL     1      35.175 -20.562 -20.257  0.00  0.00    +0.151 C 
ATOM     14  C   UNL     1      35.651 -21.507 -19.345  0.00  0.00    +0.078 C 
ATOM     15  C   UNL     1      32.872 -21.105 -19.685  0.00  0.00    +0.043 C 
ATOM     16  C   UNL     1      33.793 -20.362 -20.426  0.00  0.00    +0.041 C 
ATOM     17  C   UNL     1      33.663 -23.569 -17.298  0.00  0.00    +0.429 C 
ENDBRANCH   8  13
ENDBRANCH   3   8
BRANCH   6  18
ATOM     18  O   UNL     1      35.515 -15.771 -23.167  0.00  0.00    -0.375 OA
BRANCH  18  20
ATOM     19  C   UNL     1      32.775 -13.342 -21.214  0.00  0.00    +0.057 C 
ATOM     20  C   UNL     1      34.605 -14.965 -22.519  0.00  0.00    +0.161 C 
ATOM     21  C   UNL     1      33.200 -13.018 -22.503  0.00  0.00    +0.018 C 
ATOM     22  C   UNL     1      33.271 -14.482 -20.582  0.00  0.00    +0.018 C 
ATOM     23  C   UNL     1      34.120 -13.835 -23.160  0.00  0.00    +0.040 C 
ATOM     24  C   UNL     1      34.191 -15.299 -21.238  0.00  0.00    +0.040 C 
BRANCH  19  25
ATOM     25  N   UNL     1      31.863 -12.531 -20.563  0.00  0.00    -0.246 N 
ATOM     26  N   UNL     1      30.102 -11.201 -20.246  0.00  0.00    -0.224 NA
ATOM     27  C   UNL     1      31.862 -12.205 -19.230  0.00  0.00    +0.092 C 
ATOM     28  C   UNL     1      30.783 -11.900 -21.128  0.00  0.00    +0.172 C 
ATOM     29  C   UNL     1      30.770 -11.387 -19.062  0.00  0.00    +0.117 C 
ENDBRANCH  19  25
ENDBRANCH  18  20
ENDBRANCH   6  18
TORSDOF 5
ENDMDL
MODEL 8
REMARK VINA RESULT:     -10.0      4.464     10.536
REMARK  Name = 10157080
REMARK  5 active torsions:
REMARK  status: ('A' for Active; 'I' for Inactive)
REMARK    1  A    between atoms: C_3  and  O_8
REMARK    2  A    between atoms: C_6  and  O_18
REMARK    3  A    between atoms: O_8  and  C_13
REMARK    4  A    between atoms: O_18  and  C_20
REMARK    5  A    between atoms: C_19  and  N_25
REMARK                            x       y       z     vdW  Elec       q    Type
REMARK                         _______ _______ _______ _____ _____    ______ ____
ROOT
ATOM      1  N   UNL     1      35.530 -18.254 -20.708  0.00  0.00    -0.277 NA
ATOM      2  N   UNL     1      35.443 -19.222 -22.914  0.00  0.00    -0.319 NA
ATOM      3  C   UNL     1      34.966 -17.150 -21.225  0.00  0.00    +0.278 C 
ATOM      4  C   UNL     1      34.615 -16.992 -22.543  0.00  0.00    +0.156 C 
ATOM      5  C   UNL     1      34.880 -18.077 -23.354  0.00  0.00    +0.113 C 
ATOM      6  C   UNL     1      35.738 -19.241 -21.599  0.00  0.00    +0.317 C 
ATOM      7  C   UNL     1      34.538 -18.012 -24.804  0.00  0.00    +0.063 C 
ENDROOT
BRANCH   3   8
ATOM      8  O   UNL     1      34.729 -16.108 -20.345  0.00  0.00    -0.429 OA
BRANCH   8  13
ATOM      9  O   UNL     1      34.178 -12.349 -23.314  0.00  0.00    -0.435 OA
ATOM     10  O   UNL     1      32.064 -11.761 -22.316  0.00  0.00    -0.435 OA
ATOM     11  C   UNL     1      33.829 -13.194 -22.306  0.00  0.00    +0.179 C 
ATOM     12  C   UNL     1      32.622 -12.859 -21.737  0.00  0.00    +0.177 C 
ATOM     13  C   UNL     1      34.041 -15.030 -20.813  0.00  0.00    +0.151 C 
ATOM     14  C   UNL     1      34.563 -14.276 -21.866  0.00  0.00    +0.078 C 
ATOM     15  C   UNL     1      32.083 -13.587 -20.695  0.00  0.00    +0.043 C 
ATOM     16  C   UNL     1      32.807 -14.687 -20.231  0.00  0.00    +0.041 C 
ATOM     17  C   UNL     1      33.054 -11.444 -23.315  0.00  0.00    +0.429 C 
ENDBRANCH   8  13
ENDBRANCH   3   8
BRANCH   6  18
ATOM     18  O   UNL     1      36.317 -20.392 -21.117  0.00  0.00    -0.375 OA
BRANCH  18  20
ATOM     19  C   UNL     1      34.320 -22.381 -18.070  0.00  0.00    +0.057 C 
ATOM     20  C   UNL     1      35.654 -21.053 -20.105  0.00  0.00    +0.161 C 
ATOM     21  C   UNL     1      33.598 -21.782 -19.102  0.00  0.00    +0.018 C 
ATOM     22  C   UNL     1      35.713 -22.313 -18.063  0.00  0.00    +0.018 C 
ATOM     23  C   UNL     1      34.269 -21.114 -20.127  0.00  0.00    +0.040 C 
ATOM     24  C   UNL     1      36.385 -21.645 -19.086  0.00  0.00    +0.040 C 
BRANCH  19  25
ATOM     25  N   UNL     1      33.654 -23.044 -17.055  0.00  0.00    -0.246 N 
ATOM     26  N   UNL     1      33.328 -24.228 -15.195  0.00  0.00    -0.224 NA
ATOM     27  C   UNL     1      32.296 -23.172 -16.914  0.00  0.00    +0.092 C 
ATOM     28  C   UNL     1      34.228 -23.699 -15.993  0.00  0.00    +0.172 C 
ATOM     29  C   UNL     1      32.123 -23.904 -15.763  0.00  0.00    +0.117 C 
ENDBRANCH  19  25
ENDBRANCH  18  20
ENDBRANCH   6  18
TORSDOF 5
ENDMDL
MODEL 9
REMARK VINA RESULT:     -10.0      4.613      8.560
REMARK  Name = 10157080
REMARK  5 active torsions:
REMARK  status: ('A' for Active; 'I' for Inactive)
REMARK    1  A    between atoms: C_3  and  O_8
REMARK    2  A    between atoms: C_6  and  O_18
REMARK    3  A    between atoms: O_8  and  C_13
REMARK    4  A    between atoms: O_18  and  C_20
REMARK    5  A    between atoms: C_19  and  N_25
REMARK                            x       y       z     vdW  Elec       q    Type
REMARK                         _______ _______ _______ _____ _____    ______ ____
ROOT
ATOM      1  N   UNL     1      34.992 -17.731 -20.810  0.00  0.00    -0.277 NA
ATOM      2  N   UNL     1      34.475 -16.174 -22.575  0.00  0.00    -0.319 NA
ATOM      3  C   UNL     1      35.413 -18.587 -21.755  0.00  0.00    +0.278 C 
ATOM      4  C   UNL     1      35.402 -18.331 -23.105  0.00  0.00    +0.156 C 
ATOM      5  C   UNL     1      34.915 -17.090 -23.462  0.00  0.00    +0.113 C 
ATOM      6  C   UNL     1      34.541 -16.555 -21.284  0.00  0.00    +0.317 C 
ATOM      7  C   UNL     1      34.860 -16.709 -24.903  0.00  0.00    +0.063 C 
ENDROOT
BRANCH   3   8
ATOM      8  O   UNL     1      35.889 -19.809 -21.315  0.00  0.00    -0.429 OA
BRANCH   8  13
ATOM      9  O   UNL     1      35.142 -22.997 -17.774  0.00  0.00    -0.435 OA
ATOM     10  O   UNL     1      32.750 -22.825 -18.008  0.00  0.00    -0.435 OA
ATOM     11  C   UNL     1      34.780 -22.124 -18.753  0.00  0.00    +0.179 C 
ATOM     12  C   UNL     1      33.414 -22.026 -18.886  0.00  0.00    +0.177 C 
ATOM     13  C   UNL     1      35.079 -20.548 -20.506  0.00  0.00    +0.151 C 
ATOM     14  C   UNL     1      35.641 -21.397 -19.549  0.00  0.00    +0.078 C 
ATOM     15  C   UNL     1      32.833 -21.195 -19.824  0.00  0.00    +0.043 C 
ATOM     16  C   UNL     1      33.683 -20.448 -20.642  0.00  0.00    +0.041 C 
ATOM     17  C   UNL     1      33.851 -23.436 -17.306  0.00  0.00    +0.429 C 
ENDBRANCH   8  13
ENDBRANCH   3   8
BRANCH   6  18
ATOM     18  O   UNL     1      34.096 -15.646 -20.352  0.00  0.00    -0.375 OA
BRANCH  18  20
ATOM     19  C   UNL     1      32.736 -11.990 -21.768  0.00  0.00    +0.057 C 
ATOM     20  C   UNL     1      33.645 -14.432 -20.822  0.00  0.00    +0.161 C 
ATOM     21  C   UNL     1      32.036 -12.651 -20.760  0.00  0.00    +0.018 C 
ATOM     22  C   UNL     1      33.894 -12.557 -22.300  0.00  0.00    +0.018 C 
ATOM     23  C   UNL     1      32.493 -13.880 -20.283  0.00  0.00    +0.040 C 
ATOM     24  C   UNL     1      34.352 -13.785 -21.824  0.00  0.00    +0.040 C 
BRANCH  19  25
ATOM     25  N   UNL     1      32.283 -10.772 -22.240  0.00  0.00    -0.246 N 
ATOM     26  N   UNL     1      32.224  -8.873 -23.407  0.00  0.00    -0.224 NA
ATOM     27  C   UNL     1      31.122 -10.135 -21.880  0.00  0.00    +0.092 C 
ATOM     28  C   UNL     1      32.908  -9.968 -23.161  0.00  0.00    +0.172 C 
ATOM     29  C   UNL     1      31.111  -8.970 -22.611  0.00  0.00    +0.117 C 
ENDBRANCH  19  25
ENDBRANCH  18  20
ENDBRANCH   6  18
TORSDOF 5
ENDMDL
