MODEL 1
REMARK VINA RESULT:     -12.0      0.000      0.000
REMARK  Name = 447736
REMARK  4 active torsions:
REMARK  status: ('A' for Active; 'I' for Inactive)
REMARK    1  A    between atoms: N_2  and  C_13
REMARK    2  A    between atoms: C_3  and  C_20
REMARK    3  A    between atoms: C_6  and  C_17
REMARK    4  A    between atoms: C_28  and  C_32
REMARK                            x       y       z     vdW  Elec       q    Type
REMARK                         _______ _______ _______ _____ _____    ______ ____
ROOT
ATOM      1  O   UNL     1      32.817 -21.378 -20.188  0.00  0.00    -0.270 OA
ATOM      2  N   UNL     1      34.973 -20.450 -20.331  0.00  0.00    -0.280 N 
ATOM      3  C   UNL     1      33.969 -21.261 -19.784  0.00  0.00    +0.249 C 
ATOM      4  H   UNL     1      35.846 -20.477 -19.876  0.00  0.00    +0.155 HD
ENDROOT
BRANCH   2  13
ATOM      5  N   UNL     1      34.335 -15.105 -23.393  0.00  0.00    +0.388 N 
ATOM      6  C   UNL     1      34.729 -15.845 -22.178  0.00  0.00    -0.039 C 
ATOM      7  C   UNL     1      34.748 -17.357 -22.363  0.00  0.00    -0.045 C 
ATOM      8  C   UNL     1      34.751 -17.913 -23.659  0.00  0.00    -0.030 C 
ATOM      9  C   UNL     1      34.673 -17.026 -24.876  0.00  0.00    +0.003 C 
ATOM     10  C   UNL     1      35.071 -15.587 -24.560  0.00  0.00    -0.076 C 
ATOM     11  C   UNL     1      34.843 -18.223 -21.262  0.00  0.00    +0.008 C 
ATOM     12  C   UNL     1      34.784 -19.305 -23.827  0.00  0.00    -0.003 C 
ATOM     13  C   UNL     1      34.888 -19.608 -21.440  0.00  0.00    +0.050 C 
ATOM     14  C   UNL     1      34.852 -20.149 -22.721  0.00  0.00    +0.014 C 
ATOM     15  H   UNL     1      34.534 -14.114 -23.259  0.00  0.00    -0.084 HD
ATOM     16  H   UNL     1      33.338 -15.251 -23.554  0.00  0.00    -0.084 HD
BRANCH   6  17
ATOM     17  C   UNL     1      33.787 -15.384 -21.059  0.00  0.00    -0.015 C 
ATOM     18  C   UNL     1      34.567 -14.634 -19.984  0.00  0.00    -0.002 C 
ATOM     19  C   UNL     1      32.674 -14.512 -21.629  0.00  0.00    -0.002 C 
ENDBRANCH   6  17
ENDBRANCH   2  13
BRANCH   3  20
ATOM     20  C   UNL     1      34.361 -22.028 -18.573  0.00  0.00    +0.054 C 
ATOM     21  C   UNL     1      36.047 -22.656 -16.977  0.00  0.00    +0.000 C 
ATOM     22  C   UNL     1      35.661 -21.936 -18.120  0.00  0.00    +0.005 C 
ATOM     23  C   UNL     1      35.093 -23.463 -16.311  0.00  0.00    +0.000 C 
ATOM     24  C   UNL     1      33.415 -22.804 -17.945  0.00  0.00    +0.005 C 
ATOM     25  C   UNL     1      33.781 -23.526 -16.809  0.00  0.00    +0.000 C 
ATOM     26  C   UNL     1      35.480 -24.182 -15.169  0.00  0.00    +0.003 C 
ATOM     27  C   UNL     1      37.359 -22.592 -16.480  0.00  0.00    +0.000 C 
ATOM     28  C   UNL     1      36.788 -24.106 -14.689  0.00  0.00    +0.031 C 
ATOM     29  C   UNL     1      37.725 -23.312 -15.344  0.00  0.00    +0.003 C 
BRANCH  28  32
ATOM     30  N   UNL     1      36.432 -25.956 -13.071  0.00  0.00    -0.343 N 
ATOM     31  N   UNL     1      38.243 -24.501 -12.818  0.00  0.00    -0.285 NA
ATOM     32  C   UNL     1      37.172 -24.858 -13.506  0.00  0.00    +0.117 C 
ATOM     33  H   UNL     1      36.711 -26.452 -12.267  0.00  0.00    +0.144 HD
ATOM     34  H   UNL     1      35.630 -26.237 -13.569  0.00  0.00    +0.144 HD
ATOM     35  H   UNL     1      38.505 -25.009 -12.017  0.00  0.00    +0.188 HD
ENDBRANCH  28  32
ENDBRANCH   3  20
TORSDOF 4
ENDMDL
MODEL 2
REMARK VINA RESULT:     -11.7      0.641      1.564
REMARK  Name = 447736
REMARK  4 active torsions:
REMARK  status: ('A' for Active; 'I' for Inactive)
REMARK    1  A    between atoms: N_2  and  C_13
REMARK    2  A    between atoms: C_3  and  C_20
REMARK    3  A    between atoms: C_6  and  C_17
REMARK    4  A    between atoms: C_28  and  C_32
REMARK                            x       y       z     vdW  Elec       q    Type
REMARK                         _______ _______ _______ _____ _____    ______ ____
ROOT
ATOM      1  O   UNL     1      33.487 -21.334 -20.107  0.00  0.00    -0.270 OA
ATOM      2  N   UNL     1      35.509 -20.190 -20.466  0.00  0.00    -0.280 N 
ATOM      3  C   UNL     1      34.651 -21.085 -19.813  0.00  0.00    +0.249 C 
ATOM      4  H   UNL     1      36.418 -20.113 -20.094  0.00  0.00    +0.155 HD
ENDROOT
BRANCH   2  13
ATOM      5  N   UNL     1      34.041 -15.029 -23.557  0.00  0.00    +0.388 N 
ATOM      6  C   UNL     1      34.621 -15.690 -22.371  0.00  0.00    -0.039 C 
ATOM      7  C   UNL     1      34.778 -17.197 -22.528  0.00  0.00    -0.045 C 
ATOM      8  C   UNL     1      34.718 -17.787 -23.807  0.00  0.00    -0.030 C 
ATOM      9  C   UNL     1      34.436 -16.948 -25.028  0.00  0.00    +0.003 C 
ATOM     10  C   UNL     1      34.711 -15.467 -24.780  0.00  0.00    -0.076 C 
ATOM     11  C   UNL     1      35.064 -18.016 -21.424  0.00  0.00    +0.008 C 
ATOM     12  C   UNL     1      34.879 -19.173 -23.950  0.00  0.00    -0.003 C 
ATOM     13  C   UNL     1      35.235 -19.394 -21.579  0.00  0.00    +0.050 C 
ATOM     14  C   UNL     1      35.136 -19.973 -22.839  0.00  0.00    +0.014 C 
ATOM     15  H   UNL     1      34.148 -14.019 -23.462  0.00  0.00    -0.084 HD
ATOM     16  H   UNL     1      33.054 -15.279 -23.620  0.00  0.00    -0.084 HD
BRANCH   6  17
ATOM     17  C   UNL     1      33.744 -15.293 -21.176  0.00  0.00    -0.015 C 
ATOM     18  C   UNL     1      34.583 -14.602 -20.108  0.00  0.00    -0.002 C 
ATOM     19  C   UNL     1      32.600 -14.394 -21.633  0.00  0.00    -0.002 C 
ENDBRANCH   6  17
ENDBRANCH   2  13
BRANCH   3  20
ATOM     20  C   UNL     1      35.230 -21.772 -18.629  0.00  0.00    +0.054 C 
ATOM     21  C   UNL     1      34.930 -23.182 -16.703  0.00  0.00    +0.000 C 
ATOM     22  C   UNL     1      34.398 -22.527 -17.827  0.00  0.00    +0.005 C 
ATOM     23  C   UNL     1      36.310 -23.054 -16.416  0.00  0.00    +0.000 C 
ATOM     24  C   UNL     1      36.573 -21.632 -18.372  0.00  0.00    +0.005 C 
ATOM     25  C   UNL     1      37.118 -22.275 -17.260  0.00  0.00    +0.000 C 
ATOM     26  C   UNL     1      36.840 -23.709 -15.292  0.00  0.00    +0.003 C 
ATOM     27  C   UNL     1      34.122 -23.960 -15.860  0.00  0.00    +0.000 C 
ATOM     28  C   UNL     1      36.023 -24.479 -14.465  0.00  0.00    +0.031 C 
ATOM     29  C   UNL     1      34.666 -24.604 -14.749  0.00  0.00    +0.003 C 
BRANCH  28  32
ATOM     30  N   UNL     1      37.966 -25.219 -13.107  0.00  0.00    -0.343 N 
ATOM     31  N   UNL     1      35.788 -25.710 -12.415  0.00  0.00    -0.285 NA
ATOM     32  C   UNL     1      36.588 -25.149 -13.305  0.00  0.00    +0.117 C 
ATOM     33  H   UNL     1      38.327 -25.677 -12.314  0.00  0.00    +0.144 HD
ATOM     34  H   UNL     1      38.578 -24.809 -13.760  0.00  0.00    +0.144 HD
ATOM     35  H   UNL     1      36.169 -26.165 -11.629  0.00  0.00    +0.188 HD
ENDBRANCH  28  32
ENDBRANCH   3  20
TORSDOF 4
ENDMDL
MODEL 3
REMARK VINA RESULT:     -11.5      1.735      2.988
REMARK  Name = 447736
REMARK  4 active torsions:
REMARK  status: ('A' for Active; 'I' for Inactive)
REMARK    1  A    between atoms: N_2  and  C_13
REMARK    2  A    between atoms: C_3  and  C_20
REMARK    3  A    between atoms: C_6  and  C_17
REMARK    4  A    between atoms: C_28  and  C_32
REMARK                            x       y       z     vdW  Elec       q    Type
REMARK                         _______ _______ _______ _____ _____    ______ ____
ROOT
ATOM      1  O   UNL     1      34.876 -20.163 -22.426  0.00  0.00    -0.270 OA
ATOM      2  N   UNL     1      34.926 -18.316 -20.973  0.00  0.00    -0.280 N 
ATOM      3  C   UNL     1      34.982 -19.676 -21.306  0.00  0.00    +0.249 C 
ATOM      4  H   UNL     1      35.031 -18.100 -20.018  0.00  0.00    +0.155 HD
ENDROOT
BRANCH   2  13
ATOM      5  N   UNL     1      32.974 -12.703 -22.715  0.00  0.00    +0.388 N 
ATOM      6  C   UNL     1      33.391 -13.641 -21.654  0.00  0.00    -0.039 C 
ATOM      7  C   UNL     1      33.974 -14.944 -22.186  0.00  0.00    -0.045 C 
ATOM      8  C   UNL     1      34.394 -15.037 -23.529  0.00  0.00    -0.030 C 
ATOM      9  C   UNL     1      34.216 -13.874 -24.472  0.00  0.00    +0.003 C 
ATOM     10  C   UNL     1      34.020 -12.558 -23.726  0.00  0.00    -0.076 C 
ATOM     11  C   UNL     1      34.179 -16.047 -21.341  0.00  0.00    +0.008 C 
ATOM     12  C   UNL     1      34.945 -16.233 -24.012  0.00  0.00    -0.003 C 
ATOM     13  C   UNL     1      34.740 -17.229 -21.829  0.00  0.00    +0.050 C 
ATOM     14  C   UNL     1      35.116 -17.325 -23.164  0.00  0.00    +0.014 C 
ATOM     15  H   UNL     1      32.784 -11.791 -22.299  0.00  0.00    -0.084 HD
ATOM     16  H   UNL     1      32.136 -13.071 -23.166  0.00  0.00    -0.084 HD
BRANCH   6  17
ATOM     17  C   UNL     1      32.170 -13.849 -20.749  0.00  0.00    -0.015 C 
ATOM     18  C   UNL     1      32.439 -14.961 -19.742  0.00  0.00    -0.002 C 
ATOM     19  C   UNL     1      31.810 -12.549 -20.038  0.00  0.00    -0.002 C 
ENDBRANCH   6  17
ENDBRANCH   2  13
BRANCH   3  20
ATOM     20  C   UNL     1      35.164 -20.604 -20.159  0.00  0.00    +0.054 C 
ATOM     21  C   UNL     1      34.206 -22.079 -18.519  0.00  0.00    +0.000 C 
ATOM     22  C   UNL     1      34.051 -21.200 -19.604  0.00  0.00    +0.005 C 
ATOM     23  C   UNL     1      35.503 -22.335 -18.015  0.00  0.00    +0.000 C 
ATOM     24  C   UNL     1      36.435 -20.835 -19.688  0.00  0.00    +0.005 C 
ATOM     25  C   UNL     1      36.608 -21.705 -18.611  0.00  0.00    +0.000 C 
ATOM     26  C   UNL     1      35.658 -23.213 -16.930  0.00  0.00    +0.003 C 
ATOM     27  C   UNL     1      33.101 -22.709 -17.924  0.00  0.00    +0.000 C 
ATOM     28  C   UNL     1      34.549 -23.831 -16.351  0.00  0.00    +0.031 C 
ATOM     29  C   UNL     1      33.273 -23.579 -16.847  0.00  0.00    +0.003 C 
BRANCH  28  32
ATOM     30  N   UNL     1      35.733 -25.700 -15.224  0.00  0.00    -0.343 N 
ATOM     31  N   UNL     1      33.919 -24.657 -14.185  0.00  0.00    -0.285 NA
ATOM     32  C   UNL     1      34.726 -24.737 -15.228  0.00  0.00    +0.117 C 
ATOM     33  H   UNL     1      35.836 -26.303 -14.453  0.00  0.00    +0.144 HD
ATOM     34  H   UNL     1      36.343 -25.777 -15.993  0.00  0.00    +0.144 HD
ATOM     35  H   UNL     1      34.037 -25.270 -13.423  0.00  0.00    +0.188 HD
ENDBRANCH  28  32
ENDBRANCH   3  20
TORSDOF 4
ENDMDL
MODEL 4
REMARK VINA RESULT:     -11.2      2.230     10.323
REMARK  Name = 447736
REMARK  4 active torsions:
REMARK  status: ('A' for Active; 'I' for Inactive)
REMARK    1  A    between atoms: N_2  and  C_13
REMARK    2  A    between atoms: C_3  and  C_20
REMARK    3  A    between atoms: C_6  and  C_17
REMARK    4  A    between atoms: C_28  and  C_32
REMARK                            x       y       z     vdW  Elec       q    Type
REMARK                         _______ _______ _______ _____ _____    ______ ____
ROOT
ATOM      1  O   UNL     1      33.837 -24.230 -17.712  0.00  0.00    -0.270 OA
ATOM      2  N   UNL     1      34.927 -22.657 -16.345  0.00  0.00    -0.280 N 
ATOM      3  C   UNL     1      34.305 -23.113 -17.515  0.00  0.00    +0.249 C 
ATOM      4  H   UNL     1      35.247 -21.726 -16.361  0.00  0.00    +0.155 HD
ENDROOT
BRANCH   2  13
ATOM      5  N   UNL     1      38.116 -25.966 -12.194  0.00  0.00    +0.388 N 
ATOM      6  C   UNL     1      38.084 -24.989 -13.300  0.00  0.00    -0.039 C 
ATOM      7  C   UNL     1      36.679 -24.525 -13.664  0.00  0.00    -0.045 C 
ATOM      8  C   UNL     1      35.608 -24.741 -12.773  0.00  0.00    -0.030 C 
ATOM      9  C   UNL     1      35.822 -25.486 -11.480  0.00  0.00    +0.003 C 
ATOM     10  C   UNL     1      37.293 -25.515 -11.074  0.00  0.00    -0.076 C 
ATOM     11  C   UNL     1      36.434 -23.807 -14.846  0.00  0.00    +0.008 C 
ATOM     12  C   UNL     1      34.319 -24.299 -13.103  0.00  0.00    -0.003 C 
ATOM     13  C   UNL     1      35.149 -23.361 -15.160  0.00  0.00    +0.050 C 
ATOM     14  C   UNL     1      34.091 -23.611 -14.293  0.00  0.00    +0.014 C 
ATOM     15  H   UNL     1      39.079 -26.078 -11.876  0.00  0.00    -0.084 HD
ATOM     16  H   UNL     1      37.746 -26.854 -12.532  0.00  0.00    -0.084 HD
BRANCH   6  17
ATOM     17  C   UNL     1      38.832 -25.632 -14.475  0.00  0.00    -0.015 C 
ATOM     18  C   UNL     1      40.316 -25.766 -14.149  0.00  0.00    -0.002 C 
ATOM     19  C   UNL     1      38.226 -26.990 -14.810  0.00  0.00    -0.002 C 
ENDBRANCH   6  17
ENDBRANCH   2  13
BRANCH   3  20
ATOM     20  C   UNL     1      34.243 -22.129 -18.627  0.00  0.00    +0.054 C 
ATOM     21  C   UNL     1      35.380 -20.656 -20.152  0.00  0.00    +0.000 C 
ATOM     22  C   UNL     1      35.421 -21.589 -19.101  0.00  0.00    +0.005 C 
ATOM     23  C   UNL     1      34.129 -20.289 -20.703  0.00  0.00    +0.000 C 
ATOM     24  C   UNL     1      33.016 -21.789 -19.145  0.00  0.00    +0.005 C 
ATOM     25  C   UNL     1      32.956 -20.865 -20.188  0.00  0.00    +0.000 C 
ATOM     26  C   UNL     1      34.088 -19.357 -21.753  0.00  0.00    +0.003 C 
ATOM     27  C   UNL     1      36.552 -20.081 -20.666  0.00  0.00    +0.000 C 
ATOM     28  C   UNL     1      35.263 -18.795 -22.252  0.00  0.00    +0.031 C 
ATOM     29  C   UNL     1      36.493 -19.157 -21.709  0.00  0.00    +0.003 C 
BRANCH  28  32
ATOM     30  N   UNL     1      34.553 -18.126 -24.535  0.00  0.00    -0.343 N 
ATOM     31  N   UNL     1      35.777 -16.648 -23.201  0.00  0.00    -0.285 NA
ATOM     32  C   UNL     1      35.204 -17.831 -23.338  0.00  0.00    +0.117 C 
ATOM     33  H   UNL     1      34.524 -17.457 -25.258  0.00  0.00    +0.144 HD
ATOM     34  H   UNL     1      34.122 -19.002 -24.658  0.00  0.00    +0.144 HD
ATOM     35  H   UNL     1      35.738 -15.994 -23.935  0.00  0.00    +0.188 HD
ENDBRANCH  28  32
ENDBRANCH   3  20
TORSDOF 4
ENDMDL
MODEL 5
REMARK VINA RESULT:     -10.9      6.253     10.766
REMARK  Name = 447736
REMARK  4 active torsions:
REMARK  status: ('A' for Active; 'I' for Inactive)
REMARK    1  A    between atoms: N_2  and  C_13
REMARK    2  A    between atoms: C_3  and  C_20
REMARK    3  A    between atoms: C_6  and  C_17
REMARK    4  A    between atoms: C_28  and  C_32
REMARK                            x       y       z     vdW  Elec       q    Type
REMARK                         _______ _______ _______ _____ _____    ______ ____
ROOT
ATOM      1  O   UNL     1      31.084 -11.717 -21.497  0.00  0.00    -0.270 OA
ATOM      2  N   UNL     1      32.876 -10.470 -22.369  0.00  0.00    -0.280 N 
ATOM      3  C   UNL     1      32.183 -11.642 -22.034  0.00  0.00    +0.249 C 
ATOM      4  H   UNL     1      33.753 -10.595 -22.798  0.00  0.00    +0.155 HD
ENDROOT
BRANCH   2  13
ATOM      5  N   UNL     1      31.805  -4.553 -23.850  0.00  0.00    +0.388 N 
ATOM      6  C   UNL     1      31.944  -5.968 -24.248  0.00  0.00    -0.039 C 
ATOM      7  C   UNL     1      32.031  -6.929 -23.070  0.00  0.00    -0.045 C 
ATOM      8  C   UNL     1      31.640  -6.509 -21.782  0.00  0.00    -0.030 C 
ATOM      9  C   UNL     1      31.190  -5.091 -21.540  0.00  0.00    +0.003 C 
ATOM     10  C   UNL     1      30.768  -4.396 -22.832  0.00  0.00    -0.076 C 
ATOM     11  C   UNL     1      32.423  -8.265 -23.249  0.00  0.00    +0.008 C 
ATOM     12  C   UNL     1      31.707  -7.400 -20.701  0.00  0.00    -0.003 C 
ATOM     13  C   UNL     1      32.475  -9.149 -22.169  0.00  0.00    +0.050 C 
ATOM     14  C   UNL     1      32.123  -8.716 -20.895  0.00  0.00    +0.014 C 
ATOM     15  H   UNL     1      31.555  -3.999 -24.668  0.00  0.00    -0.084 HD
ATOM     16  H   UNL     1      32.693  -4.236 -23.460  0.00  0.00    -0.084 HD
BRANCH   6  17
ATOM     17  C   UNL     1      33.158  -6.043 -25.182  0.00  0.00    -0.015 C 
ATOM     18  C   UNL     1      33.090  -4.938 -26.231  0.00  0.00    -0.002 C 
ATOM     19  C   UNL     1      34.451  -5.949 -24.379  0.00  0.00    -0.002 C 
ENDBRANCH   6  17
ENDBRANCH   2  13
BRANCH   3  20
ATOM     20  C   UNL     1      32.889 -12.911 -22.350  0.00  0.00    +0.054 C 
ATOM     21  C   UNL     1      33.855 -14.983 -21.603  0.00  0.00    +0.000 C 
ATOM     22  C   UNL     1      33.187 -13.779 -21.321  0.00  0.00    +0.005 C 
ATOM     23  C   UNL     1      34.212 -15.280 -22.940  0.00  0.00    +0.000 C 
ATOM     24  C   UNL     1      33.225 -13.176 -23.657  0.00  0.00    +0.005 C 
ATOM     25  C   UNL     1      33.889 -14.365 -23.956  0.00  0.00    +0.000 C 
ATOM     26  C   UNL     1      34.880 -16.482 -23.221  0.00  0.00    +0.003 C 
ATOM     27  C   UNL     1      34.177 -15.897 -20.587  0.00  0.00    +0.000 C 
ATOM     28  C   UNL     1      35.192 -17.379 -22.200  0.00  0.00    +0.031 C 
ATOM     29  C   UNL     1      34.841 -17.087 -20.885  0.00  0.00    +0.003 C 
BRANCH  28  32
ATOM     30  N   UNL     1      35.223 -19.691 -23.107  0.00  0.00    -0.343 N 
ATOM     31  N   UNL     1      37.167 -18.747 -22.216  0.00  0.00    -0.285 NA
ATOM     32  C   UNL     1      35.885 -18.620 -22.508  0.00  0.00    +0.117 C 
ATOM     33  H   UNL     1      35.712 -20.522 -23.308  0.00  0.00    +0.144 HD
ATOM     34  H   UNL     1      34.268 -19.616 -23.330  0.00  0.00    +0.144 HD
ATOM     35  H   UNL     1      37.638 -19.587 -22.424  0.00  0.00    +0.188 HD
ENDBRANCH  28  32
ENDBRANCH   3  20
TORSDOF 4
ENDMDL
MODEL 6
REMARK VINA RESULT:     -10.9      2.105     10.164
REMARK  Name = 447736
REMARK  4 active torsions:
REMARK  status: ('A' for Active; 'I' for Inactive)
REMARK    1  A    between atoms: N_2  and  C_13
REMARK    2  A    between atoms: C_3  and  C_20
REMARK    3  A    between atoms: C_6  and  C_17
REMARK    4  A    between atoms: C_28  and  C_32
REMARK                            x       y       z     vdW  Elec       q    Type
REMARK                         _______ _______ _______ _____ _____    ______ ____
ROOT
ATOM      1  O   UNL     1      34.318 -23.536 -17.680  0.00  0.00    -0.270 OA
ATOM      2  N   UNL     1      36.370 -22.483 -17.226  0.00  0.00    -0.280 N 
ATOM      3  C   UNL     1      35.156 -22.669 -17.901  0.00  0.00    +0.249 C 
ATOM      4  H   UNL     1      36.927 -21.732 -17.537  0.00  0.00    +0.155 HD
ENDROOT
BRANCH   2  13
ATOM      5  N   UNL     1      36.248 -25.805 -12.001  0.00  0.00    +0.388 N 
ATOM      6  C   UNL     1      35.580 -25.316 -13.223  0.00  0.00    -0.039 C 
ATOM      7  C   UNL     1      36.519 -24.606 -14.190  0.00  0.00    -0.045 C 
ATOM      8  C   UNL     1      37.915 -24.759 -14.063  0.00  0.00    -0.030 C 
ATOM      9  C   UNL     1      38.500 -25.571 -12.937  0.00  0.00    +0.003 C 
ATOM     10  C   UNL     1      37.476 -26.526 -12.329  0.00  0.00    -0.076 C 
ATOM     11  C   UNL     1      36.021 -23.856 -15.268  0.00  0.00    +0.008 C 
ATOM     12  C   UNL     1      38.776 -24.116 -14.964  0.00  0.00    -0.003 C 
ATOM     13  C   UNL     1      36.887 -23.230 -16.167  0.00  0.00    +0.050 C 
ATOM     14  C   UNL     1      38.263 -23.355 -16.012  0.00  0.00    +0.014 C 
ATOM     15  H   UNL     1      35.616 -26.432 -11.503  0.00  0.00    -0.084 HD
ATOM     16  H   UNL     1      36.488 -25.003 -11.418  0.00  0.00    -0.084 HD
BRANCH   6  17
ATOM     17  C   UNL     1      34.409 -24.439 -12.762  0.00  0.00    -0.015 C 
ATOM     18  C   UNL     1      33.081 -25.068 -13.170  0.00  0.00    -0.002 C 
ATOM     19  C   UNL     1      34.467 -24.228 -11.253  0.00  0.00    -0.002 C 
ENDBRANCH   6  17
ENDBRANCH   2  13
BRANCH   3  20
ATOM     20  C   UNL     1      34.896 -21.719 -19.014  0.00  0.00    +0.054 C 
ATOM     21  C   UNL     1      35.738 -20.185 -20.665  0.00  0.00    +0.000 C 
ATOM     22  C   UNL     1      35.967 -21.087 -19.612  0.00  0.00    +0.005 C 
ATOM     23  C   UNL     1      34.410 -19.943 -21.093  0.00  0.00    +0.000 C 
ATOM     24  C   UNL     1      33.598 -21.501 -19.411  0.00  0.00    +0.005 C 
ATOM     25  C   UNL     1      33.351 -20.609 -20.455  0.00  0.00    +0.000 C 
ATOM     26  C   UNL     1      34.182 -19.042 -22.145  0.00  0.00    +0.003 C 
ATOM     27  C   UNL     1      36.797 -19.520 -21.302  0.00  0.00    +0.000 C 
ATOM     28  C   UNL     1      35.246 -18.389 -22.767  0.00  0.00    +0.031 C 
ATOM     29  C   UNL     1      36.551 -18.628 -22.346  0.00  0.00    +0.003 C 
BRANCH  28  32
ATOM     30  N   UNL     1      35.409 -16.130 -23.784  0.00  0.00    -0.343 N 
ATOM     31  N   UNL     1      34.352 -17.868 -24.936  0.00  0.00    -0.285 NA
ATOM     32  C   UNL     1      34.992 -17.458 -23.855  0.00  0.00    +0.117 C 
ATOM     33  H   UNL     1      35.227 -15.517 -24.533  0.00  0.00    +0.144 HD
ATOM     34  H   UNL     1      35.885 -15.805 -22.986  0.00  0.00    +0.144 HD
ATOM     35  H   UNL     1      34.180 -17.239 -25.673  0.00  0.00    +0.188 HD
ENDBRANCH  28  32
ENDBRANCH   3  20
TORSDOF 4
ENDMDL
MODEL 7
REMARK VINA RESULT:     -10.8      1.904     10.085
REMARK  Name = 447736
REMARK  4 active torsions:
REMARK  status: ('A' for Active; 'I' for Inactive)
REMARK    1  A    between atoms: N_2  and  C_13
REMARK    2  A    between atoms: C_3  and  C_20
REMARK    3  A    between atoms: C_6  and  C_17
REMARK    4  A    between atoms: C_28  and  C_32
REMARK                            x       y       z     vdW  Elec       q    Type
REMARK                         _______ _______ _______ _____ _____    ______ ____
ROOT
ATOM      1  O   UNL     1      37.513 -19.775 -19.699  0.00  0.00    -0.270 OA
ATOM      2  N   UNL     1      35.560 -21.058 -19.438  0.00  0.00    -0.280 N 
ATOM      3  C   UNL     1      36.391 -20.115 -20.058  0.00  0.00    +0.249 C 
ATOM      4  H   UNL     1      34.685 -21.209 -19.863  0.00  0.00    +0.155 HD
ENDROOT
BRANCH   2  13
ATOM      5  N   UNL     1      34.247 -24.505 -14.463  0.00  0.00    +0.388 N 
ATOM      6  C   UNL     1      33.894 -24.015 -15.811  0.00  0.00    -0.039 C 
ATOM      7  C   UNL     1      35.018 -23.245 -16.493  0.00  0.00    -0.045 C 
ATOM      8  C   UNL     1      36.340 -23.344 -16.013  0.00  0.00    -0.030 C 
ATOM      9  C   UNL     1      36.651 -24.159 -14.783  0.00  0.00    +0.003 C 
ATOM     10  C   UNL     1      35.549 -25.169 -14.472  0.00  0.00    -0.076 C 
ATOM     11  C   UNL     1      34.781 -22.490 -17.654  0.00  0.00    +0.008 C 
ATOM     12  C   UNL     1      37.374 -22.647 -16.653  0.00  0.00    -0.003 C 
ATOM     13  C   UNL     1      35.820 -21.809 -18.291  0.00  0.00    +0.050 C 
ATOM     14  C   UNL     1      37.115 -21.882 -17.788  0.00  0.00    +0.014 C 
ATOM     15  H   UNL     1      33.537 -25.169 -14.153  0.00  0.00    -0.084 HD
ATOM     16  H   UNL     1      34.293 -23.708 -13.828  0.00  0.00    -0.084 HD
BRANCH   6  17
ATOM     17  C   UNL     1      32.606 -23.196 -15.656  0.00  0.00    -0.015 C 
ATOM     18  C   UNL     1      31.504 -23.769 -16.541  0.00  0.00    -0.002 C 
ATOM     19  C   UNL     1      32.169 -23.167 -14.196  0.00  0.00    -0.002 C 
ENDBRANCH   6  17
ENDBRANCH   2  13
BRANCH   3  20
ATOM     20  C   UNL     1      35.817 -19.454 -21.259  0.00  0.00    +0.054 C 
ATOM     21  C   UNL     1      35.130 -17.442 -22.383  0.00  0.00    +0.000 C 
ATOM     22  C   UNL     1      35.672 -18.082 -21.256  0.00  0.00    +0.005 C 
ATOM     23  C   UNL     1      34.741 -18.219 -23.501  0.00  0.00    +0.000 C 
ATOM     24  C   UNL     1      35.447 -20.232 -22.331  0.00  0.00    +0.005 C 
ATOM     25  C   UNL     1      34.906 -19.613 -23.459  0.00  0.00    +0.000 C 
ATOM     26  C   UNL     1      34.200 -17.579 -24.627  0.00  0.00    +0.003 C 
ATOM     27  C   UNL     1      34.965 -16.048 -22.425  0.00  0.00    +0.000 C 
ATOM     28  C   UNL     1      34.043 -16.193 -24.652  0.00  0.00    +0.031 C 
ATOM     29  C   UNL     1      34.426 -15.429 -23.552  0.00  0.00    +0.003 C 
BRANCH  28  32
ATOM     30  N   UNL     1      33.861 -14.257 -26.197  0.00  0.00    -0.343 N 
ATOM     31  N   UNL     1      32.584 -16.180 -26.561  0.00  0.00    -0.285 NA
ATOM     32  C   UNL     1      33.480 -15.545 -25.826  0.00  0.00    +0.117 C 
ATOM     33  H   UNL     1      33.468 -13.838 -26.996  0.00  0.00    +0.144 HD
ATOM     34  H   UNL     1      34.526 -13.767 -25.660  0.00  0.00    +0.144 HD
ATOM     35  H   UNL     1      32.202 -15.743 -27.356  0.00  0.00    +0.188 HD
ENDBRANCH  28  32
ENDBRANCH   3  20
TORSDOF 4
ENDMDL
MODEL 8
REMARK VINA RESULT:     -10.7      6.518     11.080
REMARK  Name = 447736
REMARK  4 active torsions:
REMARK  status: ('A' for Active; 'I' for Inactive)
REMARK    1  A    between atoms: N_2  and  C_13
REMARK    2  A    between atoms: C_3  and  C_20
REMARK    3  A    between atoms: C_6  and  C_17
REMARK    4  A    between atoms: C_28  and  C_32
REMARK                            x       y       z     vdW  Elec       q    Type
REMARK                         _______ _______ _______ _____ _____    ______ ____
ROOT
ATOM      1  O   UNL     1      30.407 -11.033 -21.788  0.00  0.00    -0.270 OA
ATOM      2  N   UNL     1      32.493  -9.954 -21.670  0.00  0.00    -0.280 N 
ATOM      3  C   UNL     1      31.629 -11.057 -21.680  0.00  0.00    +0.249 C 
ATOM      4  H   UNL     1      33.452 -10.158 -21.574  0.00  0.00    +0.155 HD
ENDROOT
BRANCH   2  13
ATOM      5  N   UNL     1      32.004  -4.408 -24.383  0.00  0.00    +0.388 N 
ATOM      6  C   UNL     1      32.092  -5.879 -24.481  0.00  0.00    -0.039 C 
ATOM      7  C   UNL     1      31.977  -6.589 -23.139  0.00  0.00    -0.045 C 
ATOM      8  C   UNL     1      31.469  -5.905 -22.015  0.00  0.00    -0.030 C 
ATOM      9  C   UNL     1      31.092  -4.448 -22.109  0.00  0.00    +0.003 C 
ATOM     10  C   UNL     1      30.869  -4.007 -23.553  0.00  0.00    -0.076 C 
ATOM     11  C   UNL     1      32.296  -7.951 -23.007  0.00  0.00    +0.008 C 
ATOM     12  C   UNL     1      31.351  -6.566 -20.784  0.00  0.00    -0.003 C 
ATOM     13  C   UNL     1      32.162  -8.603 -21.780  0.00  0.00    +0.050 C 
ATOM     14  C   UNL     1      31.697  -7.910 -20.668  0.00  0.00    +0.014 C 
ATOM     15  H   UNL     1      31.888  -4.017 -25.317  0.00  0.00    -0.084 HD
ATOM     16  H   UNL     1      32.861  -4.059 -23.952  0.00  0.00    -0.084 HD
BRANCH   6  17
ATOM     17  C   UNL     1      33.398  -6.191 -25.223  0.00  0.00    -0.015 C 
ATOM     18  C   UNL     1      33.550  -5.281 -26.436  0.00  0.00    -0.002 C 
ATOM     19  C   UNL     1      34.589  -6.044 -24.282  0.00  0.00    -0.002 C 
ENDBRANCH   6  17
ENDBRANCH   2  13
BRANCH   3  20
ATOM     20  C   UNL     1      32.284 -12.381 -21.514  0.00  0.00    +0.054 C 
ATOM     21  C   UNL     1      33.666 -14.132 -22.412  0.00  0.00    +0.000 C 
ATOM     22  C   UNL     1      33.040 -12.882 -22.553  0.00  0.00    +0.005 C 
ATOM     23  C   UNL     1      33.507 -14.854 -21.205  0.00  0.00    +0.000 C 
ATOM     24  C   UNL     1      32.114 -13.062 -20.331  0.00  0.00    +0.005 C 
ATOM     25  C   UNL     1      32.728 -14.305 -20.174  0.00  0.00    +0.000 C 
ATOM     26  C   UNL     1      34.133 -16.104 -21.065  0.00  0.00    +0.003 C 
ATOM     27  C   UNL     1      34.445 -14.681 -23.443  0.00  0.00    +0.000 C 
ATOM     28  C   UNL     1      34.904 -16.634 -22.099  0.00  0.00    +0.031 C 
ATOM     29  C   UNL     1      35.059 -15.923 -23.287  0.00  0.00    +0.003 C 
BRANCH  28  32
ATOM     30  N   UNL     1      35.625 -18.549 -20.693  0.00  0.00    -0.343 N 
ATOM     31  N   UNL     1      36.065 -18.541 -22.988  0.00  0.00    -0.285 NA
ATOM     32  C   UNL     1      35.544 -17.930 -21.939  0.00  0.00    +0.117 C 
ATOM     33  H   UNL     1      36.062 -19.427 -20.607  0.00  0.00    +0.144 HD
ATOM     34  H   UNL     1      35.245 -18.108 -19.899  0.00  0.00    +0.144 HD
ATOM     35  H   UNL     1      36.498 -19.418 -22.881  0.00  0.00    +0.188 HD
ENDBRANCH  28  32
ENDBRANCH   3  20
TORSDOF 4
ENDMDL
MODEL 9
REMARK VINA RESULT:     -10.2      3.162      5.597
REMARK  Name = 447736
REMARK  4 active torsions:
REMARK  status: ('A' for Active; 'I' for Inactive)
REMARK    1  A    between atoms: N_2  and  C_13
REMARK    2  A    between atoms: C_3  and  C_20
REMARK    3  A    between atoms: C_6  and  C_17
REMARK    4  A    between atoms: C_28  and  C_32
REMARK                            x       y       z     vdW  Elec       q    Type
REMARK                         _______ _______ _______ _____ _____    ______ ____
ROOT
ATOM      1  O   UNL     1      35.890 -16.630 -23.188  0.00  0.00    -0.270 OA
ATOM      2  N   UNL     1      34.206 -15.891 -21.724  0.00  0.00    -0.280 N 
ATOM      3  C   UNL     1      35.142 -16.802 -22.232  0.00  0.00    +0.249 C 
ATOM      4  H   UNL     1      33.685 -16.196 -20.946  0.00  0.00    +0.155 HD
ENDROOT
BRANCH   2  13
ATOM      5  N   UNL     1      31.932 -10.134 -21.512  0.00  0.00    +0.388 N 
ATOM      6  C   UNL     1      32.454 -11.331 -20.823  0.00  0.00    -0.039 C 
ATOM      7  C   UNL     1      33.048 -12.369 -21.767  0.00  0.00    -0.045 C 
ATOM      8  C   UNL     1      33.379 -12.016 -23.091  0.00  0.00    -0.030 C 
ATOM      9  C   UNL     1      33.094 -10.630 -23.611  0.00  0.00    +0.003 C 
ATOM     10  C   UNL     1      32.901  -9.624 -22.480  0.00  0.00    -0.076 C 
ATOM     11  C   UNL     1      33.351 -13.666 -21.322  0.00  0.00    +0.008 C 
ATOM     12  C   UNL     1      33.940 -12.970 -23.953  0.00  0.00    -0.003 C 
ATOM     13  C   UNL     1      33.921 -14.605 -22.185  0.00  0.00    +0.050 C 
ATOM     14  C   UNL     1      34.209 -14.259 -23.501  0.00  0.00    +0.014 C 
ATOM     15  H   UNL     1      31.737  -9.409 -20.822  0.00  0.00    -0.084 HD
ATOM     16  H   UNL     1      31.080 -10.392 -22.011  0.00  0.00    -0.084 HD
BRANCH   6  17
ATOM     17  C   UNL     1      31.307 -11.878 -19.965  0.00  0.00    -0.015 C 
ATOM     18  C   UNL     1      31.320 -11.230 -18.585  0.00  0.00    -0.002 C 
ATOM     19  C   UNL     1      29.969 -11.647 -20.659  0.00  0.00    -0.002 C 
ENDBRANCH   6  17
ENDBRANCH   2  13
BRANCH   3  20
ATOM     20  C   UNL     1      35.194 -18.114 -21.538  0.00  0.00    +0.054 C 
ATOM     21  C   UNL     1      34.042 -19.945 -20.486  0.00  0.00    +0.000 C 
ATOM     22  C   UNL     1      34.010 -18.704 -21.145  0.00  0.00    +0.005 C 
ATOM     23  C   UNL     1      35.289 -20.566 -20.238  0.00  0.00    +0.000 C 
ATOM     24  C   UNL     1      36.418 -18.696 -21.309  0.00  0.00    +0.005 C 
ATOM     25  C   UNL     1      36.469 -19.928 -20.656  0.00  0.00    +0.000 C 
ATOM     26  C   UNL     1      35.320 -21.806 -19.580  0.00  0.00    +0.003 C 
ATOM     27  C   UNL     1      32.863 -20.583 -20.069  0.00  0.00    +0.000 C 
ATOM     28  C   UNL     1      34.139 -22.425 -19.172  0.00  0.00    +0.031 C 
ATOM     29  C   UNL     1      32.912 -21.814 -19.416  0.00  0.00    +0.003 C 
BRANCH  28  32
ATOM     30  N   UNL     1      33.911 -24.898 -19.163  0.00  0.00    -0.343 N 
ATOM     31  N   UNL     1      34.499 -23.761 -17.208  0.00  0.00    -0.285 NA
ATOM     32  C   UNL     1      34.188 -23.709 -18.491  0.00  0.00    +0.117 C 
ATOM     33  H   UNL     1      33.951 -25.757 -18.682  0.00  0.00    +0.144 HD
ATOM     34  H   UNL     1      33.675 -24.880 -20.118  0.00  0.00    +0.144 HD
ATOM     35  H   UNL     1      34.533 -24.630 -16.745  0.00  0.00    +0.188 HD
ENDBRANCH  28  32
ENDBRANCH   3  20
TORSDOF 4
ENDMDL
