MODEL 1
REMARK VINA RESULT:     -11.3      0.000      0.000
REMARK  Name = 11659487
REMARK  5 active torsions:
REMARK  status: ('A' for Active; 'I' for Inactive)
REMARK    1  A    between atoms: C_1  and  C_15
REMARK    2  A    between atoms: C_2  and  C_7
REMARK    3  A    between atoms: C_10  and  O_13
REMARK    4  A    between atoms: C_15  and  C_16
REMARK    5  A    between atoms: C_16  and  C_18
REMARK                            x       y       z     vdW  Elec       q    Type
REMARK                         _______ _______ _______ _____ _____    ______ ____
ROOT
ATOM      1  C   UNL     1      34.672 -20.798 -20.109  0.00  0.00    -0.022 C 
ATOM      2  C   UNL     1      35.373 -18.785 -21.246  0.00  0.00    -0.000 C 
ATOM      3  C   UNL     1      34.355 -19.626 -20.795  0.00  0.00    -0.004 C 
ATOM      4  C   UNL     1      36.006 -21.131 -19.876  0.00  0.00    -0.004 C 
ATOM      5  C   UNL     1      36.707 -19.117 -21.012  0.00  0.00    -0.000 C 
ATOM      6  C   UNL     1      37.024 -20.290 -20.327  0.00  0.00    -0.000 C 
ENDROOT
BRANCH   2   7
ATOM      7  C   UNL     1      35.044 -17.568 -21.956  0.00  0.00    +0.003 C 
ATOM      8  C   UNL     1      34.985 -17.567 -23.349  0.00  0.00    +0.037 C 
ATOM      9  C   UNL     1      34.784 -16.396 -21.247  0.00  0.00    +0.000 C 
ATOM     10  C   UNL     1      34.667 -16.394 -24.033  0.00  0.00    +0.139 C 
ATOM     11  C   UNL     1      34.466 -15.222 -21.930  0.00  0.00    +0.003 C 
ATOM     12  C   UNL     1      34.407 -15.221 -23.324  0.00  0.00    +0.037 C 
BRANCH  10  13
ATOM     13  O   UNL     1      34.610 -16.393 -25.394  0.00  0.00    -0.471 OA
ATOM     14  C   UNL     1      33.598 -15.592 -26.001  0.00  0.00    +0.252 C 
ENDBRANCH  10  13
ENDBRANCH   2   7
BRANCH   1  15
ATOM     15  C   UNL     1      33.585 -21.698 -19.626  0.00  0.00    +0.034 C 
BRANCH  15  16
ATOM     16  C   UNL     1      34.087 -22.919 -18.830  0.00  0.00    +0.064 C 
BRANCH  16  18
ATOM     17  N   UNL     1      32.026 -22.948 -17.560  0.00  0.00    -0.396 NA
ATOM     18  C   UNL     1      33.359 -23.116 -17.522  0.00  0.00    +0.110 C 
ATOM     19  C   UNL     1      34.089 -23.446 -16.402  0.00  0.00    +0.023 C 
ATOM     20  C   UNL     1      33.388 -23.621 -15.213  0.00  0.00    -0.015 C 
ATOM     21  C   UNL     1      31.379 -23.125 -16.387  0.00  0.00    +0.158 C 
ATOM     22  C   UNL     1      32.007 -23.459 -15.197  0.00  0.00    +0.100 C 
ATOM     23  N   UNL     1      29.971 -22.965 -16.354  0.00  0.00    -0.336 N 
ATOM     24  H   UNL     1      29.484 -22.727 -17.175  0.00  0.00    +0.144 HD
ATOM     25  H   UNL     1      29.481 -23.089 -15.509  0.00  0.00    +0.144 HD
ENDBRANCH  16  18
ENDBRANCH  15  16
ENDBRANCH   1  15
TORSDOF 5
ENDMDL
MODEL 2
REMARK VINA RESULT:     -11.1      0.967      1.522
REMARK  Name = 11659487
REMARK  5 active torsions:
REMARK  status: ('A' for Active; 'I' for Inactive)
REMARK    1  A    between atoms: C_1  and  C_15
REMARK    2  A    between atoms: C_2  and  C_7
REMARK    3  A    between atoms: C_10  and  O_13
REMARK    4  A    between atoms: C_15  and  C_16
REMARK    5  A    between atoms: C_16  and  C_18
REMARK                            x       y       z     vdW  Elec       q    Type
REMARK                         _______ _______ _______ _____ _____    ______ ____
ROOT
ATOM      1  C   UNL     1      34.586 -20.979 -19.989  0.00  0.00    -0.022 C 
ATOM      2  C   UNL     1      35.368 -19.243 -21.477  0.00  0.00    -0.000 C 
ATOM      3  C   UNL     1      34.323 -20.005 -20.952  0.00  0.00    -0.004 C 
ATOM      4  C   UNL     1      35.893 -21.192 -19.552  0.00  0.00    -0.004 C 
ATOM      5  C   UNL     1      36.675 -19.456 -21.040  0.00  0.00    -0.000 C 
ATOM      6  C   UNL     1      36.938 -20.431 -20.077  0.00  0.00    -0.000 C 
ENDROOT
BRANCH   2   7
ATOM      7  C   UNL     1      35.095 -18.232 -22.475  0.00  0.00    +0.003 C 
ATOM      8  C   UNL     1      35.136 -16.882 -22.130  0.00  0.00    +0.037 C 
ATOM      9  C   UNL     1      34.792 -18.608 -23.784  0.00  0.00    +0.000 C 
ATOM     10  C   UNL     1      34.874 -15.907 -23.092  0.00  0.00    +0.139 C 
ATOM     11  C   UNL     1      34.529 -17.634 -24.746  0.00  0.00    +0.003 C 
ATOM     12  C   UNL     1      34.571 -16.282 -24.401  0.00  0.00    +0.037 C 
BRANCH  10  13
ATOM     13  O   UNL     1      34.914 -14.588 -22.755  0.00  0.00    -0.471 OA
ATOM     14  C   UNL     1      34.011 -13.716 -23.432  0.00  0.00    +0.252 C 
ENDBRANCH  10  13
ENDBRANCH   2   7
BRANCH   1  15
ATOM     15  C   UNL     1      33.470 -21.793 -19.427  0.00  0.00    +0.034 C 
BRANCH  15  16
ATOM     16  C   UNL     1      33.934 -23.046 -18.658  0.00  0.00    +0.064 C 
BRANCH  16  18
ATOM     17  N   UNL     1      31.918 -23.072 -17.314  0.00  0.00    -0.396 NA
ATOM     18  C   UNL     1      33.257 -23.204 -17.317  0.00  0.00    +0.110 C 
ATOM     19  C   UNL     1      34.033 -23.467 -16.210  0.00  0.00    +0.023 C 
ATOM     20  C   UNL     1      33.379 -23.607 -14.991  0.00  0.00    -0.015 C 
ATOM     21  C   UNL     1      31.318 -23.213 -16.113  0.00  0.00    +0.158 C 
ATOM     22  C   UNL     1      31.995 -23.479 -14.933  0.00  0.00    +0.100 C 
ATOM     23  N   UNL     1      29.908 -23.087 -16.036  0.00  0.00    -0.336 N 
ATOM     24  H   UNL     1      29.387 -22.898 -16.849  0.00  0.00    +0.144 HD
ATOM     25  H   UNL     1      29.451 -23.187 -15.169  0.00  0.00    +0.144 HD
ENDBRANCH  16  18
ENDBRANCH  15  16
ENDBRANCH   1  15
TORSDOF 5
ENDMDL
MODEL 3
REMARK VINA RESULT:     -11.1      4.465      8.355
REMARK  Name = 11659487
REMARK  5 active torsions:
REMARK  status: ('A' for Active; 'I' for Inactive)
REMARK    1  A    between atoms: C_1  and  C_15
REMARK    2  A    between atoms: C_2  and  C_7
REMARK    3  A    between atoms: C_10  and  O_13
REMARK    4  A    between atoms: C_15  and  C_16
REMARK    5  A    between atoms: C_16  and  C_18
REMARK                            x       y       z     vdW  Elec       q    Type
REMARK                         _______ _______ _______ _____ _____    ______ ____
ROOT
ATOM      1  C   UNL     1      34.900 -17.066 -22.442  0.00  0.00    -0.022 C 
ATOM      2  C   UNL     1      34.936 -19.372 -21.721  0.00  0.00    -0.000 C 
ATOM      3  C   UNL     1      34.968 -18.010 -21.418  0.00  0.00    -0.004 C 
ATOM      4  C   UNL     1      34.801 -17.483 -23.769  0.00  0.00    -0.004 C 
ATOM      5  C   UNL     1      34.837 -19.789 -23.048  0.00  0.00    -0.000 C 
ATOM      6  C   UNL     1      34.770 -18.844 -24.073  0.00  0.00    -0.000 C 
ENDROOT
BRANCH   2   7
ATOM      7  C   UNL     1      35.005 -20.352 -20.659  0.00  0.00    +0.003 C 
ATOM      8  C   UNL     1      33.834 -20.903 -20.141  0.00  0.00    +0.037 C 
ATOM      9  C   UNL     1      36.244 -20.746 -20.154  0.00  0.00    +0.000 C 
ATOM     10  C   UNL     1      33.901 -21.848 -19.116  0.00  0.00    +0.139 C 
ATOM     11  C   UNL     1      36.312 -21.690 -19.130  0.00  0.00    +0.003 C 
ATOM     12  C   UNL     1      35.140 -22.242 -18.611  0.00  0.00    +0.037 C 
BRANCH  10  13
ATOM     13  O   UNL     1      32.757 -22.386 -18.610  0.00  0.00    -0.471 OA
ATOM     14  C   UNL     1      32.873 -23.145 -17.408  0.00  0.00    +0.252 C 
ENDBRANCH  10  13
ENDBRANCH   2   7
BRANCH   1  15
ATOM     15  C   UNL     1      34.934 -15.611 -22.118  0.00  0.00    +0.034 C 
BRANCH  15  16
ATOM     16  C   UNL     1      33.849 -14.783 -22.835  0.00  0.00    +0.064 C 
BRANCH  16  18
ATOM     17  N   UNL     1      32.709 -12.700 -22.355  0.00  0.00    -0.396 NA
ATOM     18  C   UNL     1      33.042 -13.919 -21.895  0.00  0.00    +0.110 C 
ATOM     19  C   UNL     1      32.709 -14.422 -20.657  0.00  0.00    +0.023 C 
ATOM     20  C   UNL     1      31.965 -13.602 -19.815  0.00  0.00    -0.015 C 
ATOM     21  C   UNL     1      31.988 -11.932 -21.509  0.00  0.00    +0.158 C 
ATOM     22  C   UNL     1      31.594 -12.331 -20.242  0.00  0.00    +0.100 C 
ATOM     23  N   UNL     1      31.601 -10.635 -21.929  0.00  0.00    -0.336 N 
ATOM     24  H   UNL     1      31.859 -10.309 -22.821  0.00  0.00    +0.144 HD
ATOM     25  H   UNL     1      31.075 -10.059 -21.328  0.00  0.00    +0.144 HD
ENDBRANCH  16  18
ENDBRANCH  15  16
ENDBRANCH   1  15
TORSDOF 5
ENDMDL
MODEL 4
REMARK VINA RESULT:     -11.0      4.511      9.149
REMARK  Name = 11659487
REMARK  5 active torsions:
REMARK  status: ('A' for Active; 'I' for Inactive)
REMARK    1  A    between atoms: C_1  and  C_15
REMARK    2  A    between atoms: C_2  and  C_7
REMARK    3  A    between atoms: C_10  and  O_13
REMARK    4  A    between atoms: C_15  and  C_16
REMARK    5  A    between atoms: C_16  and  C_18
REMARK                            x       y       z     vdW  Elec       q    Type
REMARK                         _______ _______ _______ _____ _____    ______ ____
ROOT
ATOM      1  C   UNL     1      34.858 -17.124 -22.165  0.00  0.00    -0.022 C 
ATOM      2  C   UNL     1      34.932 -19.448 -21.511  0.00  0.00    -0.000 C 
ATOM      3  C   UNL     1      34.888 -18.096 -21.167  0.00  0.00    -0.004 C 
ATOM      4  C   UNL     1      34.874 -17.502 -23.508  0.00  0.00    -0.004 C 
ATOM      5  C   UNL     1      34.947 -19.826 -22.853  0.00  0.00    -0.000 C 
ATOM      6  C   UNL     1      34.919 -18.853 -23.852  0.00  0.00    -0.000 C 
ENDROOT
BRANCH   2   7
ATOM      7  C   UNL     1      34.961 -20.458 -20.475  0.00  0.00    +0.003 C 
ATOM      8  C   UNL     1      33.768 -20.971 -19.968  0.00  0.00    +0.037 C 
ATOM      9  C   UNL     1      36.182 -20.918 -19.984  0.00  0.00    +0.000 C 
ATOM     10  C   UNL     1      33.796 -21.945 -18.969  0.00  0.00    +0.139 C 
ATOM     11  C   UNL     1      36.211 -21.891 -18.986  0.00  0.00    +0.003 C 
ATOM     12  C   UNL     1      35.018 -22.406 -18.478  0.00  0.00    +0.037 C 
BRANCH  10  13
ATOM     13  O   UNL     1      32.631 -22.447 -18.474  0.00  0.00    -0.471 OA
ATOM     14  C   UNL     1      32.707 -23.181 -17.253  0.00  0.00    +0.252 C 
ENDBRANCH  10  13
ENDBRANCH   2   7
BRANCH   1  15
ATOM     15  C   UNL     1      34.811 -15.679 -21.799  0.00  0.00    +0.034 C 
BRANCH  15  16
ATOM     16  C   UNL     1      33.484 -14.982 -22.161  0.00  0.00    +0.064 C 
BRANCH  16  18
ATOM     17  N   UNL     1      34.092 -12.854 -23.145  0.00  0.00    -0.396 NA
ATOM     18  C   UNL     1      33.596 -14.083 -23.369  0.00  0.00    +0.110 C 
ATOM     19  C   UNL     1      33.191 -14.567 -24.594  0.00  0.00    +0.023 C 
ATOM     20  C   UNL     1      33.307 -13.714 -25.686  0.00  0.00    -0.015 C 
ATOM     21  C   UNL     1      34.189 -12.054 -24.229  0.00  0.00    +0.158 C 
ATOM     22  C   UNL     1      33.814 -12.432 -25.509  0.00  0.00    +0.100 C 
ATOM     23  N   UNL     1      34.705 -10.744 -24.065  0.00  0.00    -0.336 N 
ATOM     24  H   UNL     1      34.983 -10.433 -23.174  0.00  0.00    +0.144 HD
ATOM     25  H   UNL     1      34.784 -10.145 -24.843  0.00  0.00    +0.144 HD
ENDBRANCH  16  18
ENDBRANCH  15  16
ENDBRANCH   1  15
TORSDOF 5
ENDMDL
MODEL 5
REMARK VINA RESULT:     -10.9      3.348      5.504
REMARK  Name = 11659487
REMARK  5 active torsions:
REMARK  status: ('A' for Active; 'I' for Inactive)
REMARK    1  A    between atoms: C_1  and  C_15
REMARK    2  A    between atoms: C_2  and  C_7
REMARK    3  A    between atoms: C_10  and  O_13
REMARK    4  A    between atoms: C_15  and  C_16
REMARK    5  A    between atoms: C_16  and  C_18
REMARK                            x       y       z     vdW  Elec       q    Type
REMARK                         _______ _______ _______ _____ _____    ______ ____
ROOT
ATOM      1  C   UNL     1      34.785 -16.590 -21.900  0.00  0.00    -0.022 C 
ATOM      2  C   UNL     1      33.509 -14.552 -22.135  0.00  0.00    -0.000 C 
ATOM      3  C   UNL     1      34.078 -15.535 -21.324  0.00  0.00    -0.004 C 
ATOM      4  C   UNL     1      34.921 -16.664 -23.287  0.00  0.00    -0.004 C 
ATOM      5  C   UNL     1      33.645 -14.626 -23.521  0.00  0.00    -0.000 C 
ATOM      6  C   UNL     1      34.352 -15.682 -24.097  0.00  0.00    -0.000 C 
ENDROOT
BRANCH   2   7
ATOM      7  C   UNL     1      32.777 -13.456 -21.538  0.00  0.00    +0.003 C 
ATOM      8  C   UNL     1      32.576 -12.278 -22.256  0.00  0.00    +0.037 C 
ATOM      9  C   UNL     1      32.271 -13.579 -20.244  0.00  0.00    +0.000 C 
ATOM     10  C   UNL     1      31.869 -11.222 -21.680  0.00  0.00    +0.139 C 
ATOM     11  C   UNL     1      31.565 -12.524 -19.668  0.00  0.00    +0.003 C 
ATOM     12  C   UNL     1      31.363 -11.345 -20.386  0.00  0.00    +0.037 C 
BRANCH  10  13
ATOM     13  O   UNL     1      31.673 -10.071 -22.381  0.00  0.00    -0.471 OA
ATOM     14  C   UNL     1      32.183  -8.868 -21.811  0.00  0.00    +0.252 C 
ENDBRANCH  10  13
ENDBRANCH   2   7
BRANCH   1  15
ATOM     15  C   UNL     1      35.394 -17.641 -21.034  0.00  0.00    +0.034 C 
BRANCH  15  16
ATOM     16  C   UNL     1      35.368 -19.054 -21.650  0.00  0.00    +0.064 C 
BRANCH  16  18
ATOM     17  N   UNL     1      35.835 -20.741 -19.976  0.00  0.00    -0.396 NA
ATOM     18  C   UNL     1      34.883 -20.112 -20.688  0.00  0.00    +0.110 C 
ATOM     19  C   UNL     1      33.531 -20.362 -20.605  0.00  0.00    +0.023 C 
ATOM     20  C   UNL     1      33.118 -21.342 -19.709  0.00  0.00    -0.015 C 
ATOM     21  C   UNL     1      35.397 -21.687 -19.117  0.00  0.00    +0.158 C 
ATOM     22  C   UNL     1      34.062 -22.022 -18.947  0.00  0.00    +0.100 C 
ATOM     23  N   UNL     1      36.346 -22.388 -18.333  0.00  0.00    -0.336 N 
ATOM     24  H   UNL     1      37.304 -22.183 -18.421  0.00  0.00    +0.144 HD
ATOM     25  H   UNL     1      36.047 -23.082 -17.701  0.00  0.00    +0.144 HD
ENDBRANCH  16  18
ENDBRANCH  15  16
ENDBRANCH   1  15
TORSDOF 5
ENDMDL
MODEL 6
REMARK VINA RESULT:     -10.8      1.579      2.264
REMARK  Name = 11659487
REMARK  5 active torsions:
REMARK  status: ('A' for Active; 'I' for Inactive)
REMARK    1  A    between atoms: C_1  and  C_15
REMARK    2  A    between atoms: C_2  and  C_7
REMARK    3  A    between atoms: C_10  and  O_13
REMARK    4  A    between atoms: C_15  and  C_16
REMARK    5  A    between atoms: C_16  and  C_18
REMARK                            x       y       z     vdW  Elec       q    Type
REMARK                         _______ _______ _______ _____ _____    ______ ____
ROOT
ATOM      1  C   UNL     1      34.594 -20.960 -19.920  0.00  0.00    -0.022 C 
ATOM      2  C   UNL     1      35.383 -19.116 -21.268  0.00  0.00    -0.000 C 
ATOM      3  C   UNL     1      34.331 -19.888 -20.771  0.00  0.00    -0.004 C 
ATOM      4  C   UNL     1      35.909 -21.263 -19.566  0.00  0.00    -0.004 C 
ATOM      5  C   UNL     1      36.697 -19.418 -20.913  0.00  0.00    -0.000 C 
ATOM      6  C   UNL     1      36.961 -20.492 -20.063  0.00  0.00    -0.000 C 
ENDROOT
BRANCH   2   7
ATOM      7  C   UNL     1      35.109 -18.002 -22.149  0.00  0.00    +0.003 C 
ATOM      8  C   UNL     1      34.924 -16.725 -21.623  0.00  0.00    +0.037 C 
ATOM      9  C   UNL     1      35.032 -18.206 -23.527  0.00  0.00    +0.000 C 
ATOM     10  C   UNL     1      34.661 -15.651 -22.474  0.00  0.00    +0.139 C 
ATOM     11  C   UNL     1      34.769 -17.134 -24.378  0.00  0.00    +0.003 C 
ATOM     12  C   UNL     1      34.584 -15.855 -23.851  0.00  0.00    +0.037 C 
BRANCH  10  13
ATOM     13  O   UNL     1      34.480 -14.403 -21.959  0.00  0.00    -0.471 OA
ATOM     14  C   UNL     1      33.398 -13.635 -22.482  0.00  0.00    +0.252 C 
ENDBRANCH  10  13
ENDBRANCH   2   7
BRANCH   1  15
ATOM     15  C   UNL     1      33.471 -21.785 -19.389  0.00  0.00    +0.034 C 
BRANCH  15  16
ATOM     16  C   UNL     1      33.915 -23.123 -18.764  0.00  0.00    +0.064 C 
BRANCH  16  18
ATOM     17  N   UNL     1      34.617 -23.211 -16.447  0.00  0.00    -0.396 NA
ATOM     18  C   UNL     1      33.575 -23.235 -17.297  0.00  0.00    +0.110 C 
ATOM     19  C   UNL     1      32.252 -23.353 -16.932  0.00  0.00    +0.023 C 
ATOM     20  C   UNL     1      31.972 -23.454 -15.573  0.00  0.00    -0.015 C 
ATOM     21  C   UNL     1      34.307 -23.312 -15.136  0.00  0.00    +0.158 C 
ATOM     22  C   UNL     1      33.013 -23.434 -14.652  0.00  0.00    +0.100 C 
ATOM     23  N   UNL     1      35.356 -23.293 -14.184  0.00  0.00    -0.336 N 
ATOM     24  H   UNL     1      36.290 -23.208 -14.483  0.00  0.00    +0.144 HD
ATOM     25  H   UNL     1      35.151 -23.365 -13.223  0.00  0.00    +0.144 HD
ENDBRANCH  16  18
ENDBRANCH  15  16
ENDBRANCH   1  15
TORSDOF 5
ENDMDL
MODEL 7
REMARK VINA RESULT:     -10.6      2.969      4.095
REMARK  Name = 11659487
REMARK  5 active torsions:
REMARK  status: ('A' for Active; 'I' for Inactive)
REMARK    1  A    between atoms: C_1  and  C_15
REMARK    2  A    between atoms: C_2  and  C_7
REMARK    3  A    between atoms: C_10  and  O_13
REMARK    4  A    between atoms: C_15  and  C_16
REMARK    5  A    between atoms: C_16  and  C_18
REMARK                            x       y       z     vdW  Elec       q    Type
REMARK                         _______ _______ _______ _____ _____    ______ ____
ROOT
ATOM      1  C   UNL     1      35.748 -21.786 -18.826  0.00  0.00    -0.022 C 
ATOM      2  C   UNL     1      34.698 -20.385 -20.491  0.00  0.00    -0.000 C 
ATOM      3  C   UNL     1      35.846 -20.818 -19.825  0.00  0.00    -0.004 C 
ATOM      4  C   UNL     1      34.504 -22.320 -18.491  0.00  0.00    -0.004 C 
ATOM      5  C   UNL     1      33.454 -20.919 -20.156  0.00  0.00    -0.000 C 
ATOM      6  C   UNL     1      33.357 -21.886 -19.156  0.00  0.00    -0.000 C 
ENDROOT
BRANCH   2   7
ATOM      7  C   UNL     1      34.799 -19.382 -21.528  0.00  0.00    +0.003 C 
ATOM      8  C   UNL     1      34.844 -18.030 -21.189  0.00  0.00    +0.037 C 
ATOM      9  C   UNL     1      34.854 -19.767 -22.867  0.00  0.00    +0.000 C 
ATOM     10  C   UNL     1      34.942 -17.063 -22.190  0.00  0.00    +0.139 C 
ATOM     11  C   UNL     1      34.952 -18.801 -23.868  0.00  0.00    +0.003 C 
ATOM     12  C   UNL     1      34.997 -17.448 -23.529  0.00  0.00    +0.037 C 
BRANCH  10  13
ATOM     13  O   UNL     1      34.985 -15.742 -21.859  0.00  0.00    -0.471 OA
ATOM     14  C   UNL     1      34.533 -14.812 -22.841  0.00  0.00    +0.252 C 
ENDBRANCH  10  13
ENDBRANCH   2   7
BRANCH   1  15
ATOM     15  C   UNL     1      36.974 -22.250 -18.114  0.00  0.00    +0.034 C 
BRANCH  15  16
ATOM     16  C   UNL     1      37.034 -21.833 -16.631  0.00  0.00    +0.064 C 
BRANCH  16  18
ATOM     17  N   UNL     1      38.025 -23.595 -15.297  0.00  0.00    -0.396 NA
ATOM     18  C   UNL     1      36.884 -22.996 -15.680  0.00  0.00    +0.110 C 
ATOM     19  C   UNL     1      35.618 -23.361 -15.276  0.00  0.00    +0.023 C 
ATOM     20  C   UNL     1      35.514 -24.436 -14.400  0.00  0.00    -0.015 C 
ATOM     21  C   UNL     1      37.885 -24.635 -14.447  0.00  0.00    +0.158 C 
ATOM     22  C   UNL     1      36.664 -25.091 -13.973  0.00  0.00    +0.100 C 
ATOM     23  N   UNL     1      39.047 -25.313 -14.001  0.00  0.00    -0.336 N 
ATOM     24  H   UNL     1      39.934 -25.024 -14.312  0.00  0.00    +0.144 HD
ATOM     25  H   UNL     1      38.965 -26.074 -13.381  0.00  0.00    +0.144 HD
ENDBRANCH  16  18
ENDBRANCH  15  16
ENDBRANCH   1  15
TORSDOF 5
ENDMDL
MODEL 8
REMARK VINA RESULT:     -10.5      3.854      8.750
REMARK  Name = 11659487
REMARK  5 active torsions:
REMARK  status: ('A' for Active; 'I' for Inactive)
REMARK    1  A    between atoms: C_1  and  C_15
REMARK    2  A    between atoms: C_2  and  C_7
REMARK    3  A    between atoms: C_10  and  O_13
REMARK    4  A    between atoms: C_15  and  C_16
REMARK    5  A    between atoms: C_16  and  C_18
REMARK                            x       y       z     vdW  Elec       q    Type
REMARK                         _______ _______ _______ _____ _____    ______ ____
ROOT
ATOM      1  C   UNL     1      35.247 -23.023 -16.583  0.00  0.00    -0.022 C 
ATOM      2  C   UNL     1      33.298 -23.727 -15.340  0.00  0.00    -0.000 C 
ATOM      3  C   UNL     1      33.864 -23.176 -16.491  0.00  0.00    -0.004 C 
ATOM      4  C   UNL     1      36.065 -23.419 -15.524  0.00  0.00    -0.004 C 
ATOM      5  C   UNL     1      34.115 -24.123 -14.282  0.00  0.00    -0.000 C 
ATOM      6  C   UNL     1      35.499 -23.969 -14.374  0.00  0.00    -0.000 C 
ENDROOT
BRANCH   2   7
ATOM      7  C   UNL     1      31.864 -23.887 -15.245  0.00  0.00    +0.003 C 
ATOM      8  C   UNL     1      31.020 -23.095 -16.023  0.00  0.00    +0.037 C 
ATOM      9  C   UNL     1      31.324 -24.836 -14.377  0.00  0.00    +0.000 C 
ATOM     10  C   UNL     1      29.637 -23.250 -15.931  0.00  0.00    +0.139 C 
ATOM     11  C   UNL     1      29.941 -24.991 -14.285  0.00  0.00    +0.003 C 
ATOM     12  C   UNL     1      29.097 -24.198 -15.063  0.00  0.00    +0.037 C 
BRANCH  10  13
ATOM     13  O   UNL     1      28.813 -22.476 -16.691  0.00  0.00    -0.471 OA
ATOM     14  C   UNL     1      27.420 -22.781 -16.655  0.00  0.00    +0.252 C 
ENDBRANCH  10  13
ENDBRANCH   2   7
BRANCH   1  15
ATOM     15  C   UNL     1      35.853 -22.434 -17.812  0.00  0.00    +0.034 C 
BRANCH  15  16
ATOM     16  C   UNL     1      34.890 -22.366 -19.015  0.00  0.00    +0.064 C 
BRANCH  16  18
ATOM     17  N   UNL     1      36.347 -20.680 -19.966  0.00  0.00    -0.396 NA
ATOM     18  C   UNL     1      35.084 -21.131 -19.862  0.00  0.00    +0.110 C 
ATOM     19  C   UNL     1      33.982 -20.558 -20.458  0.00  0.00    +0.023 C 
ATOM     20  C   UNL     1      34.195 -19.421 -21.231  0.00  0.00    -0.015 C 
ATOM     21  C   UNL     1      36.514 -19.575 -20.724  0.00  0.00    +0.158 C 
ATOM     22  C   UNL     1      35.482 -18.914 -21.371  0.00  0.00    +0.100 C 
ATOM     23  N   UNL     1      37.820 -19.045 -20.878  0.00  0.00    -0.336 N 
ATOM     24  H   UNL     1      38.582 -19.482 -20.436  0.00  0.00    +0.144 HD
ATOM     25  H   UNL     1      37.963 -18.240 -21.426  0.00  0.00    +0.144 HD
ENDBRANCH  16  18
ENDBRANCH  15  16
ENDBRANCH   1  15
TORSDOF 5
ENDMDL
MODEL 9
REMARK VINA RESULT:     -10.4      4.422      9.683
REMARK  Name = 11659487
REMARK  5 active torsions:
REMARK  status: ('A' for Active; 'I' for Inactive)
REMARK    1  A    between atoms: C_1  and  C_15
REMARK    2  A    between atoms: C_2  and  C_7
REMARK    3  A    between atoms: C_10  and  O_13
REMARK    4  A    between atoms: C_15  and  C_16
REMARK    5  A    between atoms: C_16  and  C_18
REMARK                            x       y       z     vdW  Elec       q    Type
REMARK                         _______ _______ _______ _____ _____    ______ ____
ROOT
ATOM      1  C   UNL     1      33.314 -23.266 -16.976  0.00  0.00    -0.022 C 
ATOM      2  C   UNL     1      34.061 -23.936 -14.778  0.00  0.00    -0.000 C 
ATOM      3  C   UNL     1      34.345 -23.627 -16.109  0.00  0.00    -0.004 C 
ATOM      4  C   UNL     1      31.999 -23.216 -16.513  0.00  0.00    -0.004 C 
ATOM      5  C   UNL     1      32.747 -23.886 -14.315  0.00  0.00    -0.000 C 
ATOM      6  C   UNL     1      31.715 -23.526 -15.183  0.00  0.00    -0.000 C 
ENDROOT
BRANCH   2   7
ATOM      7  C   UNL     1      35.131 -24.308 -13.878  0.00  0.00    +0.003 C 
ATOM      8  C   UNL     1      36.448 -24.343 -14.336  0.00  0.00    +0.037 C 
ATOM      9  C   UNL     1      34.846 -24.631 -12.552  0.00  0.00    +0.000 C 
ATOM     10  C   UNL     1      37.479 -24.701 -13.468  0.00  0.00    +0.139 C 
ATOM     11  C   UNL     1      35.877 -24.989 -11.683  0.00  0.00    +0.003 C 
ATOM     12  C   UNL     1      37.194 -25.024 -12.142  0.00  0.00    +0.037 C 
BRANCH  10  13
ATOM     13  O   UNL     1      38.765 -24.735 -13.915  0.00  0.00    -0.471 OA
ATOM     14  C   UNL     1      39.577 -25.822 -13.476  0.00  0.00    +0.252 C 
ENDBRANCH  10  13
ENDBRANCH   2   7
BRANCH   1  15
ATOM     15  C   UNL     1      33.616 -22.935 -18.398  0.00  0.00    +0.034 C 
BRANCH  15  16
ATOM     16  C   UNL     1      35.062 -22.457 -18.638  0.00  0.00    +0.064 C 
BRANCH  16  18
ATOM     17  N   UNL     1      36.377 -20.766 -19.767  0.00  0.00    -0.396 NA
ATOM     18  C   UNL     1      35.152 -21.292 -19.594  0.00  0.00    +0.110 C 
ATOM     19  C   UNL     1      34.002 -20.851 -20.210  0.00  0.00    +0.023 C 
ATOM     20  C   UNL     1      34.119 -19.776 -21.085  0.00  0.00    -0.015 C 
ATOM     21  C   UNL     1      36.452 -19.723 -20.623  0.00  0.00    +0.158 C 
ATOM     22  C   UNL     1      35.363 -19.195 -21.300  0.00  0.00    +0.100 C 
ATOM     23  N   UNL     1      37.714 -19.120 -20.855  0.00  0.00    -0.336 N 
ATOM     24  H   UNL     1      38.513 -19.462 -20.395  0.00  0.00    +0.144 HD
ATOM     25  H   UNL     1      37.789 -18.359 -21.474  0.00  0.00    +0.144 HD
ENDBRANCH  16  18
ENDBRANCH  15  16
ENDBRANCH   1  15
TORSDOF 5
ENDMDL
