MODEL 1
REMARK VINA RESULT:     -12.1      0.000      0.000
REMARK  Name = 24808489
REMARK  4 active torsions:
REMARK  status: ('A' for Active; 'I' for Inactive)
REMARK    1  A    between atoms: N_1  and  C_10
REMARK    2  A    between atoms: N_1  and  C_21
REMARK    3  A    between atoms: C_18  and  C_24
REMARK    4  A    between atoms: C_24  and  N_25
REMARK                            x       y       z     vdW  Elec       q    Type
REMARK                         _______ _______ _______ _____ _____    ______ ____
ROOT
ATOM      1  N   UNL     1      34.885 -22.750 -18.305  0.00  0.00    -0.311 N 
ATOM      2  H   UNL     1      35.621 -23.386 -18.158  0.00  0.00    +0.152 HD
ENDROOT
BRANCH   1  10
ATOM      3 BR   UNL     1      28.300 -23.354 -16.244  0.00  0.00    -0.049 Br
ATOM      4  O   UNL     1      36.086 -23.450 -16.181  0.00  0.00    -0.270 OA
ATOM      5  O   UNL     1      33.800 -24.649 -12.387  0.00  0.00    -0.270 OA
ATOM      6  N   UNL     1      34.905 -24.042 -14.307  0.00  0.00    -0.248 N 
ATOM      7  C   UNL     1      33.690 -23.386 -16.301  0.00  0.00    +0.068 C 
ATOM      8  C   UNL     1      32.422 -23.610 -15.571  0.00  0.00    +0.010 C 
ATOM      9  C   UNL     1      32.467 -24.041 -14.235  0.00  0.00    +0.054 C 
ATOM     10  C   UNL     1      33.768 -22.974 -17.578  0.00  0.00    +0.066 C 
ATOM     11  C   UNL     1      35.004 -23.618 -15.624  0.00  0.00    +0.253 C 
ATOM     12  C   UNL     1      31.157 -23.410 -16.151  0.00  0.00    +0.007 C 
ATOM     13  C   UNL     1      33.760 -24.273 -13.554  0.00  0.00    +0.252 C 
ATOM     14  C   UNL     1      31.286 -24.265 -13.508  0.00  0.00    +0.005 C 
ATOM     15  C   UNL     1      29.982 -23.634 -15.426  0.00  0.00    +0.035 C 
ATOM     16  C   UNL     1      30.046 -24.060 -14.106  0.00  0.00    +0.007 C 
ATOM     17  H   UNL     1      35.760 -24.201 -13.844  0.00  0.00    +0.158 HD
ENDBRANCH   1  10
BRANCH   1  21
ATOM     18  C   UNL     1      35.639 -19.713 -21.102  0.00  0.00    -0.043 C 
ATOM     19  C   UNL     1      36.698 -20.302 -20.410  0.00  0.00    -0.005 C 
ATOM     20  C   UNL     1      34.331 -20.132 -20.865  0.00  0.00    -0.005 C 
ATOM     21  C   UNL     1      35.138 -21.731 -19.243  0.00  0.00    +0.048 C 
ATOM     22  C   UNL     1      36.446 -21.311 -19.480  0.00  0.00    +0.014 C 
ATOM     23  C   UNL     1      34.080 -21.141 -19.935  0.00  0.00    +0.014 C 
BRANCH  18  24
ATOM     24  C   UNL     1      35.908 -18.633 -22.095  0.00  0.00    -0.050 C 
BRANCH  24  25
ATOM     25  N   UNL     1      34.914 -17.572 -22.045  0.00  0.00    +0.390 N 
ATOM     26  C   UNL     1      34.967 -16.816 -20.794  0.00  0.00    -0.077 C 
ATOM     27  C   UNL     1      35.106 -16.576 -23.098  0.00  0.00    -0.077 C 
ATOM     28  C   UNL     1      34.155 -15.570 -21.113  0.00  0.00    -0.025 C 
ATOM     29  C   UNL     1      34.244 -15.413 -22.628  0.00  0.00    -0.025 C 
ATOM     30  H   UNL     1      34.025 -18.062 -22.149  0.00  0.00    -0.079 HD
ENDBRANCH  24  25
ENDBRANCH  18  24
ENDBRANCH   1  21
TORSDOF 4
ENDMDL
MODEL 2
REMARK VINA RESULT:     -12.0      2.516      3.330
REMARK  Name = 24808489
REMARK  4 active torsions:
REMARK  status: ('A' for Active; 'I' for Inactive)
REMARK    1  A    between atoms: N_1  and  C_10
REMARK    2  A    between atoms: N_1  and  C_21
REMARK    3  A    between atoms: C_18  and  C_24
REMARK    4  A    between atoms: C_24  and  N_25
REMARK                            x       y       z     vdW  Elec       q    Type
REMARK                         _______ _______ _______ _____ _____    ______ ____
ROOT
ATOM      1  N   UNL     1      33.383 -22.792 -18.255  0.00  0.00    -0.311 N 
ATOM      2  H   UNL     1      32.487 -23.139 -18.465  0.00  0.00    +0.152 HD
ENDROOT
BRANCH   1  10
ATOM      3 BR   UNL     1      37.832 -25.105 -13.478  0.00  0.00    -0.049 Br
ATOM      4  O   UNL     1      31.224 -22.847 -16.922  0.00  0.00    -0.270 OA
ATOM      5  O   UNL     1      31.108 -24.245 -12.552  0.00  0.00    -0.270 OA
ATOM      6  N   UNL     1      31.210 -23.552 -14.740  0.00  0.00    -0.248 N 
ATOM      7  C   UNL     1      33.312 -23.525 -15.951  0.00  0.00    +0.068 C 
ATOM      8  C   UNL     1      33.989 -24.034 -14.738  0.00  0.00    +0.010 C 
ATOM      9  C   UNL     1      33.231 -24.278 -13.580  0.00  0.00    +0.054 C 
ATOM     10  C   UNL     1      33.934 -23.257 -17.112  0.00  0.00    +0.066 C 
ATOM     11  C   UNL     1      31.837 -23.271 -15.945  0.00  0.00    +0.253 C 
ATOM     12  C   UNL     1      35.370 -24.292 -14.680  0.00  0.00    +0.007 C 
ATOM     13  C   UNL     1      31.771 -24.031 -13.562  0.00  0.00    +0.252 C 
ATOM     14  C   UNL     1      33.836 -24.761 -12.409  0.00  0.00    +0.005 C 
ATOM     15  C   UNL     1      35.971 -24.773 -13.513  0.00  0.00    +0.035 C 
ATOM     16  C   UNL     1      35.205 -25.007 -12.379  0.00  0.00    +0.007 C 
ATOM     17  H   UNL     1      30.239 -23.390 -14.716  0.00  0.00    +0.158 HD
ENDBRANCH   1  10
BRANCH   1  21
ATOM     18  C   UNL     1      34.975 -20.069 -21.025  0.00  0.00    -0.043 C 
ATOM     19  C   UNL     1      33.595 -20.150 -20.840  0.00  0.00    -0.005 C 
ATOM     20  C   UNL     1      35.827 -20.893 -20.289  0.00  0.00    -0.005 C 
ATOM     21  C   UNL     1      33.917 -21.879 -19.185  0.00  0.00    +0.048 C 
ATOM     22  C   UNL     1      33.066 -21.055 -19.920  0.00  0.00    +0.014 C 
ATOM     23  C   UNL     1      35.298 -21.798 -19.369  0.00  0.00    +0.014 C 
BRANCH  18  24
ATOM     24  C   UNL     1      35.540 -19.101 -22.009  0.00  0.00    -0.050 C 
BRANCH  24  25
ATOM     25  N   UNL     1      34.773 -17.867 -22.077  0.00  0.00    +0.390 N 
ATOM     26  C   UNL     1      35.036 -16.982 -20.942  0.00  0.00    -0.077 C 
ATOM     27  C   UNL     1      35.097 -17.072 -23.261  0.00  0.00    -0.077 C 
ATOM     28  C   UNL     1      34.463 -15.651 -21.407  0.00  0.00    -0.025 C 
ATOM     29  C   UNL     1      34.501 -15.712 -22.931  0.00  0.00    -0.025 C 
ATOM     30  H   UNL     1      33.802 -18.180 -22.090  0.00  0.00    -0.079 HD
ENDBRANCH  24  25
ENDBRANCH  18  24
ENDBRANCH   1  21
TORSDOF 4
ENDMDL
MODEL 3
REMARK VINA RESULT:     -11.6      4.003      9.773
REMARK  Name = 24808489
REMARK  4 active torsions:
REMARK  status: ('A' for Active; 'I' for Inactive)
REMARK    1  A    between atoms: N_1  and  C_10
REMARK    2  A    between atoms: N_1  and  C_21
REMARK    3  A    between atoms: C_18  and  C_24
REMARK    4  A    between atoms: C_24  and  N_25
REMARK                            x       y       z     vdW  Elec       q    Type
REMARK                         _______ _______ _______ _____ _____    ______ ____
ROOT
ATOM      1  N   UNL     1      35.618 -18.934 -21.037  0.00  0.00    -0.311 N 
ATOM      2  H   UNL     1      36.511 -19.018 -21.441  0.00  0.00    +0.152 HD
ENDROOT
BRANCH   1  10
ATOM      3 BR   UNL     1      32.403 -12.876 -20.077  0.00  0.00    -0.049 Br
ATOM      4  O   UNL     1      35.728 -18.988 -23.572  0.00  0.00    -0.270 OA
ATOM      5  O   UNL     1      34.018 -15.593 -26.144  0.00  0.00    -0.270 OA
ATOM      6  N   UNL     1      34.861 -17.270 -24.820  0.00  0.00    -0.248 N 
ATOM      7  C   UNL     1      34.722 -17.149 -22.401  0.00  0.00    +0.068 C 
ATOM      8  C   UNL     1      34.040 -15.843 -22.531  0.00  0.00    +0.010 C 
ATOM      9  C   UNL     1      33.802 -15.317 -23.812  0.00  0.00    +0.054 C 
ATOM     10  C   UNL     1      35.000 -17.749 -21.230  0.00  0.00    +0.066 C 
ATOM     11  C   UNL     1      35.156 -17.901 -23.620  0.00  0.00    +0.253 C 
ATOM     12  C   UNL     1      33.608 -15.089 -21.425  0.00  0.00    +0.007 C 
ATOM     13  C   UNL     1      34.226 -16.051 -25.025  0.00  0.00    +0.252 C 
ATOM     14  C   UNL     1      33.157 -14.080 -23.977  0.00  0.00    +0.005 C 
ATOM     15  C   UNL     1      32.966 -13.858 -21.591  0.00  0.00    +0.035 C 
ATOM     16  C   UNL     1      32.741 -13.354 -22.865  0.00  0.00    +0.007 C 
ATOM     17  H   UNL     1      35.141 -17.749 -25.634  0.00  0.00    +0.158 HD
ENDBRANCH   1  10
BRANCH   1  21
ATOM     18  C   UNL     1      34.244 -22.307 -18.949  0.00  0.00    -0.043 C 
ATOM     19  C   UNL     1      35.612 -22.051 -19.037  0.00  0.00    -0.005 C 
ATOM     20  C   UNL     1      33.332 -21.442 -19.554  0.00  0.00    -0.005 C 
ATOM     21  C   UNL     1      35.157 -20.066 -20.337  0.00  0.00    +0.048 C 
ATOM     22  C   UNL     1      36.068 -20.930 -19.731  0.00  0.00    +0.014 C 
ATOM     23  C   UNL     1      33.788 -20.322 -20.249  0.00  0.00    +0.014 C 
BRANCH  18  24
ATOM     24  C   UNL     1      33.756 -23.505 -18.207  0.00  0.00    -0.050 C 
BRANCH  24  25
ATOM     25  N   UNL     1      33.450 -23.210 -16.815  0.00  0.00    +0.390 N 
ATOM     26  C   UNL     1      32.053 -23.484 -16.480  0.00  0.00    -0.077 C 
ATOM     27  C   UNL     1      34.231 -24.027 -15.887  0.00  0.00    -0.077 C 
ATOM     28  C   UNL     1      32.061 -23.488 -14.959  0.00  0.00    -0.025 C 
ATOM     29  C   UNL     1      33.494 -23.842 -14.569  0.00  0.00    -0.025 C 
ATOM     30  H   UNL     1      33.671 -22.218 -16.719  0.00  0.00    -0.079 HD
ENDBRANCH  24  25
ENDBRANCH  18  24
ENDBRANCH   1  21
TORSDOF 4
ENDMDL
MODEL 4
REMARK VINA RESULT:     -11.2      1.165      1.678
REMARK  Name = 24808489
REMARK  4 active torsions:
REMARK  status: ('A' for Active; 'I' for Inactive)
REMARK    1  A    between atoms: N_1  and  C_10
REMARK    2  A    between atoms: N_1  and  C_21
REMARK    3  A    between atoms: C_18  and  C_24
REMARK    4  A    between atoms: C_24  and  N_25
REMARK                            x       y       z     vdW  Elec       q    Type
REMARK                         _______ _______ _______ _____ _____    ______ ____
ROOT
ATOM      1  N   UNL     1      35.499 -22.282 -19.163  0.00  0.00    -0.311 N 
ATOM      2  H   UNL     1      36.225 -22.926 -19.324  0.00  0.00    +0.152 HD
ENDROOT
BRANCH   1  10
ATOM      3 BR   UNL     1      29.596 -23.971 -15.957  0.00  0.00    -0.049 Br
ATOM      4  O   UNL     1      37.143 -22.550 -17.247  0.00  0.00    -0.270 OA
ATOM      5  O   UNL     1      35.790 -23.837 -13.055  0.00  0.00    -0.270 OA
ATOM      6  N   UNL     1      36.425 -23.195 -15.167  0.00  0.00    -0.248 N 
ATOM      7  C   UNL     1      34.796 -22.962 -16.950  0.00  0.00    +0.068 C 
ATOM      8  C   UNL     1      33.736 -23.364 -16.001  0.00  0.00    +0.010 C 
ATOM      9  C   UNL     1      34.082 -23.661 -14.672  0.00  0.00    +0.054 C 
ATOM     10  C   UNL     1      34.583 -22.655 -18.242  0.00  0.00    +0.066 C 
ATOM     11  C   UNL     1      36.222 -22.876 -16.502  0.00  0.00    +0.253 C 
ATOM     12  C   UNL     1      32.380 -23.464 -16.361  0.00  0.00    +0.007 C 
ATOM     13  C   UNL     1      35.487 -23.578 -14.216  0.00  0.00    +0.252 C 
ATOM     14  C   UNL     1      33.104 -24.046 -13.739  0.00  0.00    +0.005 C 
ATOM     15  C   UNL     1      31.408 -23.848 -15.432  0.00  0.00    +0.035 C 
ATOM     16  C   UNL     1      31.769 -24.138 -14.122  0.00  0.00    +0.007 C 
ATOM     17  H   UNL     1      37.357 -23.145 -14.853  0.00  0.00    +0.158 HD
ENDBRANCH   1  10
BRANCH   1  21
ATOM     18  C   UNL     1      35.664 -18.751 -21.427  0.00  0.00    -0.043 C 
ATOM     19  C   UNL     1      34.449 -19.417 -21.260  0.00  0.00    -0.005 C 
ATOM     20  C   UNL     1      36.823 -19.259 -20.842  0.00  0.00    -0.005 C 
ATOM     21  C   UNL     1      35.554 -21.098 -19.923  0.00  0.00    +0.048 C 
ATOM     22  C   UNL     1      34.395 -20.590 -20.508  0.00  0.00    +0.014 C 
ATOM     23  C   UNL     1      36.769 -20.433 -20.090  0.00  0.00    +0.014 C 
BRANCH  18  24
ATOM     24  C   UNL     1      35.721 -17.497 -22.232  0.00  0.00    -0.050 C 
BRANCH  24  25
ATOM     25  N   UNL     1      34.568 -16.639 -22.006  0.00  0.00    +0.390 N 
ATOM     26  C   UNL     1      34.588 -16.013 -20.684  0.00  0.00    -0.077 C 
ATOM     27  C   UNL     1      34.506 -15.526 -22.953  0.00  0.00    -0.077 C 
ATOM     28  C   UNL     1      33.554 -14.904 -20.816  0.00  0.00    -0.025 C 
ATOM     29  C   UNL     1      33.498 -14.587 -22.307  0.00  0.00    -0.025 C 
ATOM     30  H   UNL     1      33.770 -17.266 -22.112  0.00  0.00    -0.079 HD
ENDBRANCH  24  25
ENDBRANCH  18  24
ENDBRANCH   1  21
TORSDOF 4
ENDMDL
MODEL 5
REMARK VINA RESULT:     -10.8      3.203      4.380
REMARK  Name = 24808489
REMARK  4 active torsions:
REMARK  status: ('A' for Active; 'I' for Inactive)
REMARK    1  A    between atoms: N_1  and  C_10
REMARK    2  A    between atoms: N_1  and  C_21
REMARK    3  A    between atoms: C_18  and  C_24
REMARK    4  A    between atoms: C_24  and  N_25
REMARK                            x       y       z     vdW  Elec       q    Type
REMARK                         _______ _______ _______ _____ _____    ______ ____
ROOT
ATOM      1  N   UNL     1      34.432 -23.087 -16.891  0.00  0.00    -0.311 N 
ATOM      2  H   UNL     1      33.518 -23.189 -16.542  0.00  0.00    +0.152 HD
ENDROOT
BRANCH   1  10
ATOM      3 BR   UNL     1      40.432 -25.809 -14.757  0.00  0.00    -0.049 Br
ATOM      4  O   UNL     1      33.050 -23.331 -14.776  0.00  0.00    -0.270 OA
ATOM      5  O   UNL     1      34.778 -25.194 -10.954  0.00  0.00    -0.270 OA
ATOM      6  N   UNL     1      33.952 -24.268 -12.887  0.00  0.00    -0.248 N 
ATOM      7  C   UNL     1      35.333 -24.065 -14.871  0.00  0.00    +0.068 C 
ATOM      8  C   UNL     1      36.450 -24.688 -14.127  0.00  0.00    +0.010 C 
ATOM      9  C   UNL     1      36.254 -25.071 -12.790  0.00  0.00    +0.054 C 
ATOM     10  C   UNL     1      35.406 -23.661 -16.152  0.00  0.00    +0.066 C 
ATOM     11  C   UNL     1      34.010 -23.844 -14.207  0.00  0.00    +0.253 C 
ATOM     12  C   UNL     1      37.715 -24.922 -14.694  0.00  0.00    +0.007 C 
ATOM     13  C   UNL     1      34.950 -24.859 -12.122  0.00  0.00    +0.252 C 
ATOM     14  C   UNL     1      37.289 -25.665 -12.049  0.00  0.00    +0.005 C 
ATOM     15  C   UNL     1      38.745 -25.513 -13.956  0.00  0.00    +0.035 C 
ATOM     16  C   UNL     1      38.532 -25.885 -12.635  0.00  0.00    +0.007 C 
ATOM     17  H   UNL     1      33.090 -24.129 -12.432  0.00  0.00    +0.158 HD
ENDBRANCH   1  10
BRANCH   1  21
ATOM     18  C   UNL     1      34.777 -20.931 -20.477  0.00  0.00    -0.043 C 
ATOM     19  C   UNL     1      35.924 -21.317 -19.781  0.00  0.00    -0.005 C 
ATOM     20  C   UNL     1      33.517 -21.261 -19.980  0.00  0.00    -0.005 C 
ATOM     21  C   UNL     1      34.547 -22.363 -18.094  0.00  0.00    +0.048 C 
ATOM     22  C   UNL     1      35.808 -22.033 -18.590  0.00  0.00    +0.014 C 
ATOM     23  C   UNL     1      33.401 -21.977 -18.789  0.00  0.00    +0.014 C 
BRANCH  18  24
ATOM     24  C   UNL     1      34.901 -20.165 -21.750  0.00  0.00    -0.050 C 
BRANCH  24  25
ATOM     25  N   UNL     1      35.274 -18.775 -21.528  0.00  0.00    +0.390 N 
ATOM     26  C   UNL     1      35.459 -18.040 -22.779  0.00  0.00    -0.077 C 
ATOM     27  C   UNL     1      34.247 -18.032 -20.799  0.00  0.00    -0.077 C 
ATOM     28  C   UNL     1      35.448 -16.588 -22.326  0.00  0.00    -0.025 C 
ATOM     29  C   UNL     1      34.654 -16.583 -21.023  0.00  0.00    -0.025 C 
ATOM     30  H   UNL     1      36.143 -18.835 -20.996  0.00  0.00    -0.079 HD
ENDBRANCH  24  25
ENDBRANCH  18  24
ENDBRANCH   1  21
TORSDOF 4
ENDMDL
MODEL 6
REMARK VINA RESULT:     -10.6      2.630      3.415
REMARK  Name = 24808489
REMARK  4 active torsions:
REMARK  status: ('A' for Active; 'I' for Inactive)
REMARK    1  A    between atoms: N_1  and  C_10
REMARK    2  A    between atoms: N_1  and  C_21
REMARK    3  A    between atoms: C_18  and  C_24
REMARK    4  A    between atoms: C_24  and  N_25
REMARK                            x       y       z     vdW  Elec       q    Type
REMARK                         _______ _______ _______ _____ _____    ______ ____
ROOT
ATOM      1  N   UNL     1      35.454 -22.236 -19.540  0.00  0.00    -0.311 N 
ATOM      2  H   UNL     1      35.372 -22.985 -20.172  0.00  0.00    +0.152 HD
ENDROOT
BRANCH   1  10
ATOM      3 BR   UNL     1      37.521 -23.654 -13.083  0.00  0.00    -0.049 Br
ATOM      4  O   UNL     1      32.959 -22.646 -19.313  0.00  0.00    -0.270 OA
ATOM      5  O   UNL     1      31.071 -23.968 -15.344  0.00  0.00    -0.270 OA
ATOM      6  N   UNL     1      32.057 -23.305 -17.311  0.00  0.00    -0.248 N 
ATOM      7  C   UNL     1      34.449 -22.931 -17.452  0.00  0.00    +0.068 C 
ATOM      8  C   UNL     1      34.565 -23.293 -16.023  0.00  0.00    +0.010 C 
ATOM      9  C   UNL     1      33.408 -23.646 -15.308  0.00  0.00    +0.054 C 
ATOM     10  C   UNL     1      35.485 -22.578 -18.233  0.00  0.00    +0.066 C 
ATOM     11  C   UNL     1      33.115 -22.939 -18.130  0.00  0.00    +0.253 C 
ATOM     12  C   UNL     1      35.788 -23.304 -15.330  0.00  0.00    +0.007 C 
ATOM     13  C   UNL     1      32.082 -23.659 -15.967  0.00  0.00    +0.252 C 
ATOM     14  C   UNL     1      33.476 -23.996 -13.950  0.00  0.00    +0.005 C 
ATOM     15  C   UNL     1      35.855 -23.653 -13.977  0.00  0.00    +0.035 C 
ATOM     16  C   UNL     1      34.700 -23.998 -13.288  0.00  0.00    +0.007 C 
ATOM     17  H   UNL     1      31.169 -23.315 -17.738  0.00  0.00    +0.158 HD
ENDBRANCH   1  10
BRANCH   1  21
ATOM     18  C   UNL     1      35.663 -18.413 -21.262  0.00  0.00    -0.043 C 
ATOM     19  C   UNL     1      34.430 -19.052 -21.129  0.00  0.00    -0.005 C 
ATOM     20  C   UNL     1      36.827 -19.045 -20.823  0.00  0.00    -0.005 C 
ATOM     21  C   UNL     1      35.525 -20.954 -20.118  0.00  0.00    +0.048 C 
ATOM     22  C   UNL     1      34.362 -20.322 -20.557  0.00  0.00    +0.014 C 
ATOM     23  C   UNL     1      36.758 -20.315 -20.251  0.00  0.00    +0.014 C 
BRANCH  18  24
ATOM     24  C   UNL     1      35.737 -17.056 -21.874  0.00  0.00    -0.050 C 
BRANCH  24  25
ATOM     25  N   UNL     1      34.483 -16.326 -21.758  0.00  0.00    +0.390 N 
ATOM     26  C   UNL     1      34.379 -15.591 -20.498  0.00  0.00    -0.077 C 
ATOM     27  C   UNL     1      34.328 -15.313 -22.802  0.00  0.00    -0.077 C 
ATOM     28  C   UNL     1      33.228 -14.630 -20.757  0.00  0.00    -0.025 C 
ATOM     29  C   UNL     1      33.193 -14.450 -22.272  0.00  0.00    -0.025 C 
ATOM     30  H   UNL     1      33.768 -17.051 -21.830  0.00  0.00    -0.079 HD
ENDBRANCH  24  25
ENDBRANCH  18  24
ENDBRANCH   1  21
TORSDOF 4
ENDMDL
MODEL 7
REMARK VINA RESULT:     -10.1      7.183     12.373
REMARK  Name = 24808489
REMARK  4 active torsions:
REMARK  status: ('A' for Active; 'I' for Inactive)
REMARK    1  A    between atoms: N_1  and  C_10
REMARK    2  A    between atoms: N_1  and  C_21
REMARK    3  A    between atoms: C_18  and  C_24
REMARK    4  A    between atoms: C_24  and  N_25
REMARK                            x       y       z     vdW  Elec       q    Type
REMARK                         _______ _______ _______ _____ _____    ______ ____
ROOT
ATOM      1  N   UNL     1      32.084 -13.106 -22.185  0.00  0.00    -0.311 N 
ATOM      2  H   UNL     1      31.153 -13.356 -21.986  0.00  0.00    +0.152 HD
ENDROOT
BRANCH   1  10
ATOM      3 BR   UNL     1      33.779  -6.860 -24.650  0.00  0.00    -0.049 Br
ATOM      4  O   UNL     1      31.404 -12.485 -19.819  0.00  0.00    -0.270 OA
ATOM      5  O   UNL     1      31.543  -8.152 -18.315  0.00  0.00    -0.270 OA
ATOM      6  N   UNL     1      31.488 -10.307 -19.108  0.00  0.00    -0.248 N 
ATOM      7  C   UNL     1      32.152 -10.825 -21.383  0.00  0.00    +0.068 C 
ATOM      8  C   UNL     1      32.429  -9.388 -21.602  0.00  0.00    +0.010 C 
ATOM      9  C   UNL     1      32.219  -8.480 -20.550  0.00  0.00    +0.054 C 
ATOM     10  C   UNL     1      32.316 -11.781 -22.313  0.00  0.00    +0.066 C 
ATOM     11  C   UNL     1      31.652 -11.306 -20.056  0.00  0.00    +0.253 C 
ATOM     12  C   UNL     1      32.899  -8.875 -22.824  0.00  0.00    +0.007 C 
ATOM     13  C   UNL     1      31.726  -8.944 -19.234  0.00  0.00    +0.252 C 
ATOM     14  C   UNL     1      32.470  -7.109 -20.719  0.00  0.00    +0.005 C 
ATOM     15  C   UNL     1      33.148  -7.509 -22.990  0.00  0.00    +0.035 C 
ATOM     16  C   UNL     1      32.935  -6.627 -21.939  0.00  0.00    +0.007 C 
ATOM     17  H   UNL     1      31.159 -10.604 -18.228  0.00  0.00    +0.158 HD
ENDBRANCH   1  10
BRANCH   1  21
ATOM     18  C   UNL     1      34.795 -16.294 -22.514  0.00  0.00    -0.043 C 
ATOM     19  C   UNL     1      34.352 -15.633 -23.661  0.00  0.00    -0.005 C 
ATOM     20  C   UNL     1      34.336 -15.896 -21.259  0.00  0.00    -0.005 C 
ATOM     21  C   UNL     1      32.993 -14.176 -22.295  0.00  0.00    +0.048 C 
ATOM     22  C   UNL     1      33.451 -14.574 -23.550  0.00  0.00    +0.014 C 
ATOM     23  C   UNL     1      33.435 -14.837 -21.149  0.00  0.00    +0.014 C 
BRANCH  18  24
ATOM     24  C   UNL     1      35.757 -17.427 -22.632  0.00  0.00    -0.050 C 
BRANCH  24  25
ATOM     25  N   UNL     1      35.687 -18.335 -21.498  0.00  0.00    +0.390 N 
ATOM     26  C   UNL     1      34.774 -19.454 -21.734  0.00  0.00    -0.077 C 
ATOM     27  C   UNL     1      36.977 -18.955 -21.198  0.00  0.00    -0.077 C 
ATOM     28  C   UNL     1      35.149 -20.438 -20.635  0.00  0.00    -0.025 C 
ATOM     29  C   UNL     1      36.596 -20.108 -20.281  0.00  0.00    -0.025 C 
ATOM     30  H   UNL     1      35.366 -17.746 -20.729  0.00  0.00    -0.079 HD
ENDBRANCH  24  25
ENDBRANCH  18  24
ENDBRANCH   1  21
TORSDOF 4
ENDMDL
MODEL 8
REMARK VINA RESULT:     -10.1     10.816     16.670
REMARK  Name = 24808489
REMARK  4 active torsions:
REMARK  status: ('A' for Active; 'I' for Inactive)
REMARK    1  A    between atoms: N_1  and  C_10
REMARK    2  A    between atoms: N_1  and  C_21
REMARK    3  A    between atoms: C_18  and  C_24
REMARK    4  A    between atoms: C_24  and  N_25
REMARK                            x       y       z     vdW  Elec       q    Type
REMARK                         _______ _______ _______ _____ _____    ______ ____
ROOT
ATOM      1  N   UNL     1      31.945  -7.707 -20.941  0.00  0.00    -0.311 N 
ATOM      2  H   UNL     1      31.616  -7.196 -20.167  0.00  0.00    +0.152 HD
ENDROOT
BRANCH   1  10
ATOM      3 BR   UNL     1      35.291  -5.338 -26.522  0.00  0.00    -0.049 Br
ATOM      4  O   UNL     1      30.168  -5.912 -20.687  0.00  0.00    -0.270 OA
ATOM      5  O   UNL     1      29.899  -2.344 -23.561  0.00  0.00    -0.270 OA
ATOM      6  N   UNL     1      30.069  -4.145 -22.145  0.00  0.00    -0.248 N 
ATOM      7  C   UNL     1      31.793  -5.824 -22.451  0.00  0.00    +0.068 C 
ATOM      8  C   UNL     1      32.282  -5.071 -23.627  0.00  0.00    +0.010 C 
ATOM      9  C   UNL     1      31.631  -3.884 -24.001  0.00  0.00    +0.054 C 
ATOM     10  C   UNL     1      32.337  -6.969 -22.002  0.00  0.00    +0.066 C 
ATOM     11  C   UNL     1      30.618  -5.327 -21.669  0.00  0.00    +0.253 C 
ATOM     12  C   UNL     1      33.380  -5.486 -24.402  0.00  0.00    +0.007 C 
ATOM     13  C   UNL     1      30.468  -3.382 -23.236  0.00  0.00    +0.252 C 
ATOM     14  C   UNL     1      32.065  -3.141 -25.111  0.00  0.00    +0.005 C 
ATOM     15  C   UNL     1      33.811  -4.745 -25.507  0.00  0.00    +0.035 C 
ATOM     16  C   UNL     1      33.154  -3.574 -25.861  0.00  0.00    +0.007 C 
ATOM     17  H   UNL     1      29.293  -3.803 -21.645  0.00  0.00    +0.158 HD
ENDBRANCH   1  10
BRANCH   1  21
ATOM     18  C   UNL     1      31.944 -11.881 -20.498  0.00  0.00    -0.043 C 
ATOM     19  C   UNL     1      31.944 -11.315 -21.773  0.00  0.00    -0.005 C 
ATOM     20  C   UNL     1      31.944 -11.061 -19.370  0.00  0.00    -0.005 C 
ATOM     21  C   UNL     1      31.944  -9.107 -20.792  0.00  0.00    +0.048 C 
ATOM     22  C   UNL     1      31.944  -9.928 -21.919  0.00  0.00    +0.014 C 
ATOM     23  C   UNL     1      31.944  -9.674 -19.517  0.00  0.00    +0.014 C 
BRANCH  18  24
ATOM     24  C   UNL     1      31.943 -13.364 -20.341  0.00  0.00    -0.050 C 
BRANCH  24  25
ATOM     25  N   UNL     1      33.162 -13.977 -20.850  0.00  0.00    +0.390 N 
ATOM     26  C   UNL     1      33.421 -15.286 -20.250  0.00  0.00    -0.077 C 
ATOM     27  C   UNL     1      33.104 -14.223 -22.290  0.00  0.00    -0.077 C 
ATOM     28  C   UNL     1      34.468 -15.884 -21.178  0.00  0.00    -0.025 C 
ATOM     29  C   UNL     1      34.261 -15.184 -22.517  0.00  0.00    -0.025 C 
ATOM     30  H   UNL     1      33.893 -13.305 -20.613  0.00  0.00    -0.079 HD
ENDBRANCH  24  25
ENDBRANCH  18  24
ENDBRANCH   1  21
TORSDOF 4
ENDMDL
MODEL 9
REMARK VINA RESULT:      -9.8      9.974     15.959
REMARK  Name = 24808489
REMARK  4 active torsions:
REMARK  status: ('A' for Active; 'I' for Inactive)
REMARK    1  A    between atoms: N_1  and  C_10
REMARK    2  A    between atoms: N_1  and  C_21
REMARK    3  A    between atoms: C_18  and  C_24
REMARK    4  A    between atoms: C_24  and  N_25
REMARK                            x       y       z     vdW  Elec       q    Type
REMARK                         _______ _______ _______ _____ _____    ______ ____
ROOT
ATOM      1  N   UNL     1      33.283  -9.239 -22.552  0.00  0.00    -0.311 N 
ATOM      2  H   UNL     1      33.082  -9.055 -21.606  0.00  0.00    +0.152 HD
ENDROOT
BRANCH   1  10
ATOM      3 BR   UNL     1      35.762  -4.725 -27.183  0.00  0.00    -0.049 Br
ATOM      4  O   UNL     1      31.306  -7.922 -21.655  0.00  0.00    -0.270 OA
ATOM      5  O   UNL     1      30.295  -3.718 -23.194  0.00  0.00    -0.270 OA
ATOM      6  N   UNL     1      30.836  -5.824 -22.452  0.00  0.00    -0.248 N 
ATOM      7  C   UNL     1      32.740  -7.023 -23.358  0.00  0.00    +0.068 C 
ATOM      8  C   UNL     1      33.014  -5.870 -24.242  0.00  0.00    +0.010 C 
ATOM      9  C   UNL     1      32.176  -4.744 -24.181  0.00  0.00    +0.054 C 
ATOM     10  C   UNL     1      33.474  -8.150 -23.329  0.00  0.00    +0.066 C 
ATOM     11  C   UNL     1      31.582  -6.993 -22.410  0.00  0.00    +0.253 C 
ATOM     12  C   UNL     1      34.085  -5.838 -25.152  0.00  0.00    +0.007 C 
ATOM     13  C   UNL     1      31.028  -4.702 -23.248  0.00  0.00    +0.252 C 
ATOM     14  C   UNL     1      32.403  -3.629 -25.004  0.00  0.00    +0.005 C 
ATOM     15  C   UNL     1      34.310  -4.727 -25.971  0.00  0.00    +0.035 C 
ATOM     16  C   UNL     1      33.470  -3.623 -25.897  0.00  0.00    +0.007 C 
ATOM     17  H   UNL     1      30.068  -5.786 -21.836  0.00  0.00    +0.158 HD
ENDBRANCH   1  10
BRANCH   1  21
ATOM     18  C   UNL     1      33.436 -13.295 -23.623  0.00  0.00    -0.043 C 
ATOM     19  C   UNL     1      34.181 -12.356 -24.337  0.00  0.00    -0.005 C 
ATOM     20  C   UNL     1      32.641 -12.886 -22.553  0.00  0.00    -0.005 C 
ATOM     21  C   UNL     1      33.334 -10.599 -22.911  0.00  0.00    +0.048 C 
ATOM     22  C   UNL     1      34.130 -11.008 -23.981  0.00  0.00    +0.014 C 
ATOM     23  C   UNL     1      32.589 -11.538 -22.197  0.00  0.00    +0.014 C 
BRANCH  18  24
ATOM     24  C   UNL     1      33.491 -14.735 -24.004  0.00  0.00    -0.050 C 
BRANCH  24  25
ATOM     25  N   UNL     1      34.498 -15.470 -23.253  0.00  0.00    +0.390 N 
ATOM     26  C   UNL     1      34.101 -15.699 -21.863  0.00  0.00    -0.077 C 
ATOM     27  C   UNL     1      34.742 -16.803 -23.803  0.00  0.00    -0.077 C 
ATOM     28  C   UNL     1      35.071 -16.778 -21.405  0.00  0.00    -0.025 C 
ATOM     29  C   UNL     1      35.494 -17.502 -22.679  0.00  0.00    -0.025 C 
ATOM     30  H   UNL     1      35.329 -14.882 -23.313  0.00  0.00    -0.079 HD
ENDBRANCH  24  25
ENDBRANCH  18  24
ENDBRANCH   1  21
TORSDOF 4
ENDMDL
