MODEL 1
REMARK VINA RESULT:     -11.9      0.000      0.000
REMARK  Name = 11955716
REMARK  6 active torsions:
REMARK  status: ('A' for Active; 'I' for Inactive)
REMARK    1  A    between atoms: C_4  and  C_25
REMARK    2  A    between atoms: C_11  and  C_12
REMARK    3  A    between atoms: C_13  and  C_18
REMARK    4  A    between atoms: C_15  and  O_21
REMARK    5  A    between atoms: C_16  and  O_23
REMARK    6  A    between atoms: C_25  and  N_26
REMARK                            x       y       z     vdW  Elec       q    Type
REMARK                         _______ _______ _______ _____ _____    ______ ____
ROOT
ATOM      1  O   UNL     1      35.861 -24.083 -15.343  0.00  0.00    -0.269 OA
ATOM      2  N   UNL     1      34.555 -23.081 -16.986  0.00  0.00    -0.231 N 
ATOM      3  C   UNL     1      35.024 -21.804 -18.874  0.00  0.00    +0.016 C 
ATOM      4  C   UNL     1      34.786 -20.459 -20.829  0.00  0.00    -0.043 C 
ATOM      5  C   UNL     1      33.630 -21.883 -18.757  0.00  0.00    +0.016 C 
ATOM      6  C   UNL     1      35.682 -22.563 -17.771  0.00  0.00    +0.072 C 
ATOM      7  C   UNL     1      33.255 -22.705 -17.570  0.00  0.00    +0.072 C 
ATOM      8  C   UNL     1      35.616 -21.097 -19.904  0.00  0.00    -0.005 C 
ATOM      9  C   UNL     1      33.388 -20.538 -20.712  0.00  0.00    -0.006 C 
ATOM     10  C   UNL     1      32.800 -21.255 -19.668  0.00  0.00    +0.001 C 
ATOM     11  C   UNL     1      34.764 -23.783 -15.807  0.00  0.00    +0.259 C 
ENDROOT
BRANCH  11  12
ATOM     12  C   UNL     1      33.574 -24.186 -15.044  0.00  0.00    +0.088 C 
ATOM     13  C   UNL     1      31.173 -24.188 -14.802  0.00  0.00    +0.012 C 
ATOM     14  C   UNL     1      32.315 -23.815 -15.512  0.00  0.00    +0.006 C 
ATOM     15  C   UNL     1      33.697 -24.927 -13.872  0.00  0.00    +0.141 C 
ATOM     16  C   UNL     1      31.293 -24.930 -13.627  0.00  0.00    +0.133 C 
ATOM     17  C   UNL     1      32.555 -25.300 -13.162  0.00  0.00    +0.073 C 
BRANCH  13  18
ATOM     18  C   UNL     1      29.830 -23.784 -15.314  0.00  0.00    +0.025 C 
ATOM     19  C   UNL     1      29.045 -24.969 -15.905  0.00  0.00    +0.005 C 
ATOM     20  C   UNL     1      29.913 -22.644 -16.347  0.00  0.00    +0.005 C 
ENDBRANCH  13  18
BRANCH  15  21
ATOM     21  O   UNL     1      34.922 -25.296 -13.401  0.00  0.00    -0.505 OA
ATOM     22  H   UNL     1      35.056 -25.403 -12.480  0.00  0.00    +0.292 HD
ENDBRANCH  15  21
BRANCH  16  23
ATOM     23  O   UNL     1      30.189 -25.302 -12.922  0.00  0.00    -0.506 OA
ATOM     24  H   UNL     1      29.629 -24.649 -12.549  0.00  0.00    +0.292 HD
ENDBRANCH  16  23
ENDBRANCH  11  12
BRANCH   4  25
ATOM     25  C   UNL     1      35.390 -19.681 -21.957  0.00  0.00    -0.050 C 
BRANCH  25  26
ATOM     26  N   UNL     1      34.780 -18.360 -22.095  0.00  0.00    +0.387 N 
ATOM     27  N   UNL     1      34.898 -15.489 -22.407  0.00  0.00    +0.383 N 
ATOM     28  C   UNL     1      35.167 -17.489 -20.980  0.00  0.00    -0.100 C 
ATOM     29  C   UNL     1      35.150 -17.747 -23.377  0.00  0.00    -0.100 C 
ATOM     30  C   UNL     1      34.531 -16.102 -21.125  0.00  0.00    -0.101 C 
ATOM     31  C   UNL     1      34.511 -16.362 -23.523  0.00  0.00    -0.101 C 
ATOM     32  C   UNL     1      34.286 -14.168 -22.546  0.00  0.00    -0.101 C 
ATOM     33  H   UNL     1      33.767 -18.478 -22.076  0.00  0.00    -0.079 HD
ATOM     34  H   UNL     1      35.911 -15.370 -22.428  0.00  0.00    -0.080 HD
ENDBRANCH  25  26
ENDBRANCH   4  25
TORSDOF 6
ENDMDL
MODEL 2
REMARK VINA RESULT:     -11.8      1.271      1.618
REMARK  Name = 11955716
REMARK  6 active torsions:
REMARK  status: ('A' for Active; 'I' for Inactive)
REMARK    1  A    between atoms: C_4  and  C_25
REMARK    2  A    between atoms: C_11  and  C_12
REMARK    3  A    between atoms: C_13  and  C_18
REMARK    4  A    between atoms: C_15  and  O_21
REMARK    5  A    between atoms: C_16  and  O_23
REMARK    6  A    between atoms: C_25  and  N_26
REMARK                            x       y       z     vdW  Elec       q    Type
REMARK                         _______ _______ _______ _____ _____    ______ ____
ROOT
ATOM      1  O   UNL     1      37.593 -23.117 -15.802  0.00  0.00    -0.269 OA
ATOM      2  N   UNL     1      35.971 -22.509 -17.353  0.00  0.00    -0.231 N 
ATOM      3  C   UNL     1      35.988 -21.230 -19.298  0.00  0.00    +0.016 C 
ATOM      4  C   UNL     1      35.297 -20.053 -21.253  0.00  0.00    -0.043 C 
ATOM      5  C   UNL     1      34.664 -21.626 -19.067  0.00  0.00    +0.016 C 
ATOM      6  C   UNL     1      36.884 -21.774 -18.237  0.00  0.00    +0.072 C 
ATOM      7  C   UNL     1      34.580 -22.467 -17.837  0.00  0.00    +0.072 C 
ATOM      8  C   UNL     1      36.319 -20.445 -20.386  0.00  0.00    -0.005 C 
ATOM      9  C   UNL     1      33.969 -20.449 -21.022  0.00  0.00    -0.006 C 
ATOM     10  C   UNL     1      33.644 -21.243 -19.920  0.00  0.00    +0.001 C 
ATOM     11  C   UNL     1      36.425 -23.097 -16.181  0.00  0.00    +0.259 C 
ENDROOT
BRANCH  11  12
ATOM     12  C   UNL     1      35.422 -23.736 -15.317  0.00  0.00    +0.088 C 
ATOM     13  C   UNL     1      33.106 -24.068 -14.730  0.00  0.00    +0.012 C 
ATOM     14  C   UNL     1      34.073 -23.472 -15.539  0.00  0.00    +0.006 C 
ATOM     15  C   UNL     1      35.810 -24.594 -14.291  0.00  0.00    +0.141 C 
ATOM     16  C   UNL     1      33.491 -24.927 -13.701  0.00  0.00    +0.133 C 
ATOM     17  C   UNL     1      34.843 -25.190 -13.481  0.00  0.00    +0.073 C 
BRANCH  13  18
ATOM     18  C   UNL     1      31.662 -23.776 -14.979  0.00  0.00    +0.025 C 
ATOM     19  C   UNL     1      31.412 -23.210 -16.389  0.00  0.00    +0.005 C 
ATOM     20  C   UNL     1      31.063 -22.831 -13.921  0.00  0.00    +0.005 C 
ENDBRANCH  13  18
BRANCH  15  21
ATOM     21  O   UNL     1      37.126 -24.862 -14.060  0.00  0.00    -0.505 OA
ATOM     22  H   UNL     1      37.457 -25.728 -14.189  0.00  0.00    +0.292 HD
ENDBRANCH  15  21
BRANCH  16  23
ATOM     23  O   UNL     1      32.559 -25.517 -12.901  0.00  0.00    -0.506 OA
ATOM     24  H   UNL     1      32.165 -25.032 -12.203  0.00  0.00    +0.292 HD
ENDBRANCH  16  23
ENDBRANCH  11  12
BRANCH   4  25
ATOM     25  C   UNL     1      35.617 -19.200 -22.442  0.00  0.00    -0.050 C 
BRANCH  25  26
ATOM     26  N   UNL     1      34.868 -17.945 -22.428  0.00  0.00    +0.387 N 
ATOM     27  N   UNL     1      34.673 -15.061 -22.492  0.00  0.00    +0.383 N 
ATOM     28  C   UNL     1      35.238 -17.130 -21.264  0.00  0.00    -0.100 C 
ATOM     29  C   UNL     1      35.088 -17.193 -23.670  0.00  0.00    -0.100 C 
ATOM     30  C   UNL     1      34.455 -15.813 -21.250  0.00  0.00    -0.101 C 
ATOM     31  C   UNL     1      34.304 -15.877 -23.657  0.00  0.00    -0.101 C 
ATOM     32  C   UNL     1      33.922 -13.807 -22.479  0.00  0.00    -0.101 C 
ATOM     33  H   UNL     1      33.876 -18.171 -22.361  0.00  0.00    -0.079 HD
ATOM     34  H   UNL     1      35.665 -14.834 -22.561  0.00  0.00    -0.080 HD
ENDBRANCH  25  26
ENDBRANCH   4  25
TORSDOF 6
ENDMDL
MODEL 3
REMARK VINA RESULT:     -11.5      6.076     11.939
REMARK  Name = 11955716
REMARK  6 active torsions:
REMARK  status: ('A' for Active; 'I' for Inactive)
REMARK    1  A    between atoms: C_4  and  C_25
REMARK    2  A    between atoms: C_11  and  C_12
REMARK    3  A    between atoms: C_13  and  C_18
REMARK    4  A    between atoms: C_15  and  O_21
REMARK    5  A    between atoms: C_16  and  O_23
REMARK    6  A    between atoms: C_25  and  N_26
REMARK                            x       y       z     vdW  Elec       q    Type
REMARK                         _______ _______ _______ _____ _____    ______ ____
ROOT
ATOM      1  O   UNL     1      33.915 -12.306 -25.386  0.00  0.00    -0.269 OA
ATOM      2  N   UNL     1      34.214 -13.550 -23.444  0.00  0.00    -0.231 N 
ATOM      3  C   UNL     1      34.661 -15.793 -23.009  0.00  0.00    +0.016 C 
ATOM      4  C   UNL     1      35.036 -17.862 -21.885  0.00  0.00    -0.043 C 
ATOM      5  C   UNL     1      34.500 -15.150 -21.775  0.00  0.00    +0.016 C 
ATOM      6  C   UNL     1      34.500 -14.818 -24.127  0.00  0.00    +0.072 C 
ATOM      7  C   UNL     1      34.225 -13.697 -21.978  0.00  0.00    +0.072 C 
ATOM      8  C   UNL     1      34.930 -17.147 -23.080  0.00  0.00    -0.005 C 
ATOM      9  C   UNL     1      34.875 -17.218 -20.646  0.00  0.00    -0.006 C 
ATOM     10  C   UNL     1      34.604 -15.849 -20.586  0.00  0.00    +0.001 C 
ATOM     11  C   UNL     1      33.916 -12.400 -24.161  0.00  0.00    +0.259 C 
ENDROOT
BRANCH  11  12
ATOM     12  C   UNL     1      33.558 -11.201 -23.390  0.00  0.00    +0.088 C 
ATOM     13  C   UNL     1      32.248 -10.180 -21.640  0.00  0.00    +0.012 C 
ATOM     14  C   UNL     1      32.602 -11.306 -22.383  0.00  0.00    +0.006 C 
ATOM     15  C   UNL     1      34.162  -9.976 -23.659  0.00  0.00    +0.141 C 
ATOM     16  C   UNL     1      32.853  -8.951 -21.907  0.00  0.00    +0.133 C 
ATOM     17  C   UNL     1      33.809  -8.849 -22.917  0.00  0.00    +0.073 C 
BRANCH  13  18
ATOM     18  C   UNL     1      31.222 -10.307 -20.562  0.00  0.00    +0.025 C 
ATOM     19  C   UNL     1      31.821 -10.126 -19.156  0.00  0.00    +0.005 C 
ATOM     20  C   UNL     1      30.454 -11.639 -20.638  0.00  0.00    +0.005 C 
ENDBRANCH  13  18
BRANCH  15  21
ATOM     21  O   UNL     1      35.099  -9.856 -24.643  0.00  0.00    -0.505 OA
ATOM     22  H   UNL     1      34.985  -9.221 -25.322  0.00  0.00    +0.292 HD
ENDBRANCH  15  21
BRANCH  16  23
ATOM     23  O   UNL     1      32.518  -7.841 -21.192  0.00  0.00    -0.506 OA
ATOM     24  H   UNL     1      31.694  -7.799 -20.749  0.00  0.00    +0.292 HD
ENDBRANCH  16  23
ENDBRANCH  11  12
BRANCH   4  25
ATOM     25  C   UNL     1      35.324 -19.331 -21.921  0.00  0.00    -0.050 C 
BRANCH  25  26
ATOM     26  N   UNL     1      34.955 -19.989 -20.670  0.00  0.00    +0.387 N 
ATOM     27  N   UNL     1      34.152 -22.284 -19.106  0.00  0.00    +0.383 N 
ATOM     28  C   UNL     1      33.589 -20.521 -20.744  0.00  0.00    -0.100 C 
ATOM     29  C   UNL     1      35.904 -21.061 -20.345  0.00  0.00    -0.100 C 
ATOM     30  C   UNL     1      33.202 -21.214 -19.433  0.00  0.00    -0.101 C 
ATOM     31  C   UNL     1      35.519 -21.752 -19.033  0.00  0.00    -0.101 C 
ATOM     32  C   UNL     1      33.784 -22.941 -17.853  0.00  0.00    -0.101 C 
ATOM     33  H   UNL     1      34.990 -19.293 -19.926  0.00  0.00    -0.079 HD
ATOM     34  H   UNL     1      34.118 -22.982 -19.849  0.00  0.00    -0.080 HD
ENDBRANCH  25  26
ENDBRANCH   4  25
TORSDOF 6
ENDMDL
MODEL 4
REMARK VINA RESULT:     -11.4      4.099      9.835
REMARK  Name = 11955716
REMARK  6 active torsions:
REMARK  status: ('A' for Active; 'I' for Inactive)
REMARK    1  A    between atoms: C_4  and  C_25
REMARK    2  A    between atoms: C_11  and  C_12
REMARK    3  A    between atoms: C_13  and  C_18
REMARK    4  A    between atoms: C_15  and  O_21
REMARK    5  A    between atoms: C_16  and  O_23
REMARK    6  A    between atoms: C_25  and  N_26
REMARK                            x       y       z     vdW  Elec       q    Type
REMARK                         _______ _______ _______ _____ _____    ______ ____
ROOT
ATOM      1  O   UNL     1      37.640 -19.170 -21.644  0.00  0.00    -0.269 OA
ATOM      2  N   UNL     1      35.676 -20.009 -20.724  0.00  0.00    -0.231 N 
ATOM      3  C   UNL     1      35.202 -21.571 -19.064  0.00  0.00    +0.016 C 
ATOM      4  C   UNL     1      34.043 -23.035 -17.581  0.00  0.00    -0.043 C 
ATOM      5  C   UNL     1      33.980 -21.145 -19.600  0.00  0.00    +0.016 C 
ATOM      6  C   UNL     1      36.336 -20.870 -19.735  0.00  0.00    +0.072 C 
ATOM      7  C   UNL     1      34.208 -20.124 -20.666  0.00  0.00    +0.072 C 
ATOM      8  C   UNL     1      35.249 -22.514 -18.054  0.00  0.00    -0.005 C 
ATOM      9  C   UNL     1      32.817 -22.608 -18.118  0.00  0.00    -0.006 C 
ATOM     10  C   UNL     1      32.780 -21.654 -19.138  0.00  0.00    +0.001 C 
ATOM     11  C   UNL     1      36.414 -19.247 -21.619  0.00  0.00    +0.259 C 
ENDROOT
BRANCH  11  12
ATOM     12  C   UNL     1      35.667 -18.484 -22.628  0.00  0.00    +0.088 C 
ATOM     13  C   UNL     1      34.775 -16.374 -23.385  0.00  0.00    +0.012 C 
ATOM     14  C   UNL     1      35.482 -17.116 -22.440  0.00  0.00    +0.006 C 
ATOM     15  C   UNL     1      35.148 -19.113 -23.756  0.00  0.00    +0.141 C 
ATOM     16  C   UNL     1      34.255 -17.001 -24.517  0.00  0.00    +0.133 C 
ATOM     17  C   UNL     1      34.441 -18.371 -24.703  0.00  0.00    +0.073 C 
BRANCH  13  18
ATOM     18  C   UNL     1      34.585 -14.908 -23.171  0.00  0.00    +0.025 C 
ATOM     19  C   UNL     1      34.635 -14.520 -21.683  0.00  0.00    +0.005 C 
ATOM     20  C   UNL     1      33.284 -14.385 -23.807  0.00  0.00    +0.005 C 
ENDBRANCH  13  18
BRANCH  15  21
ATOM     21  O   UNL     1      35.318 -20.451 -23.954  0.00  0.00    -0.505 OA
ATOM     22  H   UNL     1      34.815 -21.066 -23.458  0.00  0.00    +0.292 HD
ENDBRANCH  15  21
BRANCH  16  23
ATOM     23  O   UNL     1      33.561 -16.291 -25.450  0.00  0.00    -0.506 OA
ATOM     24  H   UNL     1      33.834 -16.302 -26.346  0.00  0.00    +0.292 HD
ENDBRANCH  16  23
ENDBRANCH  11  12
BRANCH   4  25
ATOM     25  C   UNL     1      34.054 -24.060 -16.489  0.00  0.00    -0.050 C 
BRANCH  25  26
ATOM     26  N   UNL     1      35.355 -24.137 -15.828  0.00  0.00    +0.387 N 
ATOM     27  N   UNL     1      37.054 -24.574 -13.531  0.00  0.00    +0.383 N 
ATOM     28  C   UNL     1      35.451 -23.144 -14.751  0.00  0.00    -0.100 C 
ATOM     29  C   UNL     1      35.593 -25.486 -15.302  0.00  0.00    -0.100 C 
ATOM     30  C   UNL     1      36.813 -23.225 -14.055  0.00  0.00    -0.101 C 
ATOM     31  C   UNL     1      36.957 -25.568 -14.608  0.00  0.00    -0.101 C 
ATOM     32  C   UNL     1      38.356 -24.651 -12.871  0.00  0.00    -0.101 C 
ATOM     33  H   UNL     1      36.073 -23.931 -16.521  0.00  0.00    -0.079 HD
ATOM     34  H   UNL     1      36.336 -24.782 -12.836  0.00  0.00    -0.080 HD
ENDBRANCH  25  26
ENDBRANCH   4  25
TORSDOF 6
ENDMDL
MODEL 5
REMARK VINA RESULT:     -11.1      4.197      8.184
REMARK  Name = 11955716
REMARK  6 active torsions:
REMARK  status: ('A' for Active; 'I' for Inactive)
REMARK    1  A    between atoms: C_4  and  C_25
REMARK    2  A    between atoms: C_11  and  C_12
REMARK    3  A    between atoms: C_13  and  C_18
REMARK    4  A    between atoms: C_15  and  O_21
REMARK    5  A    between atoms: C_16  and  O_23
REMARK    6  A    between atoms: C_25  and  N_26
REMARK                            x       y       z     vdW  Elec       q    Type
REMARK                         _______ _______ _______ _____ _____    ______ ____
ROOT
ATOM      1  O   UNL     1      35.460 -19.265 -23.963  0.00  0.00    -0.269 OA
ATOM      2  N   UNL     1      34.921 -17.382 -22.711  0.00  0.00    -0.231 N 
ATOM      3  C   UNL     1      34.293 -15.205 -23.245  0.00  0.00    +0.016 C 
ATOM      4  C   UNL     1      33.691 -12.904 -23.076  0.00  0.00    -0.043 C 
ATOM      5  C   UNL     1      34.394 -15.282 -21.850  0.00  0.00    +0.016 C 
ATOM      6  C   UNL     1      34.609 -16.526 -23.862  0.00  0.00    +0.072 C 
ATOM      7  C   UNL     1      34.779 -16.662 -21.432  0.00  0.00    +0.072 C 
ATOM      8  C   UNL     1      33.943 -14.024 -23.872  0.00  0.00    -0.005 C 
ATOM      9  C   UNL     1      33.792 -12.980 -21.677  0.00  0.00    -0.006 C 
ATOM     10  C   UNL     1      34.146 -14.179 -21.053  0.00  0.00    +0.001 C 
ATOM     11  C   UNL     1      35.352 -18.689 -22.883  0.00  0.00    +0.259 C 
ENDROOT
BRANCH  11  12
ATOM     12  C   UNL     1      35.723 -19.441 -21.676  0.00  0.00    +0.088 C 
ATOM     13  C   UNL     1      35.075 -20.888 -19.858  0.00  0.00    +0.012 C 
ATOM     14  C   UNL     1      34.743 -20.169 -21.006  0.00  0.00    +0.006 C 
ATOM     15  C   UNL     1      37.033 -19.427 -21.204  0.00  0.00    +0.141 C 
ATOM     16  C   UNL     1      36.387 -20.876 -19.383  0.00  0.00    +0.133 C 
ATOM     17  C   UNL     1      37.366 -20.145 -20.055  0.00  0.00    +0.073 C 
BRANCH  13  18
ATOM     18  C   UNL     1      34.015 -21.666 -19.150  0.00  0.00    +0.025 C 
ATOM     19  C   UNL     1      34.143 -23.182 -19.384  0.00  0.00    +0.005 C 
ATOM     20  C   UNL     1      32.596 -21.196 -19.521  0.00  0.00    +0.005 C 
ENDBRANCH  13  18
BRANCH  15  21
ATOM     21  O   UNL     1      38.004 -18.717 -21.846  0.00  0.00    -0.505 OA
ATOM     22  H   UNL     1      37.853 -18.398 -22.714  0.00  0.00    +0.292 HD
ENDBRANCH  15  21
BRANCH  16  23
ATOM     23  O   UNL     1      36.728 -21.572 -18.262  0.00  0.00    -0.506 OA
ATOM     24  H   UNL     1      37.495 -21.337 -17.779  0.00  0.00    +0.292 HD
ENDBRANCH  16  23
ENDBRANCH  11  12
BRANCH   4  25
ATOM     25  C   UNL     1      33.312 -11.606 -23.720  0.00  0.00    -0.050 C 
BRANCH  25  26
ATOM     26  N   UNL     1      33.253 -10.514 -22.750  0.00  0.00    +0.387 N 
ATOM     27  N   UNL     1      32.396  -7.899 -21.864  0.00  0.00    +0.383 N 
ATOM     28  C   UNL     1      33.841  -9.291 -23.308  0.00  0.00    -0.100 C 
ATOM     29  C   UNL     1      31.870 -10.269 -22.324  0.00  0.00    -0.100 C 
ATOM     30  C   UNL     1      33.778  -8.144 -22.293  0.00  0.00    -0.101 C 
ATOM     31  C   UNL     1      31.807  -9.124 -21.307  0.00  0.00    -0.101 C 
ATOM     32  C   UNL     1      32.338  -6.809 -20.893  0.00  0.00    -0.101 C 
ATOM     33  H   UNL     1      33.797 -10.790 -21.933  0.00  0.00    -0.079 HD
ATOM     34  H   UNL     1      31.850  -7.624 -22.681  0.00  0.00    -0.080 HD
ENDBRANCH  25  26
ENDBRANCH   4  25
TORSDOF 6
ENDMDL
MODEL 6
REMARK VINA RESULT:     -10.8      3.822      9.982
REMARK  Name = 11955716
REMARK  6 active torsions:
REMARK  status: ('A' for Active; 'I' for Inactive)
REMARK    1  A    between atoms: C_4  and  C_25
REMARK    2  A    between atoms: C_11  and  C_12
REMARK    3  A    between atoms: C_13  and  C_18
REMARK    4  A    between atoms: C_15  and  O_21
REMARK    5  A    between atoms: C_16  and  O_23
REMARK    6  A    between atoms: C_25  and  N_26
REMARK                            x       y       z     vdW  Elec       q    Type
REMARK                         _______ _______ _______ _____ _____    ______ ____
ROOT
ATOM      1  O   UNL     1      37.568 -18.881 -22.039  0.00  0.00    -0.269 OA
ATOM      2  N   UNL     1      35.654 -19.735 -21.031  0.00  0.00    -0.231 N 
ATOM      3  C   UNL     1      35.262 -21.353 -19.405  0.00  0.00    +0.016 C 
ATOM      4  C   UNL     1      34.178 -22.860 -17.909  0.00  0.00    -0.043 C 
ATOM      5  C   UNL     1      34.015 -20.895 -19.849  0.00  0.00    +0.016 C 
ATOM      6  C   UNL     1      36.362 -20.640 -20.118  0.00  0.00    +0.072 C 
ATOM      7  C   UNL     1      34.190 -19.837 -20.888  0.00  0.00    +0.072 C 
ATOM      8  C   UNL     1      35.359 -22.334 -18.436  0.00  0.00    -0.005 C 
ATOM      9  C   UNL     1      32.927 -22.401 -18.354  0.00  0.00    -0.006 C 
ATOM     10  C   UNL     1      32.840 -21.409 -19.333  0.00  0.00    +0.001 C 
ATOM     11  C   UNL     1      36.345 -18.947 -21.941  0.00  0.00    +0.259 C 
ENDROOT
BRANCH  11  12
ATOM     12  C   UNL     1      35.547 -18.138 -22.873  0.00  0.00    +0.088 C 
ATOM     13  C   UNL     1      34.612 -15.998 -23.479  0.00  0.00    +0.012 C 
ATOM     14  C   UNL     1      35.367 -16.783 -22.607  0.00  0.00    +0.006 C 
ATOM     15  C   UNL     1      34.977 -18.713 -24.006  0.00  0.00    +0.141 C 
ATOM     16  C   UNL     1      34.040 -16.571 -24.615  0.00  0.00    +0.133 C 
ATOM     17  C   UNL     1      34.222 -17.928 -24.879  0.00  0.00    +0.073 C 
BRANCH  13  18
ATOM     18  C   UNL     1      34.427 -14.546 -23.182  0.00  0.00    +0.025 C 
ATOM     19  C   UNL     1      34.588 -14.228 -21.685  0.00  0.00    +0.005 C 
ATOM     20  C   UNL     1      33.076 -14.010 -23.690  0.00  0.00    +0.005 C 
ENDBRANCH  13  18
BRANCH  15  21
ATOM     21  O   UNL     1      35.143 -20.038 -24.280  0.00  0.00    -0.505 OA
ATOM     22  H   UNL     1      34.832 -20.683 -23.676  0.00  0.00    +0.292 HD
ENDBRANCH  15  21
BRANCH  16  23
ATOM     23  O   UNL     1      33.300 -15.819 -25.477  0.00  0.00    -0.506 OA
ATOM     24  H   UNL     1      33.681 -15.072 -25.893  0.00  0.00    +0.292 HD
ENDBRANCH  16  23
ENDBRANCH  11  12
BRANCH   4  25
ATOM     25  C   UNL     1      34.242 -23.926 -16.859  0.00  0.00    -0.050 C 
BRANCH  25  26
ATOM     26  N   UNL     1      33.341 -23.647 -15.743  0.00  0.00    +0.387 N 
ATOM     27  N   UNL     1      31.455 -24.431 -13.698  0.00  0.00    +0.383 N 
ATOM     28  C   UNL     1      31.963 -24.022 -16.082  0.00  0.00    -0.100 C 
ATOM     29  C   UNL     1      33.779 -24.349 -14.531  0.00  0.00    -0.100 C 
ATOM     30  C   UNL     1      31.016 -23.732 -14.911  0.00  0.00    -0.101 C 
ATOM     31  C   UNL     1      32.834 -24.057 -13.360  0.00  0.00    -0.101 C 
ATOM     32  C   UNL     1      30.554 -24.150 -12.582  0.00  0.00    -0.101 C 
ATOM     33  H   UNL     1      33.367 -22.644 -15.561  0.00  0.00    -0.079 HD
ATOM     34  H   UNL     1      31.429 -25.435 -13.879  0.00  0.00    -0.080 HD
ENDBRANCH  25  26
ENDBRANCH   4  25
TORSDOF 6
ENDMDL
MODEL 7
REMARK VINA RESULT:      -9.9      5.862     12.233
REMARK  Name = 11955716
REMARK  6 active torsions:
REMARK  status: ('A' for Active; 'I' for Inactive)
REMARK    1  A    between atoms: C_4  and  C_25
REMARK    2  A    between atoms: C_11  and  C_12
REMARK    3  A    between atoms: C_13  and  C_18
REMARK    4  A    between atoms: C_15  and  O_21
REMARK    5  A    between atoms: C_16  and  O_23
REMARK    6  A    between atoms: C_25  and  N_26
REMARK                            x       y       z     vdW  Elec       q    Type
REMARK                         _______ _______ _______ _____ _____    ______ ____
ROOT
ATOM      1  O   UNL     1      33.801 -12.493 -25.236  0.00  0.00    -0.269 OA
ATOM      2  N   UNL     1      34.077 -13.703 -23.269  0.00  0.00    -0.231 N 
ATOM      3  C   UNL     1      34.753 -15.877 -22.785  0.00  0.00    +0.016 C 
ATOM      4  C   UNL     1      35.277 -17.892 -21.622  0.00  0.00    -0.043 C 
ATOM      5  C   UNL     1      34.406 -15.266 -21.573  0.00  0.00    +0.016 C 
ATOM      6  C   UNL     1      34.574 -14.922 -23.918  0.00  0.00    +0.072 C 
ATOM      7  C   UNL     1      33.976 -13.856 -21.806  0.00  0.00    +0.072 C 
ATOM      8  C   UNL     1      35.190 -17.188 -22.825  0.00  0.00    -0.005 C 
ATOM      9  C   UNL     1      34.929 -17.279 -20.406  0.00  0.00    -0.006 C 
ATOM     10  C   UNL     1      34.490 -15.954 -20.376  0.00  0.00    +0.001 C 
ATOM     11  C   UNL     1      33.705 -12.593 -24.015  0.00  0.00    +0.259 C 
ENDROOT
BRANCH  11  12
ATOM     12  C   UNL     1      33.137 -11.452 -23.285  0.00  0.00    +0.088 C 
ATOM     13  C   UNL     1      33.182  -9.095 -22.768  0.00  0.00    +0.012 C 
ATOM     14  C   UNL     1      33.706 -10.192 -23.453  0.00  0.00    +0.006 C 
ATOM     15  C   UNL     1      32.047 -11.621 -22.435  0.00  0.00    +0.141 C 
ATOM     16  C   UNL     1      32.090  -9.262 -21.917  0.00  0.00    +0.133 C 
ATOM     17  C   UNL     1      31.522 -10.525 -21.750  0.00  0.00    +0.073 C 
BRANCH  13  18
ATOM     18  C   UNL     1      33.802  -7.750 -22.959  0.00  0.00    +0.025 C 
ATOM     19  C   UNL     1      34.155  -7.071 -21.623  0.00  0.00    +0.005 C 
ATOM     20  C   UNL     1      32.922  -6.813 -23.807  0.00  0.00    +0.005 C 
ENDBRANCH  13  18
BRANCH  15  21
ATOM     21  O   UNL     1      31.479 -12.848 -22.258  0.00  0.00    -0.505 OA
ATOM     22  H   UNL     1      31.069 -13.282 -22.979  0.00  0.00    +0.292 HD
ENDBRANCH  15  21
BRANCH  16  23
ATOM     23  O   UNL     1      31.566  -8.202 -21.240  0.00  0.00    -0.506 OA
ATOM     24  H   UNL     1      31.047  -8.345 -20.473  0.00  0.00    +0.292 HD
ENDBRANCH  16  23
ENDBRANCH  11  12
BRANCH   4  25
ATOM     25  C   UNL     1      35.743 -19.315 -21.625  0.00  0.00    -0.050 C 
BRANCH  25  26
ATOM     26  N   UNL     1      35.254 -20.051 -20.461  0.00  0.00    +0.387 N 
ATOM     27  N   UNL     1      34.286 -22.433 -19.141  0.00  0.00    +0.383 N 
ATOM     28  C   UNL     1      33.895 -20.553 -20.697  0.00  0.00    -0.100 C 
ATOM     29  C   UNL     1      36.158 -21.158 -20.127  0.00  0.00    -0.100 C 
ATOM     30  C   UNL     1      33.382 -21.328 -19.478  0.00  0.00    -0.101 C 
ATOM     31  C   UNL     1      35.646 -21.931 -18.907  0.00  0.00    -0.101 C 
ATOM     32  C   UNL     1      33.798 -23.168 -17.976  0.00  0.00    -0.101 C 
ATOM     33  H   UNL     1      35.228 -19.408 -19.671  0.00  0.00    -0.079 HD
ATOM     34  H   UNL     1      34.314 -23.078 -19.932  0.00  0.00    -0.080 HD
ENDBRANCH  25  26
ENDBRANCH   4  25
TORSDOF 6
ENDMDL
MODEL 8
REMARK VINA RESULT:      -9.7      5.721     11.789
REMARK  Name = 11955716
REMARK  6 active torsions:
REMARK  status: ('A' for Active; 'I' for Inactive)
REMARK    1  A    between atoms: C_4  and  C_25
REMARK    2  A    between atoms: C_11  and  C_12
REMARK    3  A    between atoms: C_13  and  C_18
REMARK    4  A    between atoms: C_15  and  O_21
REMARK    5  A    between atoms: C_16  and  O_23
REMARK    6  A    between atoms: C_25  and  N_26
REMARK                            x       y       z     vdW  Elec       q    Type
REMARK                         _______ _______ _______ _____ _____    ______ ____
ROOT
ATOM      1  O   UNL     1      31.992 -12.658 -19.144  0.00  0.00    -0.269 OA
ATOM      2  N   UNL     1      32.955 -13.790 -20.931  0.00  0.00    -0.231 N 
ATOM      3  C   UNL     1      34.120 -15.794 -21.142  0.00  0.00    +0.016 C 
ATOM      4  C   UNL     1      35.374 -17.615 -22.037  0.00  0.00    -0.043 C 
ATOM      5  C   UNL     1      34.095 -15.189 -22.405  0.00  0.00    +0.016 C 
ATOM      6  C   UNL     1      33.394 -14.951 -20.148  0.00  0.00    +0.072 C 
ATOM      7  C   UNL     1      33.346 -13.899 -22.349  0.00  0.00    +0.072 C 
ATOM      8  C   UNL     1      34.755 -17.006 -20.943  0.00  0.00    -0.005 C 
ATOM      9  C   UNL     1      35.349 -17.008 -23.305  0.00  0.00    -0.006 C 
ATOM     10  C   UNL     1      34.705 -15.784 -23.495  0.00  0.00    +0.001 C 
ATOM     11  C   UNL     1      32.307 -12.721 -20.329  0.00  0.00    +0.259 C 
ENDROOT
BRANCH  11  12
ATOM     12  C   UNL     1      31.983 -11.566 -21.179  0.00  0.00    +0.088 C 
ATOM     13  C   UNL     1      32.722  -9.834 -22.686  0.00  0.00    +0.012 C 
ATOM     14  C   UNL     1      33.008 -10.932 -21.876  0.00  0.00    +0.006 C 
ATOM     15  C   UNL     1      30.672 -11.108 -21.287  0.00  0.00    +0.141 C 
ATOM     16  C   UNL     1      31.409  -9.373 -22.798  0.00  0.00    +0.133 C 
ATOM     17  C   UNL     1      30.385 -10.010 -22.098  0.00  0.00    +0.073 C 
BRANCH  13  18
ATOM     18  C   UNL     1      33.831  -9.163 -23.429  0.00  0.00    +0.025 C 
ATOM     19  C   UNL     1      34.952 -10.142 -23.818  0.00  0.00    +0.005 C 
ATOM     20  C   UNL     1      34.421  -7.972 -22.652  0.00  0.00    +0.005 C 
ENDBRANCH  13  18
BRANCH  15  21
ATOM     21  O   UNL     1      29.657 -11.717 -20.610  0.00  0.00    -0.505 OA
ATOM     22  H   UNL     1      28.983 -11.201 -20.216  0.00  0.00    +0.292 HD
ENDBRANCH  15  21
BRANCH  16  23
ATOM     23  O   UNL     1      31.112  -8.301 -23.584  0.00  0.00    -0.506 OA
ATOM     24  H   UNL     1      31.800  -7.812 -23.990  0.00  0.00    +0.292 HD
ENDBRANCH  16  23
ENDBRANCH  11  12
BRANCH   4  25
ATOM     25  C   UNL     1      36.073 -18.927 -21.860  0.00  0.00    -0.050 C 
BRANCH  25  26
ATOM     26  N   UNL     1      35.557 -19.668 -20.711  0.00  0.00    +0.387 N 
ATOM     27  N   UNL     1      34.643 -22.076 -19.399  0.00  0.00    +0.383 N 
ATOM     28  C   UNL     1      34.243 -20.248 -21.014  0.00  0.00    -0.100 C 
ATOM     29  C   UNL     1      36.499 -20.717 -20.303  0.00  0.00    -0.100 C 
ATOM     30  C   UNL     1      33.702 -21.028 -19.811  0.00  0.00    -0.101 C 
ATOM     31  C   UNL     1      35.959 -21.496 -19.098  0.00  0.00    -0.101 C 
ATOM     32  C   UNL     1      34.128 -22.816 -18.249  0.00  0.00    -0.101 C 
ATOM     33  H   UNL     1      35.450 -19.013 -19.937  0.00  0.00    -0.079 HD
ATOM     34  H   UNL     1      34.752 -22.733 -20.173  0.00  0.00    -0.080 HD
ENDBRANCH  25  26
ENDBRANCH   4  25
TORSDOF 6
ENDMDL
MODEL 9
REMARK VINA RESULT:      -9.7      9.318     13.713
REMARK  Name = 11955716
REMARK  6 active torsions:
REMARK  status: ('A' for Active; 'I' for Inactive)
REMARK    1  A    between atoms: C_4  and  C_25
REMARK    2  A    between atoms: C_11  and  C_12
REMARK    3  A    between atoms: C_13  and  C_18
REMARK    4  A    between atoms: C_15  and  O_21
REMARK    5  A    between atoms: C_16  and  O_23
REMARK    6  A    between atoms: C_25  and  N_26
REMARK                            x       y       z     vdW  Elec       q    Type
REMARK                         _______ _______ _______ _____ _____    ______ ____
ROOT
ATOM      1  O   UNL     1      31.309 -13.026 -20.893  0.00  0.00    -0.269 OA
ATOM      2  N   UNL     1      32.452 -11.290 -21.934  0.00  0.00    -0.231 N 
ATOM      3  C   UNL     1      32.161  -8.982 -22.026  0.00  0.00    +0.016 C 
ATOM      4  C   UNL     1      32.416  -6.676 -22.578  0.00  0.00    -0.043 C 
ATOM      5  C   UNL     1      33.249  -9.301 -22.850  0.00  0.00    +0.016 C 
ATOM      6  C   UNL     1      31.608 -10.217 -21.396  0.00  0.00    +0.072 C 
ATOM      7  C   UNL     1      33.504 -10.771 -22.827  0.00  0.00    +0.072 C 
ATOM      8  C   UNL     1      31.735  -7.676 -21.879  0.00  0.00    -0.005 C 
ATOM      9  C   UNL     1      33.507  -6.995 -23.405  0.00  0.00    -0.006 C 
ATOM     10  C   UNL     1      33.930  -8.319 -23.545  0.00  0.00    +0.001 C 
ATOM     11  C   UNL     1      32.194 -12.622 -21.643  0.00  0.00    +0.259 C 
ENDROOT
BRANCH  11  12
ATOM     12  C   UNL     1      33.040 -13.630 -22.297  0.00  0.00    +0.088 C 
ATOM     13  C   UNL     1      33.755 -14.735 -24.319  0.00  0.00    +0.012 C 
ATOM     14  C   UNL     1      32.961 -13.783 -23.679  0.00  0.00    +0.006 C 
ATOM     15  C   UNL     1      33.907 -14.423 -21.551  0.00  0.00    +0.141 C 
ATOM     16  C   UNL     1      34.626 -15.531 -23.574  0.00  0.00    +0.133 C 
ATOM     17  C   UNL     1      34.702 -15.376 -22.190  0.00  0.00    +0.073 C 
BRANCH  13  18
ATOM     18  C   UNL     1      33.662 -14.889 -25.801  0.00  0.00    +0.025 C 
ATOM     19  C   UNL     1      33.218 -13.591 -26.499  0.00  0.00    +0.005 C 
ATOM     20  C   UNL     1      32.738 -16.049 -26.215  0.00  0.00    +0.005 C 
ENDBRANCH  13  18
BRANCH  15  21
ATOM     21  O   UNL     1      33.994 -14.287 -20.197  0.00  0.00    -0.505 OA
ATOM     22  H   UNL     1      33.798 -13.464 -19.796  0.00  0.00    +0.292 HD
ENDBRANCH  15  21
BRANCH  16  23
ATOM     23  O   UNL     1      35.408 -16.466 -24.183  0.00  0.00    -0.506 OA
ATOM     24  H   UNL     1      36.063 -16.921 -23.692  0.00  0.00    +0.292 HD
ENDBRANCH  16  23
ENDBRANCH  11  12
BRANCH   4  25
ATOM     25  C   UNL     1      31.981  -5.250 -22.446  0.00  0.00    -0.050 C 
BRANCH  25  26
ATOM     26  N   UNL     1      31.550  -4.692 -23.727  0.00  0.00    +0.387 N 
ATOM     27  N   UNL     1      31.448  -2.603 -25.722  0.00  0.00    +0.383 N 
ATOM     28  C   UNL     1      30.744  -3.482 -23.522  0.00  0.00    -0.100 C 
ATOM     29  C   UNL     1      32.705  -4.399 -24.583  0.00  0.00    -0.100 C 
ATOM     30  C   UNL     1      30.294  -2.894 -24.864  0.00  0.00    -0.101 C 
ATOM     31  C   UNL     1      32.255  -3.813 -25.926  0.00  0.00    -0.101 C 
ATOM     32  C   UNL     1      31.016  -2.047 -27.003  0.00  0.00    -0.101 C 
ATOM     33  H   UNL     1      30.972  -5.389 -24.195  0.00  0.00    -0.079 HD
ATOM     34  H   UNL     1      32.028  -1.905 -25.255  0.00  0.00    -0.080 HD
ENDBRANCH  25  26
ENDBRANCH   4  25
TORSDOF 6
ENDMDL
