MODEL 1
REMARK VINA RESULT:     -11.2      0.000      0.000
REMARK  Name = 456199
REMARK  5 active torsions:
REMARK  status: ('A' for Active; 'I' for Inactive)
REMARK    1  A    between atoms: O_1  and  C_5
REMARK    2  A    between atoms: O_1  and  C_14
REMARK    3  A    between atoms: C_14  and  C_15
REMARK    4  A    between atoms: C_20  and  O_21
REMARK    5  A    between atoms: O_21  and  C_25
REMARK                            x       y       z     vdW  Elec       q    Type
REMARK                         _______ _______ _______ _____ _____    ______ ____
ROOT
ATOM      1  O   UNL     1      33.010 -22.772 -17.184  0.00  0.00    -0.346 OA
ENDROOT
BRANCH   1   5
ATOM      2  O   UNL     1      32.258 -24.050 -13.809  0.00  0.00    -0.438 OA
ATOM      3  N   UNL     1      34.603 -23.677 -14.021  0.00  0.00    -0.242 N 
ATOM      4  N   UNL     1      33.818 -24.491 -12.114  0.00  0.00    -0.333 NA
ATOM      5  C   UNL     1      33.226 -23.558 -16.022  0.00  0.00    +0.179 C 
ATOM      6  C   UNL     1      34.563 -23.197 -15.383  0.00  0.00    +0.130 C 
ATOM      7  C   UNL     1      32.094 -23.309 -15.024  0.00  0.00    +0.241 C 
ATOM      8  C   UNL     1      33.496 -24.063 -13.314  0.00  0.00    +0.345 C 
ATOM      9  C   UNL     1      35.695 -23.847 -13.227  0.00  0.00    +0.181 C 
ATOM     10  C   UNL     1      35.185 -24.351 -12.050  0.00  0.00    +0.274 C 
ATOM     11  O   UNL     1      37.125 -24.563 -10.829  0.00  0.00    -0.124 OA
ATOM     12  O   UNL     1      35.226 -25.151  -9.893  0.00  0.00    -0.124 OA
ATOM     13  N   UNL     1      35.872 -24.701 -10.881  0.00  0.00    +0.085 N 
ENDBRANCH   1   5
BRANCH   1  14
ATOM     14  C   UNL     1      33.888 -23.149 -18.234  0.00  0.00    +0.169 C 
BRANCH  14  15
ATOM     15  C   UNL     1      34.166 -21.951 -19.093  0.00  0.00    +0.007 C 
ATOM     16  C   UNL     1      35.479 -21.564 -19.331  0.00  0.00    +0.001 C 
ATOM     17  C   UNL     1      33.106 -21.240 -19.644  0.00  0.00    +0.001 C 
ATOM     18  C   UNL     1      35.737 -20.450 -20.130  0.00  0.00    +0.037 C 
ATOM     19  C   UNL     1      33.363 -20.126 -20.444  0.00  0.00    +0.037 C 
ATOM     20  C   UNL     1      34.678 -19.731 -20.687  0.00  0.00    +0.147 C 
BRANCH  20  21
ATOM     21  O   UNL     1      34.931 -18.644 -21.467  0.00  0.00    -0.404 OA
BRANCH  21  25
ATOM     22  F   UNL     1      36.842 -18.817 -22.710  0.00  0.00    -0.133 F 
ATOM     23  F   UNL     1      35.075 -17.872 -23.583  0.00  0.00    -0.133 F 
ATOM     24  F   UNL     1      35.087 -20.036 -23.275  0.00  0.00    -0.133 F 
ATOM     25  C   UNL     1      35.494 -18.857 -22.756  0.00  0.00    +0.575 C 
ENDBRANCH  21  25
ENDBRANCH  20  21
ENDBRANCH  14  15
ENDBRANCH   1  14
TORSDOF 5
ENDMDL
MODEL 2
REMARK VINA RESULT:     -11.1      1.521      2.027
REMARK  Name = 456199
REMARK  5 active torsions:
REMARK  status: ('A' for Active; 'I' for Inactive)
REMARK    1  A    between atoms: O_1  and  C_5
REMARK    2  A    between atoms: O_1  and  C_14
REMARK    3  A    between atoms: C_14  and  C_15
REMARK    4  A    between atoms: C_20  and  O_21
REMARK    5  A    between atoms: O_21  and  C_25
REMARK                            x       y       z     vdW  Elec       q    Type
REMARK                         _______ _______ _______ _____ _____    ______ ____
ROOT
ATOM      1  O   UNL     1      34.582 -23.351 -17.226  0.00  0.00    -0.346 OA
ENDROOT
BRANCH   1   5
ATOM      2  O   UNL     1      36.676 -22.386 -14.350  0.00  0.00    -0.438 OA
ATOM      3  N   UNL     1      35.082 -24.020 -13.667  0.00  0.00    -0.242 N 
ATOM      4  N   UNL     1      36.477 -23.192 -12.157  0.00  0.00    -0.333 NA
ATOM      5  C   UNL     1      34.843 -23.019 -15.871  0.00  0.00    +0.179 C 
ATOM      6  C   UNL     1      34.458 -24.181 -14.960  0.00  0.00    +0.130 C 
ATOM      7  C   UNL     1      36.330 -22.705 -15.703  0.00  0.00    +0.241 C 
ATOM      8  C   UNL     1      36.127 -23.170 -13.423  0.00  0.00    +0.345 C 
ATOM      9  C   UNL     1      34.754 -24.638 -12.500  0.00  0.00    +0.181 C 
ATOM     10  C   UNL     1      35.632 -24.111 -11.578  0.00  0.00    +0.274 C 
ATOM     11  O   UNL     1      34.969 -25.252  -9.692  0.00  0.00    -0.124 OA
ATOM     12  O   UNL     1      36.620 -23.811  -9.521  0.00  0.00    -0.124 OA
ATOM     13  N   UNL     1      35.744 -24.402 -10.212  0.00  0.00    +0.085 N 
ENDBRANCH   1   5
BRANCH   1  14
ATOM     14  C   UNL     1      33.455 -22.644 -17.723  0.00  0.00    +0.169 C 
BRANCH  14  15
ATOM     15  C   UNL     1      33.895 -21.754 -18.848  0.00  0.00    +0.007 C 
ATOM     16  C   UNL     1      35.244 -21.661 -19.166  0.00  0.00    +0.001 C 
ATOM     17  C   UNL     1      32.947 -21.030 -19.562  0.00  0.00    +0.001 C 
ATOM     18  C   UNL     1      35.653 -20.833 -20.212  0.00  0.00    +0.037 C 
ATOM     19  C   UNL     1      33.354 -20.202 -20.609  0.00  0.00    +0.037 C 
ATOM     20  C   UNL     1      34.707 -20.104 -20.933  0.00  0.00    +0.147 C 
BRANCH  20  21
ATOM     21  O   UNL     1      35.106 -19.296 -21.954  0.00  0.00    -0.404 OA
BRANCH  21  25
ATOM     22  F   UNL     1      35.468 -17.620 -20.441  0.00  0.00    -0.133 F 
ATOM     23  F   UNL     1      35.607 -17.185 -22.578  0.00  0.00    -0.133 F 
ATOM     24  F   UNL     1      37.174 -18.374 -21.626  0.00  0.00    -0.133 F 
ATOM     25  C   UNL     1      35.846 -18.124 -21.634  0.00  0.00    +0.575 C 
ENDBRANCH  21  25
ENDBRANCH  20  21
ENDBRANCH  14  15
ENDBRANCH   1  14
TORSDOF 5
ENDMDL
MODEL 3
REMARK VINA RESULT:     -11.1      1.245      1.438
REMARK  Name = 456199
REMARK  5 active torsions:
REMARK  status: ('A' for Active; 'I' for Inactive)
REMARK    1  A    between atoms: O_1  and  C_5
REMARK    2  A    between atoms: O_1  and  C_14
REMARK    3  A    between atoms: C_14  and  C_15
REMARK    4  A    between atoms: C_20  and  O_21
REMARK    5  A    between atoms: O_21  and  C_25
REMARK                            x       y       z     vdW  Elec       q    Type
REMARK                         _______ _______ _______ _____ _____    ______ ____
ROOT
ATOM      1  O   UNL     1      35.401 -22.619 -16.983  0.00  0.00    -0.346 OA
ENDROOT
BRANCH   1   5
ATOM      2  O   UNL     1      33.760 -24.471 -14.250  0.00  0.00    -0.438 OA
ATOM      3  N   UNL     1      35.693 -23.355 -13.414  0.00  0.00    -0.242 N 
ATOM      4  N   UNL     1      34.493 -24.601 -12.026  0.00  0.00    -0.333 NA
ATOM      5  C   UNL     1      35.351 -23.433 -15.821  0.00  0.00    +0.179 C 
ATOM      6  C   UNL     1      36.079 -22.750 -14.668  0.00  0.00    +0.130 C 
ATOM      7  C   UNL     1      33.891 -23.676 -15.436  0.00  0.00    +0.241 C 
ATOM      8  C   UNL     1      34.591 -24.153 -13.258  0.00  0.00    +0.345 C 
ATOM      9  C   UNL     1      36.327 -23.267 -12.214  0.00  0.00    +0.181 C 
ATOM     10  C   UNL     1      35.567 -24.045 -11.369  0.00  0.00    +0.274 C 
ATOM     11  O   UNL     1      36.745 -23.782  -9.409  0.00  0.00    -0.124 OA
ATOM     12  O   UNL     1      34.949 -25.049  -9.392  0.00  0.00    -0.124 OA
ATOM     13  N   UNL     1      35.762 -24.302 -10.006  0.00  0.00    +0.085 N 
ENDBRANCH   1   5
BRANCH   1  14
ATOM     14  C   UNL     1      34.204 -22.724 -17.739  0.00  0.00    +0.169 C 
BRANCH  14  15
ATOM     15  C   UNL     1      34.258 -21.749 -18.879  0.00  0.00    +0.007 C 
ATOM     16  C   UNL     1      35.487 -21.385 -19.415  0.00  0.00    +0.001 C 
ATOM     17  C   UNL     1      33.077 -21.219 -19.387  0.00  0.00    +0.001 C 
ATOM     18  C   UNL     1      35.537 -20.479 -20.474  0.00  0.00    +0.037 C 
ATOM     19  C   UNL     1      33.126 -20.313 -20.446  0.00  0.00    +0.037 C 
ATOM     20  C   UNL     1      34.357 -19.943 -20.990  0.00  0.00    +0.147 C 
BRANCH  20  21
ATOM     21  O   UNL     1      34.406 -19.059 -22.023  0.00  0.00    -0.404 OA
BRANCH  21  25
ATOM     22  F   UNL     1      35.080 -17.412 -20.587  0.00  0.00    -0.133 F 
ATOM     23  F   UNL     1      34.671 -16.914 -22.675  0.00  0.00    -0.133 F 
ATOM     24  F   UNL     1      36.461 -18.067 -22.183  0.00  0.00    -0.133 F 
ATOM     25  C   UNL     1      35.166 -17.868 -21.854  0.00  0.00    +0.575 C 
ENDBRANCH  21  25
ENDBRANCH  20  21
ENDBRANCH  14  15
ENDBRANCH   1  14
TORSDOF 5
ENDMDL
MODEL 4
REMARK VINA RESULT:     -10.5      5.574      6.978
REMARK  Name = 456199
REMARK  5 active torsions:
REMARK  status: ('A' for Active; 'I' for Inactive)
REMARK    1  A    between atoms: O_1  and  C_5
REMARK    2  A    between atoms: O_1  and  C_14
REMARK    3  A    between atoms: C_14  and  C_15
REMARK    4  A    between atoms: C_20  and  O_21
REMARK    5  A    between atoms: O_21  and  C_25
REMARK                            x       y       z     vdW  Elec       q    Type
REMARK                         _______ _______ _______ _____ _____    ______ ____
ROOT
ATOM      1  O   UNL     1      33.546 -24.071 -12.862  0.00  0.00    -0.346 OA
ENDROOT
BRANCH   1   5
ATOM      2  O   UNL     1      36.585 -25.572 -11.411  0.00  0.00    -0.438 OA
ATOM      3  N   UNL     1      36.957 -25.074 -13.712  0.00  0.00    -0.242 N 
ATOM      4  N   UNL     1      38.584 -26.031 -12.548  0.00  0.00    -0.333 NA
ATOM      5  C   UNL     1      34.691 -24.910 -12.843  0.00  0.00    +0.179 C 
ATOM      6  C   UNL     1      35.647 -24.521 -13.966  0.00  0.00    +0.130 C 
ATOM      7  C   UNL     1      35.399 -24.772 -11.495  0.00  0.00    +0.241 C 
ATOM      8  C   UNL     1      37.361 -25.552 -12.494  0.00  0.00    +0.345 C 
ATOM      9  C   UNL     1      37.981 -25.236 -14.593  0.00  0.00    +0.181 C 
ATOM     10  C   UNL     1      38.979 -25.828 -13.851  0.00  0.00    +0.274 C 
ATOM     11  O   UNL     1      40.619 -26.015 -15.455  0.00  0.00    -0.124 OA
ATOM     12  O   UNL     1      41.047 -26.746 -13.427  0.00  0.00    -0.124 OA
ATOM     13  N   UNL     1      40.263 -26.211 -14.260  0.00  0.00    +0.085 N 
ENDBRANCH   1   5
BRANCH   1  14
ATOM     14  C   UNL     1      32.352 -24.830 -12.975  0.00  0.00    +0.169 C 
BRANCH  14  15
ATOM     15  C   UNL     1      31.428 -24.147 -13.940  0.00  0.00    +0.007 C 
ATOM     16  C   UNL     1      30.092 -23.968 -13.604  0.00  0.00    +0.001 C 
ATOM     17  C   UNL     1      31.918 -23.699 -15.161  0.00  0.00    +0.001 C 
ATOM     18  C   UNL     1      29.233 -23.332 -14.502  0.00  0.00    +0.037 C 
ATOM     19  C   UNL     1      31.060 -23.063 -16.060  0.00  0.00    +0.037 C 
ATOM     20  C   UNL     1      29.718 -22.880 -15.729  0.00  0.00    +0.147 C 
BRANCH  20  21
ATOM     21  O   UNL     1      28.879 -22.261 -16.604  0.00  0.00    -0.404 OA
BRANCH  21  25
ATOM     22  F   UNL     1      26.748 -22.510 -15.813  0.00  0.00    -0.133 F 
ATOM     23  F   UNL     1      27.708 -24.174 -16.856  0.00  0.00    -0.133 F 
ATOM     24  F   UNL     1      27.072 -22.422 -17.998  0.00  0.00    -0.133 F 
ATOM     25  C   UNL     1      27.591 -22.827 -16.818  0.00  0.00    +0.575 C 
ENDBRANCH  21  25
ENDBRANCH  20  21
ENDBRANCH  14  15
ENDBRANCH   1  14
TORSDOF 5
ENDMDL
MODEL 5
REMARK VINA RESULT:     -10.4      1.768      2.528
REMARK  Name = 456199
REMARK  5 active torsions:
REMARK  status: ('A' for Active; 'I' for Inactive)
REMARK    1  A    between atoms: O_1  and  C_5
REMARK    2  A    between atoms: O_1  and  C_14
REMARK    3  A    between atoms: C_14  and  C_15
REMARK    4  A    between atoms: C_20  and  O_21
REMARK    5  A    between atoms: O_21  and  C_25
REMARK                            x       y       z     vdW  Elec       q    Type
REMARK                         _______ _______ _______ _____ _____    ______ ____
ROOT
ATOM      1  O   UNL     1      35.451 -22.173 -17.685  0.00  0.00    -0.346 OA
ENDROOT
BRANCH   1   5
ATOM      2  O   UNL     1      37.703 -22.380 -14.774  0.00  0.00    -0.438 OA
ATOM      3  N   UNL     1      35.633 -23.445 -14.263  0.00  0.00    -0.242 N 
ATOM      4  N   UNL     1      37.203 -23.355 -12.700  0.00  0.00    -0.333 NA
ATOM      5  C   UNL     1      35.788 -22.136 -16.307  0.00  0.00    +0.179 C 
ATOM      6  C   UNL     1      35.014 -23.207 -15.546  0.00  0.00    +0.130 C 
ATOM      7  C   UNL     1      37.290 -22.376 -16.146  0.00  0.00    +0.241 C 
ATOM      8  C   UNL     1      36.902 -23.045 -13.941  0.00  0.00    +0.345 C 
ATOM      9  C   UNL     1      35.095 -24.064 -13.177  0.00  0.00    +0.181 C 
ATOM     10  C   UNL     1      36.085 -23.998 -12.222  0.00  0.00    +0.274 C 
ATOM     11  O   UNL     1      35.040 -25.086 -10.483  0.00  0.00    -0.124 OA
ATOM     12  O   UNL     1      37.082 -24.334 -10.175  0.00  0.00    -0.124 OA
ATOM     13  N   UNL     1      36.068 -24.491 -10.911  0.00  0.00    +0.085 N 
ENDBRANCH   1   5
BRANCH   1  14
ATOM     14  C   UNL     1      36.523 -21.708 -18.492  0.00  0.00    +0.169 C 
BRANCH  14  15
ATOM     15  C   UNL     1      35.978 -20.794 -19.550  0.00  0.00    +0.007 C 
ATOM     16  C   UNL     1      36.821 -19.882 -20.172  0.00  0.00    +0.001 C 
ATOM     17  C   UNL     1      34.634 -20.870 -19.898  0.00  0.00    +0.001 C 
ATOM     18  C   UNL     1      36.313 -19.032 -21.157  0.00  0.00    +0.037 C 
ATOM     19  C   UNL     1      34.125 -20.022 -20.882  0.00  0.00    +0.037 C 
ATOM     20  C   UNL     1      34.966 -19.103 -21.511  0.00  0.00    +0.147 C 
BRANCH  20  21
ATOM     21  O   UNL     1      34.472 -18.274 -22.471  0.00  0.00    -0.404 OA
BRANCH  21  25
ATOM     22  F   UNL     1      35.044 -19.908 -23.965  0.00  0.00    -0.133 F 
ATOM     23  F   UNL     1      34.740 -17.864 -24.674  0.00  0.00    -0.133 F 
ATOM     24  F   UNL     1      33.011 -19.046 -24.053  0.00  0.00    -0.133 F 
ATOM     25  C   UNL     1      34.310 -18.790 -23.787  0.00  0.00    +0.575 C 
ENDBRANCH  21  25
ENDBRANCH  20  21
ENDBRANCH  14  15
ENDBRANCH   1  14
TORSDOF 5
ENDMDL
MODEL 6
REMARK VINA RESULT:     -10.3      6.496     11.199
REMARK  Name = 456199
REMARK  5 active torsions:
REMARK  status: ('A' for Active; 'I' for Inactive)
REMARK    1  A    between atoms: O_1  and  C_5
REMARK    2  A    between atoms: O_1  and  C_14
REMARK    3  A    between atoms: C_14  and  C_15
REMARK    4  A    between atoms: C_20  and  O_21
REMARK    5  A    between atoms: O_21  and  C_25
REMARK                            x       y       z     vdW  Elec       q    Type
REMARK                         _______ _______ _______ _____ _____    ______ ____
ROOT
ATOM      1  O   UNL     1      35.185 -19.376 -22.483  0.00  0.00    -0.346 OA
ENDROOT
BRANCH   1   5
ATOM      2  O   UNL     1      33.352 -17.784 -25.256  0.00  0.00    -0.438 OA
ATOM      3  N   UNL     1      34.375 -16.107 -23.905  0.00  0.00    -0.242 N 
ATOM      4  N   UNL     1      33.153 -15.479 -25.646  0.00  0.00    -0.333 NA
ATOM      5  C   UNL     1      34.354 -18.399 -23.090  0.00  0.00    +0.179 C 
ATOM      6  C   UNL     1      34.987 -17.016 -22.964  0.00  0.00    +0.130 C 
ATOM      7  C   UNL     1      34.162 -18.744 -24.567  0.00  0.00    +0.241 C 
ATOM      8  C   UNL     1      33.619 -16.508 -24.974  0.00  0.00    +0.345 C 
ATOM      9  C   UNL     1      34.416 -14.747 -23.900  0.00  0.00    +0.181 C 
ATOM     10  C   UNL     1      33.654 -14.380 -24.987  0.00  0.00    +0.274 C 
ATOM     11  O   UNL     1      33.834 -12.089 -24.850  0.00  0.00    -0.124 OA
ATOM     12  O   UNL     1      32.640 -12.952 -26.481  0.00  0.00    -0.124 OA
ATOM     13  N   UNL     1      33.365 -13.092 -25.456  0.00  0.00    +0.085 N 
ENDBRANCH   1   5
BRANCH   1  14
ATOM     14  C   UNL     1      35.376 -19.106 -21.102  0.00  0.00    +0.169 C 
BRANCH  14  15
ATOM     15  C   UNL     1      34.848 -20.260 -20.301  0.00  0.00    +0.007 C 
ATOM     16  C   UNL     1      33.477 -20.471 -20.219  0.00  0.00    +0.001 C 
ATOM     17  C   UNL     1      35.737 -21.107 -19.648  0.00  0.00    +0.001 C 
ATOM     18  C   UNL     1      32.987 -21.544 -19.474  0.00  0.00    +0.037 C 
ATOM     19  C   UNL     1      35.247 -22.180 -18.903  0.00  0.00    +0.037 C 
ATOM     20  C   UNL     1      33.872 -22.398 -18.816  0.00  0.00    +0.147 C 
BRANCH  20  21
ATOM     21  O   UNL     1      33.393 -23.445 -18.090  0.00  0.00    -0.404 OA
BRANCH  21  25
ATOM     22  F   UNL     1      33.785 -22.690 -15.967  0.00  0.00    -0.133 F 
ATOM     23  F   UNL     1      32.379 -24.333 -16.279  0.00  0.00    -0.133 F 
ATOM     24  F   UNL     1      31.812 -22.311 -16.887  0.00  0.00    -0.133 F 
ATOM     25  C   UNL     1      32.846 -23.177 -16.804  0.00  0.00    +0.575 C 
ENDBRANCH  21  25
ENDBRANCH  20  21
ENDBRANCH  14  15
ENDBRANCH   1  14
TORSDOF 5
ENDMDL
MODEL 7
REMARK VINA RESULT:     -10.2      2.737      4.028
REMARK  Name = 456199
REMARK  5 active torsions:
REMARK  status: ('A' for Active; 'I' for Inactive)
REMARK    1  A    between atoms: O_1  and  C_5
REMARK    2  A    between atoms: O_1  and  C_14
REMARK    3  A    between atoms: C_14  and  C_15
REMARK    4  A    between atoms: C_20  and  O_21
REMARK    5  A    between atoms: O_21  and  C_25
REMARK                            x       y       z     vdW  Elec       q    Type
REMARK                         _______ _______ _______ _____ _____    ______ ____
ROOT
ATOM      1  O   UNL     1      35.953 -20.524 -19.937  0.00  0.00    -0.346 OA
ENDROOT
BRANCH   1   5
ATOM      2  O   UNL     1      34.451 -22.966 -17.619  0.00  0.00    -0.438 OA
ATOM      3  N   UNL     1      36.519 -22.183 -16.728  0.00  0.00    -0.242 N 
ATOM      4  N   UNL     1      35.373 -23.704 -15.593  0.00  0.00    -0.333 NA
ATOM      5  C   UNL     1      35.957 -21.613 -19.025  0.00  0.00    +0.179 C 
ATOM      6  C   UNL     1      36.827 -21.285 -17.816  0.00  0.00    +0.130 C 
ATOM      7  C   UNL     1      34.525 -21.894 -18.566  0.00  0.00    +0.241 C 
ATOM      8  C   UNL     1      35.388 -22.952 -16.670  0.00  0.00    +0.345 C 
ATOM      9  C   UNL     1      37.263 -22.439 -15.619  0.00  0.00    +0.181 C 
ATOM     10  C   UNL     1      36.534 -23.382 -14.929  0.00  0.00    +0.274 C 
ATOM     11  O   UNL     1      37.899 -23.689 -13.101  0.00  0.00    -0.124 OA
ATOM     12  O   UNL     1      36.035 -24.847 -13.225  0.00  0.00    -0.124 OA
ATOM     13  N   UNL     1      36.835 -23.995 -13.706  0.00  0.00    +0.085 N 
ENDBRANCH   1   5
BRANCH   1  14
ATOM     14  C   UNL     1      34.633 -20.191 -20.338  0.00  0.00    +0.169 C 
BRANCH  14  15
ATOM     15  C   UNL     1      34.699 -19.205 -21.467  0.00  0.00    +0.007 C 
ATOM     16  C   UNL     1      34.290 -19.587 -22.739  0.00  0.00    +0.001 C 
ATOM     17  C   UNL     1      35.169 -17.918 -21.229  0.00  0.00    +0.001 C 
ATOM     18  C   UNL     1      34.352 -18.669 -23.789  0.00  0.00    +0.037 C 
ATOM     19  C   UNL     1      35.232 -17.001 -22.278  0.00  0.00    +0.037 C 
ATOM     20  C   UNL     1      34.822 -17.377 -23.558  0.00  0.00    +0.147 C 
BRANCH  20  21
ATOM     21  O   UNL     1      34.883 -16.482 -24.582  0.00  0.00    -0.404 OA
BRANCH  21  25
ATOM     22  F   UNL     1      32.755 -16.685 -25.396  0.00  0.00    -0.133 F 
ATOM     23  F   UNL     1      33.966 -14.961 -25.975  0.00  0.00    -0.133 F 
ATOM     24  F   UNL     1      33.191 -15.085 -23.935  0.00  0.00    -0.133 F 
ATOM     25  C   UNL     1      33.687 -15.811 -24.961  0.00  0.00    +0.575 C 
ENDBRANCH  21  25
ENDBRANCH  20  21
ENDBRANCH  14  15
ENDBRANCH   1  14
TORSDOF 5
ENDMDL
MODEL 8
REMARK VINA RESULT:     -10.2      5.865      8.619
REMARK  Name = 456199
REMARK  5 active torsions:
REMARK  status: ('A' for Active; 'I' for Inactive)
REMARK    1  A    between atoms: O_1  and  C_5
REMARK    2  A    between atoms: O_1  and  C_14
REMARK    3  A    between atoms: C_14  and  C_15
REMARK    4  A    between atoms: C_20  and  O_21
REMARK    5  A    between atoms: O_21  and  C_25
REMARK                            x       y       z     vdW  Elec       q    Type
REMARK                         _______ _______ _______ _____ _____    ______ ____
ROOT
ATOM      1  O   UNL     1      32.728 -24.672 -13.697  0.00  0.00    -0.346 OA
ENDROOT
BRANCH   1   5
ATOM      2  O   UNL     1      31.181 -22.808 -16.476  0.00  0.00    -0.438 OA
ATOM      3  N   UNL     1      29.525 -23.336 -14.846  0.00  0.00    -0.242 N 
ATOM      4  N   UNL     1      28.912 -22.247 -16.678  0.00  0.00    -0.333 NA
ATOM      5  C   UNL     1      31.717 -24.371 -14.647  0.00  0.00    +0.179 C 
ATOM      6  C   UNL     1      30.413 -24.022 -13.937  0.00  0.00    +0.130 C 
ATOM      7  C   UNL     1      32.166 -23.189 -15.508  0.00  0.00    +0.241 C 
ATOM      8  C   UNL     1      29.926 -22.774 -16.028  0.00  0.00    +0.345 C 
ATOM      9  C   UNL     1      28.184 -23.144 -14.718  0.00  0.00    +0.181 C 
ATOM     10  C   UNL     1      27.826 -22.467 -15.863  0.00  0.00    +0.274 C 
ATOM     11  O   UNL     1      25.569 -22.208 -15.489  0.00  0.00    -0.124 OA
ATOM     12  O   UNL     1      26.425 -21.400 -17.345  0.00  0.00    -0.124 OA
ATOM     13  N   UNL     1      26.559 -22.008 -16.246  0.00  0.00    +0.085 N 
ENDBRANCH   1   5
BRANCH   1  14
ATOM     14  C   UNL     1      33.797 -23.740 -13.769  0.00  0.00    +0.169 C 
BRANCH  14  15
ATOM     15  C   UNL     1      35.098 -24.487 -13.745  0.00  0.00    +0.007 C 
ATOM     16  C   UNL     1      35.369 -25.430 -14.729  0.00  0.00    +0.001 C 
ATOM     17  C   UNL     1      36.021 -24.228 -12.738  0.00  0.00    +0.001 C 
ATOM     18  C   UNL     1      36.579 -26.125 -14.707  0.00  0.00    +0.037 C 
ATOM     19  C   UNL     1      37.231 -24.922 -12.714  0.00  0.00    +0.037 C 
ATOM     20  C   UNL     1      37.510 -25.870 -13.699  0.00  0.00    +0.147 C 
BRANCH  20  21
ATOM     21  O   UNL     1      38.690 -26.548 -13.678  0.00  0.00    -0.404 OA
BRANCH  21  25
ATOM     22  F   UNL     1      40.882 -26.703 -14.312  0.00  0.00    -0.133 F 
ATOM     23  F   UNL     1      40.258 -25.074 -12.996  0.00  0.00    -0.133 F 
ATOM     24  F   UNL     1      39.659 -25.039 -15.098  0.00  0.00    -0.133 F 
ATOM     25  C   UNL     1      39.875 -25.848 -14.038  0.00  0.00    +0.575 C 
ENDBRANCH  21  25
ENDBRANCH  20  21
ENDBRANCH  14  15
ENDBRANCH   1  14
TORSDOF 5
ENDMDL
MODEL 9
REMARK VINA RESULT:     -10.1      6.175     10.813
REMARK  Name = 456199
REMARK  5 active torsions:
REMARK  status: ('A' for Active; 'I' for Inactive)
REMARK    1  A    between atoms: O_1  and  C_5
REMARK    2  A    between atoms: O_1  and  C_14
REMARK    3  A    between atoms: C_14  and  C_15
REMARK    4  A    between atoms: C_20  and  O_21
REMARK    5  A    between atoms: O_21  and  C_25
REMARK                            x       y       z     vdW  Elec       q    Type
REMARK                         _______ _______ _______ _____ _____    ______ ____
ROOT
ATOM      1  O   UNL     1      35.419 -19.322 -21.978  0.00  0.00    -0.346 OA
ENDROOT
BRANCH   1   5
ATOM      2  O   UNL     1      34.990 -15.699 -21.453  0.00  0.00    -0.438 OA
ATOM      3  N   UNL     1      34.372 -16.263 -23.685  0.00  0.00    -0.242 N 
ATOM      4  N   UNL     1      34.269 -14.141 -23.052  0.00  0.00    -0.333 NA
ATOM      5  C   UNL     1      35.485 -17.948 -22.330  0.00  0.00    +0.179 C 
ATOM      6  C   UNL     1      34.634 -17.679 -23.566  0.00  0.00    +0.130 C 
ATOM      7  C   UNL     1      34.978 -17.101 -21.162  0.00  0.00    +0.241 C 
ATOM      8  C   UNL     1      34.546 -15.366 -22.665  0.00  0.00    +0.345 C 
ATOM      9  C   UNL     1      33.941 -15.583 -24.781  0.00  0.00    +0.181 C 
ATOM     10  C   UNL     1      33.884 -14.270 -24.366  0.00  0.00    +0.274 C 
ATOM     11  O   UNL     1      33.134 -13.269 -26.299  0.00  0.00    -0.124 OA
ATOM     12  O   UNL     1      33.506 -12.006 -24.538  0.00  0.00    -0.124 OA
ATOM     13  N   UNL     1      33.493 -13.140 -25.096  0.00  0.00    +0.085 N 
ENDBRANCH   1   5
BRANCH   1  14
ATOM     14  C   UNL     1      34.156 -19.651 -21.418  0.00  0.00    +0.169 C 
BRANCH  14  15
ATOM     15  C   UNL     1      34.363 -20.581 -20.259  0.00  0.00    +0.007 C 
ATOM     16  C   UNL     1      35.654 -20.902 -19.856  0.00  0.00    +0.001 C 
ATOM     17  C   UNL     1      33.261 -21.114 -19.599  0.00  0.00    +0.001 C 
ATOM     18  C   UNL     1      35.846 -21.767 -18.778  0.00  0.00    +0.037 C 
ATOM     19  C   UNL     1      33.452 -21.979 -18.521  0.00  0.00    +0.037 C 
ATOM     20  C   UNL     1      34.745 -22.305 -18.111  0.00  0.00    +0.147 C 
BRANCH  20  21
ATOM     21  O   UNL     1      34.933 -23.149 -17.060  0.00  0.00    -0.404 OA
BRANCH  21  25
ATOM     22  F   UNL     1      36.610 -23.610 -15.574  0.00  0.00    -0.133 F 
ATOM     23  F   UNL     1      34.873 -22.461 -14.910  0.00  0.00    -0.133 F 
ATOM     24  F   UNL     1      36.325 -21.525 -16.249  0.00  0.00    -0.133 F 
ATOM     25  C   UNL     1      35.702 -22.687 -15.955  0.00  0.00    +0.575 C 
ENDBRANCH  21  25
ENDBRANCH  20  21
ENDBRANCH  14  15
ENDBRANCH   1  14
TORSDOF 5
ENDMDL
