MODEL 1
REMARK VINA RESULT:     -11.7      0.000      0.000
REMARK  Name = 12087505
REMARK  3 active torsions:
REMARK  status: ('A' for Active; 'I' for Inactive)
REMARK    1  A    between atoms: C_1  and  S_18
REMARK    2  A    between atoms: C_4  and  N_9
REMARK    3  A    between atoms: S_18  and  N_21
REMARK                            x       y       z     vdW  Elec       q    Type
REMARK                         _______ _______ _______ _____ _____    ______ ____
ROOT
ATOM      1  C   UNL     1      34.922 -21.645 -19.207  0.00  0.00    +0.123 C 
ATOM      2  C   UNL     1      34.505 -20.743 -20.172  0.00  0.00    +0.035 C 
ATOM      3  C   UNL     1      36.240 -21.689 -18.783  0.00  0.00    +0.020 C 
ATOM      4  C   UNL     1      35.431 -19.860 -20.727  0.00  0.00    +0.053 C 
ATOM      5  C   UNL     1      37.167 -20.806 -19.338  0.00  0.00    +0.003 C 
ATOM      6  C   UNL     1      36.761 -19.891 -20.310  0.00  0.00    +0.015 C 
ENDROOT
BRANCH   4   9
ATOM      7  S   UNL     1      33.699 -15.341 -24.691  0.00  0.00    -0.051 S 
ATOM      8  O   UNL     1      35.179 -16.891 -20.588  0.00  0.00    -0.252 OA
ATOM      9  N   UNL     1      35.026 -18.945 -21.699  0.00  0.00    -0.268 N 
ATOM     10  N   UNL     1      34.470 -17.005 -22.819  0.00  0.00    -0.248 N 
ATOM     11  N   UNL     1      34.402 -14.654 -22.300  0.00  0.00    -0.222 NA
ATOM     12  C   UNL     1      34.917 -17.535 -21.599  0.00  0.00    +0.310 C 
ATOM     13  C   UNL     1      34.241 -15.658 -23.107  0.00  0.00    +0.167 C 
ATOM     14  C   UNL     1      33.661 -13.673 -24.291  0.00  0.00    +0.059 C 
ATOM     15  C   UNL     1      34.066 -13.502 -22.983  0.00  0.00    +0.108 C 
ATOM     16  H   UNL     1      34.781 -19.330 -22.572  0.00  0.00    +0.156 HD
ATOM     17  H   UNL     1      34.300 -17.648 -23.545  0.00  0.00    +0.158 HD
ENDBRANCH   4   9
BRANCH   1  18
ATOM     18  S   UNL     1      33.751 -22.765 -18.506  0.00  0.00    +0.063 S 
ATOM     19  O   UNL     1      32.554 -22.015 -18.191  0.00  0.00    -0.153 OA
ATOM     20  O   UNL     1      33.696 -23.939 -19.350  0.00  0.00    -0.153 OA
BRANCH  18  21
ATOM     21  N   UNL     1      34.558 -23.165 -17.049  0.00  0.00    -0.152 NA
ATOM     22  N   UNL     1      35.487 -23.449 -14.384  0.00  0.00    -0.290 N 
ATOM     23  C   UNL     1      35.284 -22.042 -16.391  0.00  0.00    +0.117 C 
ATOM     24  C   UNL     1      33.751 -23.932 -16.059  0.00  0.00    +0.117 C 
ATOM     25  C   UNL     1      36.225 -22.598 -15.327  0.00  0.00    +0.111 C 
ATOM     26  C   UNL     1      34.671 -24.510 -14.987  0.00  0.00    +0.111 C 
ATOM     27  N   UNL     1      37.389 -23.598 -12.935  0.00  0.00    -0.229 NA
ATOM     28  C   UNL     1      36.032 -23.635 -13.109  0.00  0.00    +0.132 C 
ATOM     29  C   UNL     1      35.160 -23.857 -12.035  0.00  0.00    +0.034 C 
ATOM     30  C   UNL     1      35.688 -24.045 -10.762  0.00  0.00    +0.004 C 
ATOM     31  C   UNL     1      37.865 -23.783 -11.683  0.00  0.00    +0.100 C 
ATOM     32  C   UNL     1      37.064 -24.008 -10.574  0.00  0.00    +0.021 C 
ENDBRANCH  18  21
ENDBRANCH   1  18
TORSDOF 3
ENDMDL
MODEL 2
REMARK VINA RESULT:     -11.3      2.236     10.905
REMARK  Name = 12087505
REMARK  3 active torsions:
REMARK  status: ('A' for Active; 'I' for Inactive)
REMARK    1  A    between atoms: C_1  and  S_18
REMARK    2  A    between atoms: C_4  and  N_9
REMARK    3  A    between atoms: S_18  and  N_21
REMARK                            x       y       z     vdW  Elec       q    Type
REMARK                         _______ _______ _______ _____ _____    ______ ____
ROOT
ATOM      1  C   UNL     1      34.881 -19.802 -21.292  0.00  0.00    +0.123 C 
ATOM      2  C   UNL     1      35.616 -20.395 -20.279  0.00  0.00    +0.035 C 
ATOM      3  C   UNL     1      33.498 -19.870 -21.314  0.00  0.00    +0.020 C 
ATOM      4  C   UNL     1      34.950 -21.075 -19.259  0.00  0.00    +0.053 C 
ATOM      5  C   UNL     1      32.830 -20.549 -20.294  0.00  0.00    +0.003 C 
ATOM      6  C   UNL     1      33.557 -21.150 -19.266  0.00  0.00    +0.015 C 
ENDROOT
BRANCH   4   9
ATOM      7  S   UNL     1      37.700 -23.965 -14.441  0.00  0.00    -0.051 S 
ATOM      8  O   UNL     1      34.016 -22.716 -16.949  0.00  0.00    -0.252 OA
ATOM      9  N   UNL     1      35.676 -21.676 -18.230  0.00  0.00    -0.268 N 
ATOM     10  N   UNL     1      36.276 -22.862 -16.344  0.00  0.00    -0.248 N 
ATOM     11  N   UNL     1      35.128 -24.122 -14.642  0.00  0.00    -0.222 NA
ATOM     12  C   UNL     1      35.198 -22.452 -17.145  0.00  0.00    +0.310 C 
ATOM     13  C   UNL     1      36.203 -23.639 -15.186  0.00  0.00    +0.167 C 
ATOM     14  C   UNL     1      36.855 -24.857 -13.244  0.00  0.00    +0.059 C 
ATOM     15  C   UNL     1      35.502 -24.829 -13.516  0.00  0.00    +0.108 C 
ATOM     16  H   UNL     1      36.651 -21.543 -18.263  0.00  0.00    +0.156 HD
ATOM     17  H   UNL     1      37.173 -22.572 -16.627  0.00  0.00    +0.158 HD
ENDBRANCH   4   9
BRANCH   1  18
ATOM     18  S   UNL     1      35.725 -18.945 -22.584  0.00  0.00    +0.063 S 
ATOM     19  O   UNL     1      37.091 -18.732 -22.156  0.00  0.00    -0.153 OA
ATOM     20  O   UNL     1      35.430 -19.616 -23.832  0.00  0.00    -0.153 OA
BRANCH  18  21
ATOM     21  N   UNL     1      34.888 -17.451 -22.545  0.00  0.00    -0.152 NA
ATOM     22  N   UNL     1      34.058 -14.739 -22.575  0.00  0.00    -0.290 N 
ATOM     23  C   UNL     1      35.232 -16.555 -21.404  0.00  0.00    +0.117 C 
ATOM     24  C   UNL     1      34.865 -16.695 -23.828  0.00  0.00    +0.117 C 
ATOM     25  C   UNL     1      34.189 -15.447 -21.295  0.00  0.00    +0.111 C 
ATOM     26  C   UNL     1      33.820 -15.586 -23.751  0.00  0.00    +0.111 C 
ATOM     27  N   UNL     1      32.670 -13.062 -21.574  0.00  0.00    -0.229 NA
ATOM     28  C   UNL     1      33.554 -13.433 -22.549  0.00  0.00    +0.132 C 
ATOM     29  C   UNL     1      33.978 -12.535 -23.537  0.00  0.00    +0.034 C 
ATOM     30  C   UNL     1      33.486 -11.234 -23.525  0.00  0.00    +0.004 C 
ATOM     31  C   UNL     1      32.215 -11.789 -21.594  0.00  0.00    +0.100 C 
ATOM     32  C   UNL     1      32.588 -10.846 -22.538  0.00  0.00    +0.021 C 
ENDBRANCH  18  21
ENDBRANCH   1  18
TORSDOF 3
ENDMDL
MODEL 3
REMARK VINA RESULT:     -10.3      3.837      6.754
REMARK  Name = 12087505
REMARK  3 active torsions:
REMARK  status: ('A' for Active; 'I' for Inactive)
REMARK    1  A    between atoms: C_1  and  S_18
REMARK    2  A    between atoms: C_4  and  N_9
REMARK    3  A    between atoms: S_18  and  N_21
REMARK                            x       y       z     vdW  Elec       q    Type
REMARK                         _______ _______ _______ _____ _____    ______ ____
ROOT
ATOM      1  C   UNL     1      37.002 -24.160 -13.478  0.00  0.00    +0.123 C 
ATOM      2  C   UNL     1      36.862 -23.258 -14.520  0.00  0.00    +0.035 C 
ATOM      3  C   UNL     1      38.080 -25.026 -13.414  0.00  0.00    +0.020 C 
ATOM      4  C   UNL     1      37.828 -23.222 -15.526  0.00  0.00    +0.053 C 
ATOM      5  C   UNL     1      39.047 -24.990 -14.419  0.00  0.00    +0.003 C 
ATOM      6  C   UNL     1      38.920 -24.087 -15.475  0.00  0.00    +0.015 C 
ENDROOT
BRANCH   4   9
ATOM      7  S   UNL     1      36.724 -19.367 -20.328  0.00  0.00    -0.051 S 
ATOM      8  O   UNL     1      35.510 -22.672 -17.322  0.00  0.00    -0.252 OA
ATOM      9  N   UNL     1      37.702 -22.319 -16.582  0.00  0.00    -0.268 N 
ATOM     10  N   UNL     1      36.891 -21.085 -18.355  0.00  0.00    -0.248 N 
ATOM     11  N   UNL     1      34.819 -20.945 -19.575  0.00  0.00    -0.222 NA
ATOM     12  C   UNL     1      36.582 -22.082 -17.418  0.00  0.00    +0.310 C 
ATOM     13  C   UNL     1      36.043 -20.582 -19.344  0.00  0.00    +0.167 C 
ATOM     14  C   UNL     1      35.236 -19.290 -21.177  0.00  0.00    +0.059 C 
ATOM     15  C   UNL     1      34.347 -20.198 -20.637  0.00  0.00    +0.108 C 
ATOM     16  H   UNL     1      38.500 -21.773 -16.773  0.00  0.00    +0.156 HD
ATOM     17  H   UNL     1      37.797 -20.701 -18.311  0.00  0.00    +0.158 HD
ENDBRANCH   4   9
BRANCH   1  18
ATOM     18  S   UNL     1      35.777 -24.208 -12.207  0.00  0.00    +0.063 S 
ATOM     19  O   UNL     1      35.945 -25.446 -11.477  0.00  0.00    -0.153 OA
ATOM     20  O   UNL     1      35.792 -22.931 -11.526  0.00  0.00    -0.153 OA
BRANCH  18  21
ATOM     21  N   UNL     1      34.360 -24.312 -13.163  0.00  0.00    -0.152 NA
ATOM     22  N   UNL     1      31.838 -23.997 -14.422  0.00  0.00    -0.290 N 
ATOM     23  C   UNL     1      33.112 -24.653 -12.423  0.00  0.00    +0.117 C 
ATOM     24  C   UNL     1      34.133 -23.173 -14.097  0.00  0.00    +0.117 C 
ATOM     25  C   UNL     1      32.025 -25.052 -13.416  0.00  0.00    +0.111 C 
ATOM     26  C   UNL     1      33.055 -23.549 -15.110  0.00  0.00    +0.111 C 
ATOM     27  N   UNL     1      29.886 -25.085 -15.287  0.00  0.00    -0.229 NA
ATOM     28  C   UNL     1      30.607 -23.940 -15.085  0.00  0.00    +0.132 C 
ATOM     29  C   UNL     1      30.144 -22.693 -15.527  0.00  0.00    +0.034 C 
ATOM     30  C   UNL     1      28.923 -22.620 -16.188  0.00  0.00    +0.004 C 
ATOM     31  C   UNL     1      28.703 -24.974 -15.932  0.00  0.00    +0.100 C 
ATOM     32  C   UNL     1      28.182 -23.777 -16.397  0.00  0.00    +0.021 C 
ENDBRANCH  18  21
ENDBRANCH   1  18
TORSDOF 3
ENDMDL
MODEL 4
REMARK VINA RESULT:      -9.9      2.814     11.208
REMARK  Name = 12087505
REMARK  3 active torsions:
REMARK  status: ('A' for Active; 'I' for Inactive)
REMARK    1  A    between atoms: C_1  and  S_18
REMARK    2  A    between atoms: C_4  and  N_9
REMARK    3  A    between atoms: S_18  and  N_21
REMARK                            x       y       z     vdW  Elec       q    Type
REMARK                         _______ _______ _______ _____ _____    ______ ____
ROOT
ATOM      1  C   UNL     1      34.740 -18.534 -23.100  0.00  0.00    +0.123 C 
ATOM      2  C   UNL     1      34.040 -19.306 -22.188  0.00  0.00    +0.035 C 
ATOM      3  C   UNL     1      36.042 -18.130 -22.855  0.00  0.00    +0.020 C 
ATOM      4  C   UNL     1      34.660 -19.686 -20.997  0.00  0.00    +0.053 C 
ATOM      5  C   UNL     1      36.663 -18.510 -21.665  0.00  0.00    +0.003 C 
ATOM      6  C   UNL     1      35.971 -19.289 -20.737  0.00  0.00    +0.015 C 
ENDROOT
BRANCH   4   9
ATOM      7  S   UNL     1      32.076 -23.315 -16.606  0.00  0.00    -0.051 S 
ATOM      8  O   UNL     1      35.683 -21.358 -18.748  0.00  0.00    -0.252 OA
ATOM      9  N   UNL     1      33.969 -20.464 -20.069  0.00  0.00    -0.268 N 
ATOM     10  N   UNL     1      33.436 -21.871 -18.319  0.00  0.00    -0.248 N 
ATOM     11  N   UNL     1      34.651 -23.089 -16.633  0.00  0.00    -0.222 NA
ATOM     12  C   UNL     1      34.488 -21.249 -19.009  0.00  0.00    +0.310 C 
ATOM     13  C   UNL     1      33.552 -22.722 -17.217  0.00  0.00    +0.167 C 
ATOM     14  C   UNL     1      32.969 -24.170 -15.417  0.00  0.00    +0.059 C 
ATOM     15  C   UNL     1      34.317 -23.930 -15.589  0.00  0.00    +0.108 C 
ATOM     16  H   UNL     1      32.989 -20.470 -20.163  0.00  0.00    +0.156 HD
ATOM     17  H   UNL     1      32.525 -21.690 -18.645  0.00  0.00    +0.158 HD
ENDBRANCH   4   9
BRANCH   1  18
ATOM     18  S   UNL     1      33.955 -18.051 -24.606  0.00  0.00    +0.063 S 
ATOM     19  O   UNL     1      34.945 -18.104 -25.660  0.00  0.00    -0.153 OA
ATOM     20  O   UNL     1      32.710 -18.781 -24.714  0.00  0.00    -0.153 OA
BRANCH  18  21
ATOM     21  N   UNL     1      33.609 -16.412 -24.248  0.00  0.00    -0.152 NA
ATOM     22  N   UNL     1      33.629 -13.615 -23.776  0.00  0.00    -0.290 N 
ATOM     23  C   UNL     1      34.277 -15.868 -23.032  0.00  0.00    +0.117 C 
ATOM     24  C   UNL     1      33.732 -15.466 -25.392  0.00  0.00    +0.117 C 
ATOM     25  C   UNL     1      33.624 -14.547 -22.639  0.00  0.00    +0.111 C 
ATOM     26  C   UNL     1      33.075 -14.136 -25.031  0.00  0.00    +0.111 C 
ATOM     27  N   UNL     1      32.875 -11.817 -22.383  0.00  0.00    -0.229 NA
ATOM     28  C   UNL     1      33.544 -12.246 -23.497  0.00  0.00    +0.132 C 
ATOM     29  C   UNL     1      34.154 -11.346 -24.379  0.00  0.00    +0.034 C 
ATOM     30  C   UNL     1      34.077  -9.982 -24.115  0.00  0.00    +0.004 C 
ATOM     31  C   UNL     1      32.822 -10.485 -22.159  0.00  0.00    +0.100 C 
ATOM     32  C   UNL     1      33.401  -9.535 -22.986  0.00  0.00    +0.021 C 
ENDBRANCH  18  21
ENDBRANCH   1  18
TORSDOF 3
ENDMDL
MODEL 5
REMARK VINA RESULT:      -9.8      2.689     10.600
REMARK  Name = 12087505
REMARK  3 active torsions:
REMARK  status: ('A' for Active; 'I' for Inactive)
REMARK    1  A    between atoms: C_1  and  S_18
REMARK    2  A    between atoms: C_4  and  N_9
REMARK    3  A    between atoms: S_18  and  N_21
REMARK                            x       y       z     vdW  Elec       q    Type
REMARK                         _______ _______ _______ _____ _____    ______ ____
ROOT
ATOM      1  C   UNL     1      34.926 -19.733 -21.141  0.00  0.00    +0.123 C 
ATOM      2  C   UNL     1      35.181 -20.486 -20.007  0.00  0.00    +0.035 C 
ATOM      3  C   UNL     1      33.649 -19.628 -21.664  0.00  0.00    +0.020 C 
ATOM      4  C   UNL     1      34.129 -21.152 -19.378  0.00  0.00    +0.053 C 
ATOM      5  C   UNL     1      32.595 -20.293 -21.036  0.00  0.00    +0.003 C 
ATOM      6  C   UNL     1      32.836 -21.055 -19.892  0.00  0.00    +0.015 C 
ENDROOT
BRANCH   4   9
ATOM      7  S   UNL     1      34.634 -24.581 -14.170  0.00  0.00    -0.051 S 
ATOM      8  O   UNL     1      32.219 -22.311 -17.401  0.00  0.00    -0.252 OA
ATOM      9  N   UNL     1      34.369 -21.914 -18.235  0.00  0.00    -0.268 N 
ATOM     10  N   UNL     1      34.111 -23.154 -16.305  0.00  0.00    -0.248 N 
ATOM     11  N   UNL     1      32.264 -23.907 -14.955  0.00  0.00    -0.222 NA
ATOM     12  C   UNL     1      33.435 -22.451 -17.314  0.00  0.00    +0.310 C 
ATOM     13  C   UNL     1      33.531 -23.819 -15.223  0.00  0.00    +0.167 C 
ATOM     14  C   UNL     1      33.299 -25.103 -13.229  0.00  0.00    +0.059 C 
ATOM     15  C   UNL     1      32.126 -24.651 -13.799  0.00  0.00    +0.108 C 
ATOM     16  H   UNL     1      35.316 -22.104 -18.040  0.00  0.00    +0.156 HD
ATOM     17  H   UNL     1      35.094 -23.180 -16.367  0.00  0.00    +0.158 HD
ENDBRANCH   4   9
BRANCH   1  18
ATOM     18  S   UNL     1      36.259 -18.892 -21.938  0.00  0.00    +0.063 S 
ATOM     19  O   UNL     1      37.411 -18.960 -21.065  0.00  0.00    -0.153 OA
ATOM     20  O   UNL     1      36.329 -19.363 -23.305  0.00  0.00    -0.153 OA
BRANCH  18  21
ATOM     21  N   UNL     1      35.646 -17.292 -21.931  0.00  0.00    -0.152 NA
ATOM     22  N   UNL     1      34.089 -14.922 -21.925  0.00  0.00    -0.290 N 
ATOM     23  C   UNL     1      34.908 -16.885 -23.160  0.00  0.00    +0.117 C 
ATOM     24  C   UNL     1      34.900 -16.898 -20.704  0.00  0.00    +0.117 C 
ATOM     25  C   UNL     1      34.731 -15.370 -23.168  0.00  0.00    +0.111 C 
ATOM     26  C   UNL     1      34.717 -15.382 -20.681  0.00  0.00    +0.111 C 
ATOM     27  N   UNL     1      33.819 -12.704 -22.791  0.00  0.00    -0.229 NA
ATOM     28  C   UNL     1      33.409 -13.699 -21.946  0.00  0.00    +0.132 C 
ATOM     29  C   UNL     1      32.314 -13.529 -21.089  0.00  0.00    +0.034 C 
ATOM     30  C   UNL     1      31.629 -12.318 -21.098  0.00  0.00    +0.004 C 
ATOM     31  C   UNL     1      33.128 -11.543 -22.773  0.00  0.00    +0.100 C 
ATOM     32  C   UNL     1      32.037 -11.302 -21.953  0.00  0.00    +0.021 C 
ENDBRANCH  18  21
ENDBRANCH   1  18
TORSDOF 3
ENDMDL
MODEL 6
REMARK VINA RESULT:      -9.8      7.326     15.214
REMARK  Name = 12087505
REMARK  3 active torsions:
REMARK  status: ('A' for Active; 'I' for Inactive)
REMARK    1  A    between atoms: C_1  and  S_18
REMARK    2  A    between atoms: C_4  and  N_9
REMARK    3  A    between atoms: S_18  and  N_21
REMARK                            x       y       z     vdW  Elec       q    Type
REMARK                         _______ _______ _______ _____ _____    ______ ____
ROOT
ATOM      1  C   UNL     1      32.681 -10.437 -22.227  0.00  0.00    +0.123 C 
ATOM      2  C   UNL     1      32.713 -11.790 -22.520  0.00  0.00    +0.035 C 
ATOM      3  C   UNL     1      33.470  -9.531 -22.914  0.00  0.00    +0.020 C 
ATOM      4  C   UNL     1      33.559 -12.250 -23.530  0.00  0.00    +0.053 C 
ATOM      5  C   UNL     1      34.316  -9.989 -23.924  0.00  0.00    +0.003 C 
ATOM      6  C   UNL     1      34.360 -11.349 -24.232  0.00  0.00    +0.015 C 
ENDROOT
BRANCH   4   9
ATOM      7  S   UNL     1      34.067 -18.420 -24.431  0.00  0.00    -0.051 S 
ATOM      8  O   UNL     1      34.845 -14.513 -22.072  0.00  0.00    -0.252 OA
ATOM      9  N   UNL     1      33.603 -13.610 -23.838  0.00  0.00    -0.268 N 
ATOM     10  N   UNL     1      34.023 -15.878 -23.791  0.00  0.00    -0.248 N 
ATOM     11  N   UNL     1      35.183 -17.403 -22.332  0.00  0.00    -0.222 NA
ATOM     12  C   UNL     1      34.225 -14.662 -23.121  0.00  0.00    +0.310 C 
ATOM     13  C   UNL     1      34.485 -17.134 -23.392  0.00  0.00    +0.167 C 
ATOM     14  C   UNL     1      34.900 -19.481 -23.372  0.00  0.00    +0.059 C 
ATOM     15  C   UNL     1      35.425 -18.763 -22.317  0.00  0.00    +0.108 C 
ATOM     16  H   UNL     1      33.141 -13.874 -24.667  0.00  0.00    +0.156 HD
ATOM     17  H   UNL     1      33.503 -15.842 -24.627  0.00  0.00    +0.158 HD
ENDBRANCH   4   9
BRANCH   1  18
ATOM     18  S   UNL     1      31.612  -9.856 -20.947  0.00  0.00    +0.063 S 
ATOM     19  O   UNL     1      30.395 -10.638 -20.996  0.00  0.00    -0.153 OA
ATOM     20  O   UNL     1      32.387  -9.757 -19.729  0.00  0.00    -0.153 OA
BRANCH  18  21
ATOM     21  N   UNL     1      31.284  -8.278 -21.528  0.00  0.00    -0.152 NA
ATOM     22  N   UNL     1      31.340  -5.659 -22.616  0.00  0.00    -0.290 N 
ATOM     23  C   UNL     1      31.926  -7.170 -20.765  0.00  0.00    +0.117 C 
ATOM     24  C   UNL     1      31.458  -8.087 -22.995  0.00  0.00    +0.117 C 
ATOM     25  C   UNL     1      31.284  -5.843 -21.159  0.00  0.00    +0.111 C 
ATOM     26  C   UNL     1      30.814  -6.769 -23.420  0.00  0.00    +0.111 C 
ATOM     27  N   UNL     1      30.577  -3.396 -22.420  0.00  0.00    -0.229 NA
ATOM     28  C   UNL     1      31.271  -4.352 -23.111  0.00  0.00    +0.132 C 
ATOM     29  C   UNL     1      31.923  -4.059 -24.316  0.00  0.00    +0.034 C 
ATOM     30  C   UNL     1      31.862  -2.765 -24.821  0.00  0.00    +0.004 C 
ATOM     31  C   UNL     1      30.541  -2.149 -22.942  0.00  0.00    +0.100 C 
ATOM     32  C   UNL     1      31.161  -1.786 -24.127  0.00  0.00    +0.021 C 
ENDBRANCH  18  21
ENDBRANCH   1  18
TORSDOF 3
ENDMDL
MODEL 7
REMARK VINA RESULT:      -9.8      2.763     11.033
REMARK  Name = 12087505
REMARK  3 active torsions:
REMARK  status: ('A' for Active; 'I' for Inactive)
REMARK    1  A    between atoms: C_1  and  S_18
REMARK    2  A    between atoms: C_4  and  N_9
REMARK    3  A    between atoms: S_18  and  N_21
REMARK                            x       y       z     vdW  Elec       q    Type
REMARK                         _______ _______ _______ _____ _____    ______ ____
ROOT
ATOM      1  C   UNL     1      34.978 -18.341 -23.049  0.00  0.00    +0.123 C 
ATOM      2  C   UNL     1      34.263 -19.133 -22.166  0.00  0.00    +0.035 C 
ATOM      3  C   UNL     1      36.312 -18.043 -22.833  0.00  0.00    +0.020 C 
ATOM      4  C   UNL     1      34.902 -19.641 -21.034  0.00  0.00    +0.053 C 
ATOM      5  C   UNL     1      36.953 -18.551 -21.703  0.00  0.00    +0.003 C 
ATOM      6  C   UNL     1      36.247 -19.351 -20.804  0.00  0.00    +0.015 C 
ENDROOT
BRANCH   4   9
ATOM      7  S   UNL     1      32.247 -23.346 -16.749  0.00  0.00    -0.051 S 
ATOM      8  O   UNL     1      35.876 -21.259 -18.725  0.00  0.00    -0.252 OA
ATOM      9  N   UNL     1      34.197 -20.442 -20.135  0.00  0.00    -0.268 N 
ATOM     10  N   UNL     1      33.633 -21.859 -18.403  0.00  0.00    -0.248 N 
ATOM     11  N   UNL     1      34.810 -23.018 -16.650  0.00  0.00    -0.222 NA
ATOM     12  C   UNL     1      34.693 -21.199 -19.045  0.00  0.00    +0.310 C 
ATOM     13  C   UNL     1      33.728 -22.698 -17.291  0.00  0.00    +0.167 C 
ATOM     14  C   UNL     1      33.112 -24.158 -15.511  0.00  0.00    +0.059 C 
ATOM     15  C   UNL     1      34.457 -23.865 -15.618  0.00  0.00    +0.108 C 
ATOM     16  H   UNL     1      33.224 -20.487 -20.278  0.00  0.00    +0.156 HD
ATOM     17  H   UNL     1      32.733 -21.715 -18.775  0.00  0.00    +0.158 HD
ENDBRANCH   4   9
BRANCH   1  18
ATOM     18  S   UNL     1      34.168 -17.696 -24.480  0.00  0.00    +0.063 S 
ATOM     19  O   UNL     1      35.081 -17.813 -25.596  0.00  0.00    -0.153 OA
ATOM     20  O   UNL     1      32.841 -18.268 -24.537  0.00  0.00    -0.153 OA
BRANCH  18  21
ATOM     21  N   UNL     1      34.044 -16.047 -24.032  0.00  0.00    -0.152 NA
ATOM     22  N   UNL     1      33.255 -13.460 -23.180  0.00  0.00    -0.290 N 
ATOM     23  C   UNL     1      33.174 -15.211 -24.906  0.00  0.00    +0.117 C 
ATOM     24  C   UNL     1      33.757 -15.794 -22.592  0.00  0.00    +0.117 C 
ATOM     25  C   UNL     1      33.427 -13.735 -24.613  0.00  0.00    +0.111 C 
ATOM     26  C   UNL     1      34.013 -14.325 -22.269  0.00  0.00    +0.111 C 
ATOM     27  N   UNL     1      33.411 -11.098 -23.554  0.00  0.00    -0.229 NA
ATOM     28  C   UNL     1      32.957 -12.146 -22.800  0.00  0.00    +0.132 C 
ATOM     29  C   UNL     1      32.194 -11.942 -21.643  0.00  0.00    +0.034 C 
ATOM     30  C   UNL     1      31.891 -10.642 -21.253  0.00  0.00    +0.004 C 
ATOM     31  C   UNL     1      33.095  -9.849 -23.144  0.00  0.00    +0.100 C 
ATOM     32  C   UNL     1      32.345  -9.570 -22.012  0.00  0.00    +0.021 C 
ENDBRANCH  18  21
ENDBRANCH   1  18
TORSDOF 3
ENDMDL
MODEL 8
REMARK VINA RESULT:      -9.4      5.098      8.608
REMARK  Name = 12087505
REMARK  3 active torsions:
REMARK  status: ('A' for Active; 'I' for Inactive)
REMARK    1  A    between atoms: C_1  and  S_18
REMARK    2  A    between atoms: C_4  and  N_9
REMARK    3  A    between atoms: S_18  and  N_21
REMARK                            x       y       z     vdW  Elec       q    Type
REMARK                         _______ _______ _______ _____ _____    ______ ____
ROOT
ATOM      1  C   UNL     1      33.879 -14.547 -23.552  0.00  0.00    +0.123 C 
ATOM      2  C   UNL     1      33.898 -13.214 -23.930  0.00  0.00    +0.035 C 
ATOM      3  C   UNL     1      33.511 -14.929 -22.274  0.00  0.00    +0.020 C 
ATOM      4  C   UNL     1      33.537 -12.237 -23.002  0.00  0.00    +0.053 C 
ATOM      5  C   UNL     1      33.149 -13.952 -21.345  0.00  0.00    +0.003 C 
ATOM      6  C   UNL     1      33.162 -12.606 -21.711  0.00  0.00    +0.015 C 
ENDROOT
BRANCH   4   9
ATOM      7  S   UNL     1      33.177  -6.116 -24.243  0.00  0.00    -0.051 S 
ATOM      8  O   UNL     1      31.921  -9.949 -21.973  0.00  0.00    -0.252 OA
ATOM      9  N   UNL     1      33.549 -10.890 -23.366  0.00  0.00    -0.268 N 
ATOM     10  N   UNL     1      33.103  -8.631 -23.509  0.00  0.00    -0.248 N 
ATOM     11  N   UNL     1      31.617  -7.078 -22.420  0.00  0.00    -0.222 NA
ATOM     12  C   UNL     1      32.765  -9.826 -22.855  0.00  0.00    +0.310 C 
ATOM     13  C   UNL     1      32.546  -7.371 -23.278  0.00  0.00    +0.167 C 
ATOM     14  C   UNL     1      32.109  -5.035 -23.449  0.00  0.00    +0.059 C 
ATOM     15  C   UNL     1      31.361  -5.724 -22.516  0.00  0.00    +0.108 C 
ATOM     16  H   UNL     1      34.188 -10.646 -24.076  0.00  0.00    +0.156 HD
ATOM     17  H   UNL     1      33.802  -8.686 -24.199  0.00  0.00    +0.158 HD
ENDBRANCH   4   9
BRANCH   1  18
ATOM     18  S   UNL     1      34.339 -15.784 -24.726  0.00  0.00    +0.063 S 
ATOM     19  O   UNL     1      33.156 -16.140 -25.480  0.00  0.00    -0.153 OA
ATOM     20  O   UNL     1      35.544 -15.340 -25.393  0.00  0.00    -0.153 OA
BRANCH  18  21
ATOM     21  N   UNL     1      34.732 -17.069 -23.663  0.00  0.00    -0.152 NA
ATOM     22  N   UNL     1      34.885 -19.011 -21.603  0.00  0.00    -0.290 N 
ATOM     23  C   UNL     1      35.129 -16.661 -22.286  0.00  0.00    +0.117 C 
ATOM     24  C   UNL     1      33.754 -18.192 -23.627  0.00  0.00    +0.117 C 
ATOM     25  C   UNL     1      35.776 -17.844 -21.572  0.00  0.00    +0.111 C 
ATOM     26  C   UNL     1      34.381 -19.395 -22.927  0.00  0.00    +0.111 C 
ATOM     27  N   UNL     1      36.301 -20.207 -20.083  0.00  0.00    -0.229 NA
ATOM     28  C   UNL     1      35.060 -19.991 -20.618  0.00  0.00    +0.132 C 
ATOM     29  C   UNL     1      33.944 -20.730 -20.206  0.00  0.00    +0.034 C 
ATOM     30  C   UNL     1      34.102 -21.707 -19.229  0.00  0.00    +0.004 C 
ATOM     31  C   UNL     1      36.415 -21.164 -19.135  0.00  0.00    +0.100 C 
ATOM     32  C   UNL     1      35.357 -21.934 -18.678  0.00  0.00    +0.021 C 
ENDBRANCH  18  21
ENDBRANCH   1  18
TORSDOF 3
ENDMDL
MODEL 9
REMARK VINA RESULT:      -9.1      2.351     10.819
REMARK  Name = 12087505
REMARK  3 active torsions:
REMARK  status: ('A' for Active; 'I' for Inactive)
REMARK    1  A    between atoms: C_1  and  S_18
REMARK    2  A    between atoms: C_4  and  N_9
REMARK    3  A    between atoms: S_18  and  N_21
REMARK                            x       y       z     vdW  Elec       q    Type
REMARK                         _______ _______ _______ _____ _____    ______ ____
ROOT
ATOM      1  C   UNL     1      35.129 -21.072 -19.389  0.00  0.00    +0.123 C 
ATOM      2  C   UNL     1      35.406 -21.787 -18.236  0.00  0.00    +0.035 C 
ATOM      3  C   UNL     1      33.833 -20.922 -19.852  0.00  0.00    +0.020 C 
ATOM      4  C   UNL     1      34.356 -22.368 -17.525  0.00  0.00    +0.053 C 
ATOM      5  C   UNL     1      32.782 -21.503 -19.141  0.00  0.00    +0.003 C 
ATOM      6  C   UNL     1      33.044 -22.225 -17.977  0.00  0.00    +0.015 C 
ENDROOT
BRANCH   4   9
ATOM      7  S   UNL     1      35.955 -25.232 -12.198  0.00  0.00    -0.051 S 
ATOM      8  O   UNL     1      36.415 -21.932 -15.411  0.00  0.00    -0.252 OA
ATOM      9  N   UNL     1      34.617 -23.091 -16.360  0.00  0.00    -0.268 N 
ATOM     10  N   UNL     1      35.517 -23.829 -14.368  0.00  0.00    -0.248 N 
ATOM     11  N   UNL     1      37.299 -23.138 -12.901  0.00  0.00    -0.222 NA
ATOM     12  C   UNL     1      35.607 -22.855 -15.374  0.00  0.00    +0.310 C 
ATOM     13  C   UNL     1      36.323 -23.928 -13.232  0.00  0.00    +0.167 C 
ATOM     14  C   UNL     1      37.230 -24.716 -11.173  0.00  0.00    +0.059 C 
ATOM     15  C   UNL     1      37.827 -23.592 -11.708  0.00  0.00    +0.108 C 
ATOM     16  H   UNL     1      34.036 -23.871 -16.203  0.00  0.00    +0.156 HD
ATOM     17  H   UNL     1      34.816 -24.512 -14.474  0.00  0.00    +0.158 HD
ENDBRANCH   4   9
BRANCH   1  18
ATOM     18  S   UNL     1      36.459 -20.339 -20.291  0.00  0.00    +0.063 S 
ATOM     19  O   UNL     1      37.347 -19.709 -19.338  0.00  0.00    -0.153 OA
ATOM     20  O   UNL     1      36.950 -21.319 -21.236  0.00  0.00    -0.153 OA
BRANCH  18  21
ATOM     21  N   UNL     1      35.604 -19.124 -21.144  0.00  0.00    -0.152 NA
ATOM     22  N   UNL     1      34.697 -17.084 -22.894  0.00  0.00    -0.290 N 
ATOM     23  C   UNL     1      36.173 -17.750 -21.043  0.00  0.00    +0.117 C 
ATOM     24  C   UNL     1      35.256 -19.455 -22.554  0.00  0.00    +0.117 C 
ATOM     25  C   UNL     1      35.147 -16.736 -21.540  0.00  0.00    +0.111 C 
ATOM     26  C   UNL     1      34.221 -18.462 -23.074  0.00  0.00    +0.111 C 
ATOM     27  N   UNL     1      33.524 -15.005 -23.104  0.00  0.00    -0.229 NA
ATOM     28  C   UNL     1      34.170 -16.060 -23.689  0.00  0.00    +0.132 C 
ATOM     29  C   UNL     1      34.321 -16.149 -25.079  0.00  0.00    +0.034 C 
ATOM     30  C   UNL     1      33.802 -15.139 -25.882  0.00  0.00    +0.004 C 
ATOM     31  C   UNL     1      33.034 -14.042 -23.916  0.00  0.00    +0.100 C 
ATOM     32  C   UNL     1      33.146 -14.062 -25.298  0.00  0.00    +0.021 C 
ENDBRANCH  18  21
ENDBRANCH   1  18
TORSDOF 3
ENDMDL
