MODEL 1
REMARK VINA RESULT:     -12.0      0.000      0.000
REMARK  Name = 49866474
REMARK  7 active torsions:
REMARK  status: ('A' for Active; 'I' for Inactive)
REMARK    1  A    between atoms: O_1  and  C_3
REMARK    2  A    between atoms: O_1  and  C_18
REMARK    3  A    between atoms: C_4  and  C_10
REMARK    4  A    between atoms: C_18  and  C_19
REMARK    5  A    between atoms: C_19  and  N_20
REMARK    6  A    between atoms: C_19  and  C_24
REMARK    7  A    between atoms: C_24  and  C_26
REMARK                            x       y       z     vdW  Elec       q    Type
REMARK                         _______ _______ _______ _____ _____    ______ ____
ROOT
ATOM      1  O   UNL     1      35.164 -15.317 -23.043  0.00  0.00    -0.476 OA
ENDROOT
BRANCH   1   3
ATOM      2  N   UNL     1      34.097 -18.516 -24.462  0.00  0.00    -0.239 NA
ATOM      3  C   UNL     1      34.882 -16.655 -23.132  0.00  0.00    +0.158 C 
ATOM      4  C   UNL     1      34.785 -18.858 -22.170  0.00  0.00    +0.022 C 
ATOM      5  C   UNL     1      35.079 -17.504 -22.049  0.00  0.00    +0.040 C 
ATOM      6  C   UNL     1      34.393 -17.206 -24.306  0.00  0.00    +0.136 C 
ATOM      7  C   UNL     1      34.301 -19.310 -23.386  0.00  0.00    +0.099 C 
BRANCH   4  10
ATOM      8  N   UNL     1      35.243 -22.371 -17.912  0.00  0.00    -0.236 N 
ATOM      9  N   UNL     1      33.977 -22.744 -17.661  0.00  0.00    -0.180 NA
ATOM     10  C   UNL     1      34.979 -19.764 -21.062  0.00  0.00    +0.002 C 
ATOM     11  C   UNL     1      34.078 -21.268 -19.406  0.00  0.00    +0.035 C 
ATOM     12  C   UNL     1      33.868 -20.391 -20.484  0.00  0.00    +0.003 C 
ATOM     13  C   UNL     1      35.373 -21.486 -18.948  0.00  0.00    +0.067 C 
ATOM     14  C   UNL     1      36.268 -20.001 -20.582  0.00  0.00    +0.001 C 
ATOM     15  C   UNL     1      36.493 -20.870 -19.510  0.00  0.00    +0.016 C 
ATOM     16  C   UNL     1      33.272 -22.071 -18.572  0.00  0.00    +0.119 C 
ATOM     17  H   UNL     1      36.012 -22.706 -17.396  0.00  0.00    +0.174 HD
ENDBRANCH   4  10
ENDBRANCH   1   3
BRANCH   1  18
ATOM     18  C   UNL     1      34.388 -14.558 -22.125  0.00  0.00    +0.184 C 
BRANCH  18  19
ATOM     19  C   UNL     1      33.566 -13.498 -22.866  0.00  0.00    -0.017 C 
BRANCH  19  20
ATOM     20  N   UNL     1      33.006 -14.112 -24.074  0.00  0.00    +0.384 N 
ATOM     21  H   UNL     1      32.033 -13.827 -24.181  0.00  0.00    -0.089 HD
ATOM     22  H   UNL     1      33.057 -15.127 -23.994  0.00  0.00    -0.089 HD
ATOM     23  H   UNL     1      33.541 -13.809 -24.888  0.00  0.00    -0.089 HD
ENDBRANCH  19  20
BRANCH  19  24
ATOM     24  C   UNL     1      32.411 -12.917 -22.014  0.00  0.00    +0.006 C 
BRANCH  24  26
ATOM     25  N   UNL     1      32.858  -9.312 -22.971  0.00  0.00    -0.234 NA
ATOM     26  C   UNL     1      32.260 -11.452 -22.100  0.00  0.00    -0.024 C 
ATOM     27  C   UNL     1      31.761 -10.527 -21.280  0.00  0.00    +0.065 C 
ATOM     28  C   UNL     1      31.927  -9.141 -21.837  0.00  0.00    +0.122 C 
ATOM     29  C   UNL     1      32.926 -10.605 -23.099  0.00  0.00    +0.072 C 
ATOM     30  C   UNL     1      31.266 -10.662 -19.934  0.00  0.00    -0.020 C 
ATOM     31  C   UNL     1      32.390  -8.172 -20.787  0.00  0.00    -0.004 C 
ATOM     32  C   UNL     1      31.428  -9.631 -19.084  0.00  0.00    -0.004 C 
ATOM     33  C   UNL     1      32.123  -8.416 -19.491  0.00  0.00    -0.003 C 
ENDBRANCH  24  26
ENDBRANCH  19  24
ENDBRANCH  18  19
ENDBRANCH   1  18
TORSDOF 7
ENDMDL
MODEL 2
REMARK VINA RESULT:     -11.9      5.277     10.901
REMARK  Name = 49866474
REMARK  7 active torsions:
REMARK  status: ('A' for Active; 'I' for Inactive)
REMARK    1  A    between atoms: O_1  and  C_3
REMARK    2  A    between atoms: O_1  and  C_18
REMARK    3  A    between atoms: C_4  and  C_10
REMARK    4  A    between atoms: C_18  and  C_19
REMARK    5  A    between atoms: C_19  and  N_20
REMARK    6  A    between atoms: C_19  and  C_24
REMARK    7  A    between atoms: C_24  and  C_26
REMARK                            x       y       z     vdW  Elec       q    Type
REMARK                         _______ _______ _______ _____ _____    ______ ____
ROOT
ATOM      1  O   UNL     1      36.013 -22.508 -17.928  0.00  0.00    -0.476 OA
ENDROOT
BRANCH   1   3
ATOM      2  N   UNL     1      32.689 -21.747 -19.255  0.00  0.00    -0.239 NA
ATOM      3  C   UNL     1      35.032 -21.915 -18.679  0.00  0.00    +0.158 C 
ATOM      4  C   UNL     1      34.320 -20.333 -20.346  0.00  0.00    +0.022 C 
ATOM      5  C   UNL     1      35.337 -20.917 -19.598  0.00  0.00    +0.040 C 
ATOM      6  C   UNL     1      33.704 -22.291 -18.547  0.00  0.00    +0.136 C 
ATOM      7  C   UNL     1      33.025 -20.779 -20.139  0.00  0.00    +0.099 C 
BRANCH   4  10
ATOM      8  N   UNL     1      35.242 -16.485 -24.222  0.00  0.00    -0.236 N 
ATOM      9  N   UNL     1      34.494 -16.887 -25.263  0.00  0.00    -0.180 NA
ATOM     10  C   UNL     1      34.606 -19.295 -21.308  0.00  0.00    +0.002 C 
ATOM     11  C   UNL     1      34.295 -18.323 -23.493  0.00  0.00    +0.035 C 
ATOM     12  C   UNL     1      34.002 -19.342 -22.571  0.00  0.00    +0.003 C 
ATOM     13  C   UNL     1      35.167 -17.304 -23.127  0.00  0.00    +0.067 C 
ATOM     14  C   UNL     1      35.477 -18.260 -20.967  0.00  0.00    +0.001 C 
ATOM     15  C   UNL     1      35.779 -17.238 -21.874  0.00  0.00    +0.016 C 
ATOM     16  C   UNL     1      33.919 -18.005 -24.815  0.00  0.00    +0.119 C 
ATOM     17  H   UNL     1      35.796 -15.672 -24.244  0.00  0.00    +0.174 HD
ENDBRANCH   4  10
ENDBRANCH   1   3
BRANCH   1  18
ATOM     18  C   UNL     1      36.267 -21.947 -16.647  0.00  0.00    +0.184 C 
BRANCH  18  19
ATOM     19  C   UNL     1      36.046 -22.995 -15.549  0.00  0.00    -0.017 C 
BRANCH  19  20
ATOM     20  N   UNL     1      35.900 -22.295 -14.269  0.00  0.00    +0.384 N 
ATOM     21  H   UNL     1      35.321 -22.853 -13.641  0.00  0.00    -0.089 HD
ATOM     22  H   UNL     1      35.459 -21.390 -14.425  0.00  0.00    -0.089 HD
ATOM     23  H   UNL     1      36.820 -22.157 -13.851  0.00  0.00    -0.089 HD
ENDBRANCH  19  20
BRANCH  19  24
ATOM     24  C   UNL     1      34.795 -23.874 -15.790  0.00  0.00    +0.006 C 
BRANCH  24  26
ATOM     25  N   UNL     1      32.914 -24.478 -12.595  0.00  0.00    -0.234 NA
ATOM     26  C   UNL     1      33.786 -23.815 -14.716  0.00  0.00    -0.024 C 
ATOM     27  C   UNL     1      32.504 -23.454 -14.674  0.00  0.00    +0.065 C 
ATOM     28  C   UNL     1      31.910 -23.663 -13.309  0.00  0.00    +0.122 C 
ATOM     29  C   UNL     1      33.937 -24.446 -13.398  0.00  0.00    +0.072 C 
ATOM     30  C   UNL     1      31.621 -23.070 -15.746  0.00  0.00    -0.020 C 
ATOM     31  C   UNL     1      30.542 -24.281 -13.387  0.00  0.00    -0.004 C 
ATOM     32  C   UNL     1      30.314 -23.375 -15.641  0.00  0.00    -0.004 C 
ATOM     33  C   UNL     1      29.797 -24.112 -14.496  0.00  0.00    -0.003 C 
ENDBRANCH  24  26
ENDBRANCH  19  24
ENDBRANCH  18  19
ENDBRANCH   1  18
TORSDOF 7
ENDMDL
MODEL 3
REMARK VINA RESULT:     -11.8      1.774      2.548
REMARK  Name = 49866474
REMARK  7 active torsions:
REMARK  status: ('A' for Active; 'I' for Inactive)
REMARK    1  A    between atoms: O_1  and  C_3
REMARK    2  A    between atoms: O_1  and  C_18
REMARK    3  A    between atoms: C_4  and  C_10
REMARK    4  A    between atoms: C_18  and  C_19
REMARK    5  A    between atoms: C_19  and  N_20
REMARK    6  A    between atoms: C_19  and  C_24
REMARK    7  A    between atoms: C_24  and  C_26
REMARK                            x       y       z     vdW  Elec       q    Type
REMARK                         _______ _______ _______ _____ _____    ______ ____
ROOT
ATOM      1  O   UNL     1      34.557 -14.585 -24.254  0.00  0.00    -0.476 OA
ENDROOT
BRANCH   1   3
ATOM      2  N   UNL     1      33.313 -17.935 -25.041  0.00  0.00    -0.239 NA
ATOM      3  C   UNL     1      34.335 -15.934 -24.148  0.00  0.00    +0.158 C 
ATOM      4  C   UNL     1      34.630 -18.036 -23.016  0.00  0.00    +0.022 C 
ATOM      5  C   UNL     1      34.871 -16.668 -23.097  0.00  0.00    +0.040 C 
ATOM      6  C   UNL     1      33.569 -16.608 -25.086  0.00  0.00    +0.136 C 
ATOM      7  C   UNL     1      33.852 -18.616 -24.005  0.00  0.00    +0.099 C 
BRANCH   4  10
ATOM      8  N   UNL     1      36.457 -21.188 -18.844  0.00  0.00    -0.236 N 
ATOM      9  N   UNL     1      35.385 -21.920 -18.497  0.00  0.00    -0.180 NA
ATOM     10  C   UNL     1      35.174 -18.826 -21.937  0.00  0.00    +0.002 C 
ATOM     11  C   UNL     1      34.900 -20.507 -20.230  0.00  0.00    +0.035 C 
ATOM     12  C   UNL     1      34.352 -19.750 -21.278  0.00  0.00    +0.003 C 
ATOM     13  C   UNL     1      36.232 -20.320 -19.878  0.00  0.00    +0.067 C 
ATOM     14  C   UNL     1      36.508 -18.658 -21.563  0.00  0.00    +0.001 C 
ATOM     15  C   UNL     1      37.068 -19.404 -20.521  0.00  0.00    +0.016 C 
ATOM     16  C   UNL     1      34.441 -21.504 -19.342  0.00  0.00    +0.119 C 
ATOM     17  H   UNL     1      37.328 -21.269 -18.394  0.00  0.00    +0.174 HD
ENDBRANCH   4  10
ENDBRANCH   1   3
BRANCH   1  18
ATOM     18  C   UNL     1      33.410 -13.753 -24.367  0.00  0.00    +0.184 C 
BRANCH  18  19
ATOM     19  C   UNL     1      33.461 -12.626 -23.330  0.00  0.00    -0.017 C 
BRANCH  19  20
ATOM     20  N   UNL     1      34.410 -13.010 -22.281  0.00  0.00    +0.384 N 
ATOM     21  H   UNL     1      34.264 -13.989 -22.031  0.00  0.00    -0.089 HD
ATOM     22  H   UNL     1      34.265 -12.424 -21.459  0.00  0.00    -0.089 HD
ATOM     23  H   UNL     1      35.363 -12.886 -22.623  0.00  0.00    -0.089 HD
ENDBRANCH  19  20
BRANCH  19  24
ATOM     24  C   UNL     1      33.894 -11.266 -23.930  0.00  0.00    +0.006 C 
BRANCH  24  26
ATOM     25  N   UNL     1      31.796  -8.822 -21.997  0.00  0.00    -0.234 NA
ATOM     26  C   UNL     1      33.451 -10.087 -23.163  0.00  0.00    -0.024 C 
ATOM     27  C   UNL     1      33.898  -8.836 -23.056  0.00  0.00    +0.065 C 
ATOM     28  C   UNL     1      33.011  -8.000 -22.177  0.00  0.00    +0.122 C 
ATOM     29  C   UNL     1      32.148  -9.972 -22.494  0.00  0.00    +0.072 C 
ATOM     30  C   UNL     1      34.965  -8.176 -23.765  0.00  0.00    -0.020 C 
ATOM     31  C   UNL     1      32.764  -6.640 -22.768  0.00  0.00    -0.004 C 
ATOM     32  C   UNL     1      34.850  -6.858 -24.015  0.00  0.00    -0.004 C 
ATOM     33  C   UNL     1      33.662  -6.113 -23.621  0.00  0.00    -0.003 C 
ENDBRANCH  24  26
ENDBRANCH  19  24
ENDBRANCH  18  19
ENDBRANCH   1  18
TORSDOF 7
ENDMDL
MODEL 4
REMARK VINA RESULT:     -11.8      5.214     11.823
REMARK  Name = 49866474
REMARK  7 active torsions:
REMARK  status: ('A' for Active; 'I' for Inactive)
REMARK    1  A    between atoms: O_1  and  C_3
REMARK    2  A    between atoms: O_1  and  C_18
REMARK    3  A    between atoms: C_4  and  C_10
REMARK    4  A    between atoms: C_18  and  C_19
REMARK    5  A    between atoms: C_19  and  N_20
REMARK    6  A    between atoms: C_19  and  C_24
REMARK    7  A    between atoms: C_24  and  C_26
REMARK                            x       y       z     vdW  Elec       q    Type
REMARK                         _______ _______ _______ _____ _____    ______ ____
ROOT
ATOM      1  O   UNL     1      36.240 -22.399 -17.949  0.00  0.00    -0.476 OA
ENDROOT
BRANCH   1   3
ATOM      2  N   UNL     1      32.871 -21.771 -19.231  0.00  0.00    -0.239 NA
ATOM      3  C   UNL     1      35.227 -21.848 -18.688  0.00  0.00    +0.158 C 
ATOM      4  C   UNL     1      34.431 -20.301 -20.350  0.00  0.00    +0.022 C 
ATOM      5  C   UNL     1      35.480 -20.843 -19.615  0.00  0.00    +0.040 C 
ATOM      6  C   UNL     1      33.917 -22.273 -18.536  0.00  0.00    +0.136 C 
ATOM      7  C   UNL     1      33.157 -20.795 -20.122  0.00  0.00    +0.099 C 
BRANCH   4  10
ATOM      8  N   UNL     1      35.155 -16.439 -24.254  0.00  0.00    -0.236 N 
ATOM      9  N   UNL     1      34.430 -16.888 -25.293  0.00  0.00    -0.180 NA
ATOM     10  C   UNL     1      34.663 -19.256 -21.319  0.00  0.00    +0.002 C 
ATOM     11  C   UNL     1      34.305 -18.319 -23.512  0.00  0.00    +0.035 C 
ATOM     12  C   UNL     1      34.065 -19.345 -22.583  0.00  0.00    +0.003 C 
ATOM     13  C   UNL     1      35.122 -17.252 -23.154  0.00  0.00    +0.067 C 
ATOM     14  C   UNL     1      35.478 -18.174 -20.986  0.00  0.00    +0.001 C 
ATOM     15  C   UNL     1      35.726 -17.145 -21.900  0.00  0.00    +0.016 C 
ATOM     16  C   UNL     1      33.915 -18.031 -24.838  0.00  0.00    +0.119 C 
ATOM     17  H   UNL     1      35.665 -15.598 -24.281  0.00  0.00    +0.174 HD
ENDBRANCH   4  10
ENDBRANCH   1   3
BRANCH   1  18
ATOM     18  C   UNL     1      36.821 -21.580 -16.944  0.00  0.00    +0.184 C 
BRANCH  18  19
ATOM     19  C   UNL     1      36.788 -22.292 -15.586  0.00  0.00    -0.017 C 
BRANCH  19  20
ATOM     20  N   UNL     1      35.480 -22.937 -15.438  0.00  0.00    +0.384 N 
ATOM     21  H   UNL     1      35.598 -23.848 -14.994  0.00  0.00    -0.089 HD
ATOM     22  H   UNL     1      35.054 -23.058 -16.356  0.00  0.00    -0.089 HD
ATOM     23  H   UNL     1      34.877 -22.353 -14.858  0.00  0.00    -0.089 HD
ENDBRANCH  19  20
BRANCH  19  24
ATOM     24  C   UNL     1      37.898 -23.360 -15.433  0.00  0.00    +0.006 C 
BRANCH  24  26
ATOM     25  N   UNL     1      36.940 -26.412 -13.463  0.00  0.00    -0.234 NA
ATOM     26  C   UNL     1      37.684 -24.316 -14.331  0.00  0.00    -0.024 C 
ATOM     27  C   UNL     1      37.560 -24.187 -13.010  0.00  0.00    +0.065 C 
ATOM     28  C   UNL     1      37.272 -25.504 -12.346  0.00  0.00    +0.122 C 
ATOM     29  C   UNL     1      37.267 -25.713 -14.511  0.00  0.00    +0.072 C 
ATOM     30  C   UNL     1      37.505 -22.995 -12.203  0.00  0.00    -0.020 C 
ATOM     31  C   UNL     1      36.198 -25.377 -11.302  0.00  0.00    -0.004 C 
ATOM     32  C   UNL     1      36.760 -23.013 -11.082  0.00  0.00    -0.004 C 
ATOM     33  C   UNL     1      35.990 -24.190 -10.703  0.00  0.00    -0.003 C 
ENDBRANCH  24  26
ENDBRANCH  19  24
ENDBRANCH  18  19
ENDBRANCH   1  18
TORSDOF 7
ENDMDL
MODEL 5
REMARK VINA RESULT:     -11.8      1.663      9.804
REMARK  Name = 49866474
REMARK  7 active torsions:
REMARK  status: ('A' for Active; 'I' for Inactive)
REMARK    1  A    between atoms: O_1  and  C_3
REMARK    2  A    between atoms: O_1  and  C_18
REMARK    3  A    between atoms: C_4  and  C_10
REMARK    4  A    between atoms: C_18  and  C_19
REMARK    5  A    between atoms: C_19  and  N_20
REMARK    6  A    between atoms: C_19  and  C_24
REMARK    7  A    between atoms: C_24  and  C_26
REMARK                            x       y       z     vdW  Elec       q    Type
REMARK                         _______ _______ _______ _____ _____    ______ ____
ROOT
ATOM      1  O   UNL     1      35.709 -17.205 -22.672  0.00  0.00    -0.476 OA
ENDROOT
BRANCH   1   3
ATOM      2  N   UNL     1      33.854 -15.891 -25.539  0.00  0.00    -0.239 NA
ATOM      3  C   UNL     1      34.966 -16.347 -23.441  0.00  0.00    +0.158 C 
ATOM      4  C   UNL     1      33.816 -14.258 -23.756  0.00  0.00    +0.022 C 
ATOM      5  C   UNL     1      34.571 -15.107 -22.953  0.00  0.00    +0.040 C 
ATOM      6  C   UNL     1      34.586 -16.688 -24.729  0.00  0.00    +0.136 C 
ATOM      7  C   UNL     1      33.487 -14.693 -25.029  0.00  0.00    +0.099 C 
BRANCH   4  10
ATOM      8  N   UNL     1      32.024  -9.429 -21.718  0.00  0.00    -0.236 N 
ATOM      9  N   UNL     1      31.233  -9.784 -20.691  0.00  0.00    -0.180 NA
ATOM     10  C   UNL     1      33.390 -12.964 -23.277  0.00  0.00    +0.002 C 
ATOM     11  C   UNL     1      32.122 -11.620 -21.728  0.00  0.00    +0.035 C 
ATOM     12  C   UNL     1      32.525 -12.888 -22.177  0.00  0.00    +0.003 C 
ATOM     13  C   UNL     1      32.588 -10.485 -22.382  0.00  0.00    +0.067 C 
ATOM     14  C   UNL     1      33.843 -11.808 -23.914  0.00  0.00    +0.001 C 
ATOM     15  C   UNL     1      33.450 -10.539 -23.479  0.00  0.00    +0.016 C 
ATOM     16  C   UNL     1      31.296 -11.116 -20.700  0.00  0.00    +0.119 C 
ATOM     17  H   UNL     1      32.184  -8.491 -21.970  0.00  0.00    +0.174 HD
ENDBRANCH   4  10
ENDBRANCH   1   3
BRANCH   1  18
ATOM     18  C   UNL     1      35.635 -18.586 -22.999  0.00  0.00    +0.184 C 
BRANCH  18  19
ATOM     19  C   UNL     1      35.888 -19.446 -21.755  0.00  0.00    -0.017 C 
BRANCH  19  20
ATOM     20  N   UNL     1      37.191 -19.072 -21.196  0.00  0.00    +0.384 N 
ATOM     21  H   UNL     1      37.547 -18.249 -21.682  0.00  0.00    -0.089 HD
ATOM     22  H   UNL     1      37.845 -19.845 -21.312  0.00  0.00    -0.089 HD
ATOM     23  H   UNL     1      37.087 -18.862 -20.203  0.00  0.00    -0.089 HD
ENDBRANCH  19  20
BRANCH  19  24
ATOM     24  C   UNL     1      34.802 -19.272 -20.664  0.00  0.00    +0.006 C 
BRANCH  24  26
ATOM     25  N   UNL     1      32.700 -21.992 -19.148  0.00  0.00    -0.234 NA
ATOM     26  C   UNL     1      34.372 -20.527 -20.020  0.00  0.00    -0.024 C 
ATOM     27  C   UNL     1      34.982 -21.419 -19.240  0.00  0.00    +0.065 C 
ATOM     28  C   UNL     1      34.040 -22.499 -18.787  0.00  0.00    +0.122 C 
ATOM     29  C   UNL     1      32.973 -20.956 -19.887  0.00  0.00    +0.072 C 
ATOM     30  C   UNL     1      36.306 -21.393 -18.673  0.00  0.00    -0.020 C 
ATOM     31  C   UNL     1      34.217 -22.815 -17.329  0.00  0.00    -0.004 C 
ATOM     32  C   UNL     1      36.501 -21.970 -17.473  0.00  0.00    -0.004 C 
ATOM     33  C   UNL     1      35.401 -22.574 -16.734  0.00  0.00    -0.003 C 
ENDBRANCH  24  26
ENDBRANCH  19  24
ENDBRANCH  18  19
ENDBRANCH   1  18
TORSDOF 7
ENDMDL
MODEL 6
REMARK VINA RESULT:     -11.8      1.666      9.868
REMARK  Name = 49866474
REMARK  7 active torsions:
REMARK  status: ('A' for Active; 'I' for Inactive)
REMARK    1  A    between atoms: O_1  and  C_3
REMARK    2  A    between atoms: O_1  and  C_18
REMARK    3  A    between atoms: C_4  and  C_10
REMARK    4  A    between atoms: C_18  and  C_19
REMARK    5  A    between atoms: C_19  and  N_20
REMARK    6  A    between atoms: C_19  and  C_24
REMARK    7  A    between atoms: C_24  and  C_26
REMARK                            x       y       z     vdW  Elec       q    Type
REMARK                         _______ _______ _______ _____ _____    ______ ____
ROOT
ATOM      1  O   UNL     1      35.471 -16.887 -23.239  0.00  0.00    -0.476 OA
ENDROOT
BRANCH   1   3
ATOM      2  N   UNL     1      33.539 -15.010 -25.715  0.00  0.00    -0.239 NA
ATOM      3  C   UNL     1      34.679 -15.909 -23.781  0.00  0.00    +0.158 C 
ATOM      4  C   UNL     1      33.409 -13.875 -23.584  0.00  0.00    +0.022 C 
ATOM      5  C   UNL     1      34.213 -14.853 -23.006  0.00  0.00    +0.040 C 
ATOM      6  C   UNL     1      34.317 -15.941 -25.118  0.00  0.00    +0.136 C 
ATOM      7  C   UNL     1      33.104 -13.999 -24.929  0.00  0.00    +0.099 C 
BRANCH   4  10
ATOM      8  N   UNL     1      31.611  -9.444 -20.789  0.00  0.00    -0.236 N 
ATOM      9  N   UNL     1      32.040  -8.402 -21.521  0.00  0.00    -0.180 NA
ATOM     10  C   UNL     1      32.910 -12.767 -22.805  0.00  0.00    +0.002 C 
ATOM     11  C   UNL     1      32.657 -10.393 -22.466  0.00  0.00    +0.035 C 
ATOM     12  C   UNL     1      33.150 -11.456 -23.239  0.00  0.00    +0.003 C 
ATOM     13  C   UNL     1      31.949 -10.667 -21.301  0.00  0.00    +0.067 C 
ATOM     14  C   UNL     1      32.196 -13.014 -21.632  0.00  0.00    +0.001 C 
ATOM     15  C   UNL     1      31.698 -11.965 -20.851  0.00  0.00    +0.016 C 
ATOM     16  C   UNL     1      32.675  -8.983 -22.540  0.00  0.00    +0.119 C 
ATOM     17  H   UNL     1      31.098  -9.337 -19.955  0.00  0.00    +0.174 HD
ENDBRANCH   4  10
ENDBRANCH   1   3
BRANCH   1  18
ATOM     18  C   UNL     1      34.972 -18.217 -23.289  0.00  0.00    +0.184 C 
BRANCH  18  19
ATOM     19  C   UNL     1      35.650 -19.084 -22.221  0.00  0.00    -0.017 C 
BRANCH  19  20
ATOM     20  N   UNL     1      37.055 -18.677 -22.123  0.00  0.00    +0.384 N 
ATOM     21  H   UNL     1      37.480 -19.115 -21.305  0.00  0.00    -0.089 HD
ATOM     22  H   UNL     1      37.109 -17.663 -22.032  0.00  0.00    -0.089 HD
ATOM     23  H   UNL     1      37.553 -18.971 -22.963  0.00  0.00    -0.089 HD
ENDBRANCH  19  20
BRANCH  19  24
ATOM     24  C   UNL     1      34.989 -18.959 -20.826  0.00  0.00    +0.006 C 
BRANCH  24  26
ATOM     25  N   UNL     1      32.680 -21.644 -19.573  0.00  0.00    -0.234 NA
ATOM     26  C   UNL     1      34.464 -20.224 -20.279  0.00  0.00    -0.024 C 
ATOM     27  C   UNL     1      34.989 -21.191 -19.527  0.00  0.00    +0.065 C 
ATOM     28  C   UNL     1      33.972 -22.243 -19.183  0.00  0.00    +0.122 C 
ATOM     29  C   UNL     1      33.040 -20.583 -20.236  0.00  0.00    +0.072 C 
ATOM     30  C   UNL     1      36.284 -21.268 -18.900  0.00  0.00    -0.020 C 
ATOM     31  C   UNL     1      34.062 -22.651 -17.739  0.00  0.00    -0.004 C 
ATOM     32  C   UNL     1      36.391 -21.923 -17.728  0.00  0.00    -0.004 C 
ATOM     33  C   UNL     1      35.226 -22.509 -17.078  0.00  0.00    -0.003 C 
ENDBRANCH  24  26
ENDBRANCH  19  24
ENDBRANCH  18  19
ENDBRANCH   1  18
TORSDOF 7
ENDMDL
MODEL 7
REMARK VINA RESULT:     -11.6      3.739     10.715
REMARK  Name = 49866474
REMARK  7 active torsions:
REMARK  status: ('A' for Active; 'I' for Inactive)
REMARK    1  A    between atoms: O_1  and  C_3
REMARK    2  A    between atoms: O_1  and  C_18
REMARK    3  A    between atoms: C_4  and  C_10
REMARK    4  A    between atoms: C_18  and  C_19
REMARK    5  A    between atoms: C_19  and  N_20
REMARK    6  A    between atoms: C_19  and  C_24
REMARK    7  A    between atoms: C_24  and  C_26
REMARK                            x       y       z     vdW  Elec       q    Type
REMARK                         _______ _______ _______ _____ _____    ______ ____
ROOT
ATOM      1  O   UNL     1      34.968 -21.720 -19.912  0.00  0.00    -0.476 OA
ENDROOT
BRANCH   1   3
ATOM      2  N   UNL     1      37.338 -18.955 -20.264  0.00  0.00    -0.239 NA
ATOM      3  C   UNL     1      35.524 -20.551 -20.362  0.00  0.00    +0.158 C 
ATOM      4  C   UNL     1      35.480 -18.602 -21.771  0.00  0.00    +0.022 C 
ATOM      5  C   UNL     1      34.891 -19.783 -21.333  0.00  0.00    +0.040 C 
ATOM      6  C   UNL     1      36.735 -20.097 -19.864  0.00  0.00    +0.136 C 
ATOM      7  C   UNL     1      36.692 -18.235 -21.211  0.00  0.00    +0.099 C 
BRANCH   4  10
ATOM      8  N   UNL     1      33.121 -15.231 -25.479  0.00  0.00    -0.236 N 
ATOM      9  N   UNL     1      33.323 -14.001 -24.975  0.00  0.00    -0.180 NA
ATOM     10  C   UNL     1      34.847 -17.784 -22.779  0.00  0.00    +0.002 C 
ATOM     11  C   UNL     1      34.214 -15.613 -23.618  0.00  0.00    +0.035 C 
ATOM     12  C   UNL     1      34.837 -16.391 -22.627  0.00  0.00    +0.003 C 
ATOM     13  C   UNL     1      33.631 -16.243 -24.712  0.00  0.00    +0.067 C 
ATOM     14  C   UNL     1      34.254 -18.389 -23.887  0.00  0.00    +0.001 C 
ATOM     15  C   UNL     1      33.631 -17.629 -24.882  0.00  0.00    +0.016 C 
ATOM     16  C   UNL     1      33.989 -14.239 -23.844  0.00  0.00    +0.119 C 
ATOM     17  H   UNL     1      32.647 -15.390 -26.327  0.00  0.00    +0.174 HD
ENDBRANCH   4  10
ENDBRANCH   1   3
BRANCH   1  18
ATOM     18  C   UNL     1      35.058 -21.978 -18.517  0.00  0.00    +0.184 C 
BRANCH  18  19
ATOM     19  C   UNL     1      33.659 -22.159 -17.915  0.00  0.00    -0.017 C 
BRANCH  19  20
ATOM     20  N   UNL     1      32.672 -21.971 -18.982  0.00  0.00    +0.384 N 
ATOM     21  H   UNL     1      32.855 -22.635 -19.736  0.00  0.00    -0.089 HD
ATOM     22  H   UNL     1      32.738 -21.020 -19.343  0.00  0.00    -0.089 HD
ATOM     23  H   UNL     1      31.735 -22.130 -18.610  0.00  0.00    -0.089 HD
ENDBRANCH  19  20
BRANCH  19  24
ATOM     24  C   UNL     1      33.449 -23.552 -17.272  0.00  0.00    +0.006 C 
BRANCH  24  26
ATOM     25  N   UNL     1      33.391 -23.969 -13.539  0.00  0.00    -0.234 NA
ATOM     26  C   UNL     1      33.036 -23.519 -15.856  0.00  0.00    -0.024 C 
ATOM     27  C   UNL     1      31.856 -23.436 -15.242  0.00  0.00    +0.065 C 
ATOM     28  C   UNL     1      31.998 -23.523 -13.748  0.00  0.00    +0.122 C 
ATOM     29  C   UNL     1      33.911 -23.863 -14.727  0.00  0.00    +0.072 C 
ATOM     30  C   UNL     1      30.527 -23.442 -15.798  0.00  0.00    -0.020 C 
ATOM     31  C   UNL     1      30.956 -24.420 -13.142  0.00  0.00    -0.004 C 
ATOM     32  C   UNL     1      29.533 -23.993 -15.078  0.00  0.00    -0.004 C 
ATOM     33  C   UNL     1      29.787 -24.609 -13.782  0.00  0.00    -0.003 C 
ENDBRANCH  24  26
ENDBRANCH  19  24
ENDBRANCH  18  19
ENDBRANCH   1  18
TORSDOF 7
ENDMDL
MODEL 8
REMARK VINA RESULT:     -11.5      3.456     11.626
REMARK  Name = 49866474
REMARK  7 active torsions:
REMARK  status: ('A' for Active; 'I' for Inactive)
REMARK    1  A    between atoms: O_1  and  C_3
REMARK    2  A    between atoms: O_1  and  C_18
REMARK    3  A    between atoms: C_4  and  C_10
REMARK    4  A    between atoms: C_18  and  C_19
REMARK    5  A    between atoms: C_19  and  N_20
REMARK    6  A    between atoms: C_19  and  C_24
REMARK    7  A    between atoms: C_24  and  C_26
REMARK                            x       y       z     vdW  Elec       q    Type
REMARK                         _______ _______ _______ _____ _____    ______ ____
ROOT
ATOM      1  O   UNL     1      31.363 -11.789 -21.508  0.00  0.00    -0.476 OA
ENDROOT
BRANCH   1   3
ATOM      2  N   UNL     1      32.104  -9.226 -19.004  0.00  0.00    -0.239 NA
ATOM      3  C   UNL     1      31.598 -10.555 -20.960  0.00  0.00    +0.158 C 
ATOM      4  C   UNL     1      31.822  -8.168 -21.160  0.00  0.00    +0.022 C 
ATOM      5  C   UNL     1      31.579  -9.407 -21.744  0.00  0.00    +0.040 C 
ATOM      6  C   UNL     1      31.862 -10.412 -19.607  0.00  0.00    +0.136 C 
ATOM      7  C   UNL     1      32.077  -8.132 -19.799  0.00  0.00    +0.099 C 
BRANCH   4  10
ATOM      8  N   UNL     1      31.975  -3.644 -24.353  0.00  0.00    -0.236 N 
ATOM      9  N   UNL     1      32.879  -3.946 -25.300  0.00  0.00    -0.180 NA
ATOM     10  C   UNL     1      31.809  -6.958 -21.948  0.00  0.00    +0.002 C 
ATOM     11  C   UNL     1      32.616  -5.673 -23.822  0.00  0.00    +0.035 C 
ATOM     12  C   UNL     1      32.642  -6.859 -23.071  0.00  0.00    +0.003 C 
ATOM     13  C   UNL     1      31.771  -4.639 -23.435  0.00  0.00    +0.067 C 
ATOM     14  C   UNL     1      30.971  -5.905 -21.582  0.00  0.00    +0.001 C 
ATOM     15  C   UNL     1      30.934  -4.717 -22.320  0.00  0.00    +0.016 C 
ATOM     16  C   UNL     1      33.266  -5.181 -24.974  0.00  0.00    +0.119 C 
ATOM     17  H   UNL     1      31.500  -2.783 -24.321  0.00  0.00    +0.174 HD
ENDBRANCH   4  10
ENDBRANCH   1   3
BRANCH   1  18
ATOM     18  C   UNL     1      32.345 -12.790 -21.278  0.00  0.00    +0.184 C 
BRANCH  18  19
ATOM     19  C   UNL     1      33.000 -13.211 -22.599  0.00  0.00    -0.017 C 
BRANCH  19  20
ATOM     20  N   UNL     1      33.462 -12.002 -23.288  0.00  0.00    +0.384 N 
ATOM     21  H   UNL     1      33.475 -11.221 -22.632  0.00  0.00    -0.089 HD
ATOM     22  H   UNL     1      32.831 -11.789 -24.059  0.00  0.00    -0.089 HD
ATOM     23  H   UNL     1      34.403 -12.157 -23.651  0.00  0.00    -0.089 HD
ENDBRANCH  19  20
BRANCH  19  24
ATOM     24  C   UNL     1      34.200 -14.171 -22.404  0.00  0.00    +0.006 C 
BRANCH  24  26
ATOM     25  N   UNL     1      33.509 -16.427 -25.327  0.00  0.00    -0.234 NA
ATOM     26  C   UNL     1      34.267 -15.276 -23.378  0.00  0.00    -0.024 C 
ATOM     27  C   UNL     1      34.759 -16.515 -23.334  0.00  0.00    +0.065 C 
ATOM     28  C   UNL     1      34.489 -17.266 -24.608  0.00  0.00    +0.122 C 
ATOM     29  C   UNL     1      33.504 -15.327 -24.632  0.00  0.00    +0.072 C 
ATOM     30  C   UNL     1      35.332 -17.238 -22.229  0.00  0.00    -0.020 C 
ATOM     31  C   UNL     1      34.032 -18.672 -24.338  0.00  0.00    -0.004 C 
ATOM     32  C   UNL     1      35.161 -18.572 -22.177  0.00  0.00    -0.004 C 
ATOM     33  C   UNL     1      34.381 -19.276 -23.187  0.00  0.00    -0.003 C 
ENDBRANCH  24  26
ENDBRANCH  19  24
ENDBRANCH  18  19
ENDBRANCH   1  18
TORSDOF 7
ENDMDL
MODEL 9
REMARK VINA RESULT:     -11.4      1.453      2.289
REMARK  Name = 49866474
REMARK  7 active torsions:
REMARK  status: ('A' for Active; 'I' for Inactive)
REMARK    1  A    between atoms: O_1  and  C_3
REMARK    2  A    between atoms: O_1  and  C_18
REMARK    3  A    between atoms: C_4  and  C_10
REMARK    4  A    between atoms: C_18  and  C_19
REMARK    5  A    between atoms: C_19  and  N_20
REMARK    6  A    between atoms: C_19  and  C_24
REMARK    7  A    between atoms: C_24  and  C_26
REMARK                            x       y       z     vdW  Elec       q    Type
REMARK                         _______ _______ _______ _____ _____    ______ ____
ROOT
ATOM      1  O   UNL     1      34.189 -13.414 -23.202  0.00  0.00    -0.476 OA
ENDROOT
BRANCH   1   3
ATOM      2  N   UNL     1      34.138 -16.427 -25.277  0.00  0.00    -0.239 NA
ATOM      3  C   UNL     1      34.311 -14.730 -23.562  0.00  0.00    +0.158 C 
ATOM      4  C   UNL     1      34.831 -17.020 -23.037  0.00  0.00    +0.022 C 
ATOM      5  C   UNL     1      34.715 -15.691 -22.642  0.00  0.00    +0.040 C 
ATOM      6  C   UNL     1      34.037 -15.147 -24.856  0.00  0.00    +0.136 C 
ATOM      7  C   UNL     1      34.534 -17.333 -24.353  0.00  0.00    +0.099 C 
BRANCH   4  10
ATOM      8  N   UNL     1      36.155 -21.014 -19.436  0.00  0.00    -0.236 N 
ATOM      9  N   UNL     1      34.980 -21.606 -19.160  0.00  0.00    -0.180 NA
ATOM     10  C   UNL     1      35.248 -18.040 -22.104  0.00  0.00    +0.002 C 
ATOM     11  C   UNL     1      34.717 -19.889 -20.650  0.00  0.00    +0.035 C 
ATOM     12  C   UNL     1      34.291 -18.905 -21.557  0.00  0.00    +0.003 C 
ATOM     13  C   UNL     1      36.066 -19.977 -20.323  0.00  0.00    +0.067 C 
ATOM     14  C   UNL     1      36.595 -18.150 -21.758  0.00  0.00    +0.001 C 
ATOM     15  C   UNL     1      37.035 -19.124 -20.857  0.00  0.00    +0.016 C 
ATOM     16  C   UNL     1      34.109 -20.919 -19.901  0.00  0.00    +0.119 C 
ATOM     17  H   UNL     1      37.006 -21.303 -19.034  0.00  0.00    +0.174 HD
ENDBRANCH   4  10
ENDBRANCH   1   3
BRANCH   1  18
ATOM     18  C   UNL     1      33.788 -12.505 -24.219  0.00  0.00    +0.184 C 
BRANCH  18  19
ATOM     19  C   UNL     1      34.148 -11.068 -23.826  0.00  0.00    -0.017 C 
BRANCH  19  20
ATOM     20  N   UNL     1      35.246 -10.618 -24.687  0.00  0.00    +0.384 N 
ATOM     21  H   UNL     1      36.011 -10.269 -24.108  0.00  0.00    -0.089 HD
ATOM     22  H   UNL     1      34.915  -9.873 -25.299  0.00  0.00    -0.089 HD
ATOM     23  H   UNL     1      35.578 -11.400 -25.251  0.00  0.00    -0.089 HD
ENDBRANCH  19  20
BRANCH  19  24
ATOM     24  C   UNL     1      32.961 -10.083 -23.966  0.00  0.00    +0.006 C 
BRANCH  24  26
ATOM     25  N   UNL     1      32.844  -7.732 -21.038  0.00  0.00    -0.234 NA
ATOM     26  C   UNL     1      32.569  -9.411 -22.713  0.00  0.00    -0.024 C 
ATOM     27  C   UNL     1      31.878  -9.793 -21.639  0.00  0.00    +0.065 C 
ATOM     28  C   UNL     1      31.837  -8.716 -20.591  0.00  0.00    +0.122 C 
ATOM     29  C   UNL     1      33.136  -8.141 -22.238  0.00  0.00    +0.072 C 
ATOM     30  C   UNL     1      31.340 -11.086 -21.303  0.00  0.00    -0.020 C 
ATOM     31  C   UNL     1      32.072  -9.271 -19.214  0.00  0.00    -0.004 C 
ATOM     32  C   UNL     1      31.279 -11.439 -20.006  0.00  0.00    -0.004 C 
ATOM     33  C   UNL     1      31.779 -10.560 -18.957  0.00  0.00    -0.003 C 
ENDBRANCH  24  26
ENDBRANCH  19  24
ENDBRANCH  18  19
ENDBRANCH   1  18
TORSDOF 7
ENDMDL
