MODEL 1
REMARK VINA RESULT:     -12.6      0.000      0.000
REMARK  Name = 5291
REMARK  6 active torsions:
REMARK  status: ('A' for Active; 'I' for Inactive)
REMARK    1  A    between atoms: C_1  and  N_23
REMARK    2  A    between atoms: C_2  and  N_8
REMARK    3  A    between atoms: C_12  and  C_17
REMARK    4  A    between atoms: C_24  and  C_31
REMARK    5  A    between atoms: C_26  and  C_32
REMARK    6  A    between atoms: C_32  and  N_33
REMARK                            x       y       z     vdW  Elec       q    Type
REMARK                         _______ _______ _______ _____ _____    ______ ____
ROOT
ATOM      1  C   UNL     1      32.661 -23.079 -15.951  0.00  0.00    +0.052 C 
ATOM      2  C   UNL     1      32.661 -23.820 -13.670  0.00  0.00    +0.055 C 
ATOM      3  C   UNL     1      33.251 -23.084 -14.697  0.00  0.00    +0.030 C 
ATOM      4  C   UNL     1      31.492 -24.541 -13.912  0.00  0.00    -0.008 C 
ATOM      5  C   UNL     1      31.501 -23.789 -16.207  0.00  0.00    +0.014 C 
ATOM      6  C   UNL     1      30.913 -24.527 -15.179  0.00  0.00    -0.002 C 
ATOM      7  C   UNL     1      30.840 -25.340 -12.830  0.00  0.00    +0.032 C 
ENDROOT
BRANCH   2   8
ATOM      8  N   UNL     1      33.261 -23.824 -12.391  0.00  0.00    -0.248 N 
ATOM      9  N   UNL     1      35.524 -24.133 -12.929  0.00  0.00    -0.337 NA
ATOM     10  N   UNL     1      34.815 -23.920 -10.636  0.00  0.00    -0.170 NA
ATOM     11  C   UNL     1      34.594 -23.965 -11.966  0.00  0.00    +0.149 C 
ATOM     12  C   UNL     1      36.792 -24.266 -12.487  0.00  0.00    +0.147 C 
ATOM     13  C   UNL     1      37.145 -24.237 -11.153  0.00  0.00    +0.055 C 
ATOM     14  C   UNL     1      36.105 -24.060 -10.264  0.00  0.00    +0.114 C 
ATOM     15  H   UNL     1      32.620 -23.703 -11.653  0.00  0.00    +0.165 HD
BRANCH  12  17
ATOM     16  N   UNL     1      38.767 -23.685 -15.594  0.00  0.00    -0.242 NA
ATOM     17  C   UNL     1      37.785 -24.444 -13.518  0.00  0.00    +0.050 C 
ATOM     18  C   UNL     1      38.698 -25.493 -13.463  0.00  0.00    +0.006 C 
ATOM     19  C   UNL     1      37.862 -23.576 -14.595  0.00  0.00    +0.101 C 
ATOM     20  C   UNL     1      39.643 -25.638 -14.471  0.00  0.00    +0.021 C 
ATOM     21  C   UNL     1      39.636 -24.716 -15.505  0.00  0.00    +0.099 C 
ENDBRANCH  12  17
ENDBRANCH   2   8
BRANCH   1  23
ATOM     22  O   UNL     1      33.691 -23.962 -18.625  0.00  0.00    -0.270 OA
ATOM     23  N   UNL     1      33.259 -22.331 -16.993  0.00  0.00    -0.280 N 
ATOM     24  C   UNL     1      33.729 -22.783 -18.235  0.00  0.00    +0.249 C 
ATOM     25  H   UNL     1      33.358 -21.366 -16.825  0.00  0.00    +0.155 HD
BRANCH  24  31
ATOM     26  C   UNL     1      35.460 -19.843 -20.734  0.00  0.00    -0.043 C 
ATOM     27  C   UNL     1      36.283 -20.679 -19.993  0.00  0.00    -0.006 C 
ATOM     28  C   UNL     1      34.079 -19.957 -20.669  0.00  0.00    -0.006 C 
ATOM     29  C   UNL     1      35.712 -21.649 -19.169  0.00  0.00    +0.004 C 
ATOM     30  C   UNL     1      33.508 -20.927 -19.845  0.00  0.00    +0.004 C 
ATOM     31  C   UNL     1      34.324 -21.773 -19.096  0.00  0.00    +0.054 C 
BRANCH  26  32
ATOM     32  C   UNL     1      36.076 -18.796 -21.624  0.00  0.00    -0.050 C 
BRANCH  32  33
ATOM     33  N   UNL     1      35.067 -18.093 -22.417  0.00  0.00    +0.387 N 
ATOM     34  N   UNL     1      34.199 -16.567 -24.713  0.00  0.00    +0.383 N 
ATOM     35  C   UNL     1      34.908 -18.722 -23.734  0.00  0.00    -0.100 C 
ATOM     36  C   UNL     1      35.415 -16.676 -22.564  0.00  0.00    -0.100 C 
ATOM     37  C   UNL     1      33.852 -17.986 -24.565  0.00  0.00    -0.101 C 
ATOM     38  C   UNL     1      34.361 -15.938 -23.396  0.00  0.00    -0.101 C 
ATOM     39  C   UNL     1      33.190 -15.866 -25.503  0.00  0.00    -0.101 C 
ATOM     40  H   UNL     1      34.179 -18.157 -21.920  0.00  0.00    -0.079 HD
ATOM     41  H   UNL     1      35.087 -16.504 -25.210  0.00  0.00    -0.080 HD
ENDBRANCH  32  33
ENDBRANCH  26  32
ENDBRANCH  24  31
ENDBRANCH   1  23
TORSDOF 6
ENDMDL
MODEL 2
REMARK VINA RESULT:     -12.5      0.711      1.326
REMARK  Name = 5291
REMARK  6 active torsions:
REMARK  status: ('A' for Active; 'I' for Inactive)
REMARK    1  A    between atoms: C_1  and  N_23
REMARK    2  A    between atoms: C_2  and  N_8
REMARK    3  A    between atoms: C_12  and  C_17
REMARK    4  A    between atoms: C_24  and  C_31
REMARK    5  A    between atoms: C_26  and  C_32
REMARK    6  A    between atoms: C_32  and  N_33
REMARK                            x       y       z     vdW  Elec       q    Type
REMARK                         _______ _______ _______ _____ _____    ______ ____
ROOT
ATOM      1  C   UNL     1      32.102 -23.065 -16.062  0.00  0.00    +0.052 C 
ATOM      2  C   UNL     1      32.098 -24.081 -13.891  0.00  0.00    +0.055 C 
ATOM      3  C   UNL     1      32.766 -23.371 -14.886  0.00  0.00    +0.030 C 
ATOM      4  C   UNL     1      30.774 -24.477 -14.086  0.00  0.00    -0.008 C 
ATOM      5  C   UNL     1      30.789 -23.450 -16.272  0.00  0.00    +0.014 C 
ATOM      6  C   UNL     1      30.120 -24.162 -15.276  0.00  0.00    -0.002 C 
ATOM      7  C   UNL     1      30.033 -25.241 -13.036  0.00  0.00    +0.032 C 
ENDROOT
BRANCH   2   8
ATOM      8  N   UNL     1      32.774 -24.393 -12.690  0.00  0.00    -0.248 N 
ATOM      9  N   UNL     1      35.018 -24.137 -13.331  0.00  0.00    -0.337 NA
ATOM     10  N   UNL     1      34.438 -24.783 -11.083  0.00  0.00    -0.170 NA
ATOM     11  C   UNL     1      34.139 -24.440 -12.352  0.00  0.00    +0.149 C 
ATOM     12  C   UNL     1      36.317 -24.193 -12.973  0.00  0.00    +0.147 C 
ATOM     13  C   UNL     1      36.749 -24.531 -11.706  0.00  0.00    +0.055 C 
ATOM     14  C   UNL     1      35.756 -24.820 -10.793  0.00  0.00    +0.114 C 
ATOM     15  H   UNL     1      32.173 -24.619 -11.945  0.00  0.00    +0.165 HD
BRANCH  12  17
ATOM     16  N   UNL     1      39.403 -24.258 -15.062  0.00  0.00    -0.242 NA
ATOM     17  C   UNL     1      37.255 -23.869 -14.020  0.00  0.00    +0.050 C 
ATOM     18  C   UNL     1      36.961 -22.900 -14.973  0.00  0.00    +0.006 C 
ATOM     19  C   UNL     1      38.479 -24.513 -14.108  0.00  0.00    +0.101 C 
ATOM     20  C   UNL     1      37.885 -22.609 -15.970  0.00  0.00    +0.021 C 
ATOM     21  C   UNL     1      39.080 -23.310 -15.970  0.00  0.00    +0.099 C 
ENDBRANCH  12  17
ENDBRANCH   2   8
BRANCH   1  23
ATOM     22  O   UNL     1      33.622 -24.042 -18.455  0.00  0.00    -0.270 OA
ATOM     23  N   UNL     1      32.781 -22.342 -17.073  0.00  0.00    -0.280 N 
ATOM     24  C   UNL     1      33.483 -22.839 -18.181  0.00  0.00    +0.249 C 
ATOM     25  H   UNL     1      32.757 -21.362 -16.987  0.00  0.00    +0.155 HD
BRANCH  24  31
ATOM     26  C   UNL     1      35.290 -19.943 -20.678  0.00  0.00    -0.043 C 
ATOM     27  C   UNL     1      33.906 -20.037 -20.632  0.00  0.00    -0.006 C 
ATOM     28  C   UNL     1      36.090 -20.784 -19.917  0.00  0.00    -0.006 C 
ATOM     29  C   UNL     1      33.311 -20.992 -19.808  0.00  0.00    +0.004 C 
ATOM     30  C   UNL     1      35.494 -21.739 -19.093  0.00  0.00    +0.004 C 
ATOM     31  C   UNL     1      34.105 -21.843 -19.038  0.00  0.00    +0.054 C 
BRANCH  26  32
ATOM     32  C   UNL     1      35.934 -18.912 -21.566  0.00  0.00    -0.050 C 
BRANCH  32  33
ATOM     33  N   UNL     1      34.948 -18.204 -22.382  0.00  0.00    +0.387 N 
ATOM     34  N   UNL     1      34.137 -16.696 -24.712  0.00  0.00    +0.383 N 
ATOM     35  C   UNL     1      34.797 -18.849 -23.692  0.00  0.00    -0.100 C 
ATOM     36  C   UNL     1      35.322 -16.794 -22.545  0.00  0.00    -0.100 C 
ATOM     37  C   UNL     1      33.765 -18.106 -24.548  0.00  0.00    -0.101 C 
ATOM     38  C   UNL     1      34.291 -16.051 -23.401  0.00  0.00    -0.101 C 
ATOM     39  C   UNL     1      33.151 -15.990 -25.526  0.00  0.00    -0.101 C 
ATOM     40  H   UNL     1      34.052 -18.245 -21.898  0.00  0.00    -0.079 HD
ATOM     41  H   UNL     1      35.033 -16.654 -25.197  0.00  0.00    -0.080 HD
ENDBRANCH  32  33
ENDBRANCH  26  32
ENDBRANCH  24  31
ENDBRANCH   1  23
TORSDOF 6
ENDMDL
MODEL 3
REMARK VINA RESULT:     -10.3      3.030      5.959
REMARK  Name = 5291
REMARK  6 active torsions:
REMARK  status: ('A' for Active; 'I' for Inactive)
REMARK    1  A    between atoms: C_1  and  N_23
REMARK    2  A    between atoms: C_2  and  N_8
REMARK    3  A    between atoms: C_12  and  C_17
REMARK    4  A    between atoms: C_24  and  C_31
REMARK    5  A    between atoms: C_26  and  C_32
REMARK    6  A    between atoms: C_32  and  N_33
REMARK                            x       y       z     vdW  Elec       q    Type
REMARK                         _______ _______ _______ _____ _____    ______ ____
ROOT
ATOM      1  C   UNL     1      34.190 -20.305 -20.173  0.00  0.00    +0.052 C 
ATOM      2  C   UNL     1      33.025 -21.856 -18.764  0.00  0.00    +0.055 C 
ATOM      3  C   UNL     1      33.049 -20.654 -19.470  0.00  0.00    +0.030 C 
ATOM      4  C   UNL     1      34.143 -22.692 -18.770  0.00  0.00    -0.008 C 
ATOM      5  C   UNL     1      35.307 -21.122 -20.190  0.00  0.00    +0.014 C 
ATOM      6  C   UNL     1      35.284 -22.324 -19.483  0.00  0.00    -0.002 C 
ATOM      7  C   UNL     1      34.145 -23.985 -18.021  0.00  0.00    +0.032 C 
ENDROOT
BRANCH   2   8
ATOM      8  N   UNL     1      31.862 -22.214 -18.047  0.00  0.00    -0.248 N 
ATOM      9  N   UNL     1      32.765 -22.918 -15.998  0.00  0.00    -0.337 NA
ATOM     10  N   UNL     1      30.386 -22.954 -16.380  0.00  0.00    -0.170 NA
ATOM     11  C   UNL     1      31.661 -22.718 -16.749  0.00  0.00    +0.149 C 
ATOM     12  C   UNL     1      32.537 -23.402 -14.760  0.00  0.00    +0.147 C 
ATOM     13  C   UNL     1      31.279 -23.683 -14.267  0.00  0.00    +0.055 C 
ATOM     14  C   UNL     1      30.230 -23.438 -15.129  0.00  0.00    +0.114 C 
ATOM     15  H   UNL     1      31.028 -22.085 -18.555  0.00  0.00    +0.165 HD
BRANCH  12  17
ATOM     16  N   UNL     1      34.702 -24.448 -11.913  0.00  0.00    -0.242 NA
ATOM     17  C   UNL     1      33.717 -23.614 -13.958  0.00  0.00    +0.050 C 
ATOM     18  C   UNL     1      34.972 -23.218 -14.409  0.00  0.00    +0.006 C 
ATOM     19  C   UNL     1      33.638 -24.220 -12.714  0.00  0.00    +0.101 C 
ATOM     20  C   UNL     1      36.091 -23.435 -13.613  0.00  0.00    +0.021 C 
ATOM     21  C   UNL     1      35.905 -24.049 -12.385  0.00  0.00    +0.099 C 
ENDBRANCH  12  17
ENDBRANCH   2   8
BRANCH   1  23
ATOM     22  O   UNL     1      36.374 -18.271 -20.464  0.00  0.00    -0.270 OA
ATOM     23  N   UNL     1      34.215 -19.085 -20.891  0.00  0.00    -0.280 N 
ATOM     24  C   UNL     1      35.261 -18.158 -21.002  0.00  0.00    +0.249 C 
ATOM     25  H   UNL     1      33.388 -18.858 -21.376  0.00  0.00    +0.155 HD
BRANCH  24  31
ATOM     26  C   UNL     1      34.430 -14.710 -23.307  0.00  0.00    -0.043 C 
ATOM     27  C   UNL     1      34.378 -14.635 -21.923  0.00  0.00    -0.006 C 
ATOM     28  C   UNL     1      34.751 -15.899 -23.947  0.00  0.00    -0.006 C 
ATOM     29  C   UNL     1      34.653 -15.771 -21.163  0.00  0.00    +0.004 C 
ATOM     30  C   UNL     1      35.025 -17.036 -23.188  0.00  0.00    +0.004 C 
ATOM     31  C   UNL     1      34.977 -16.972 -21.795  0.00  0.00    +0.054 C 
BRANCH  26  32
ATOM     32  C   UNL     1      34.135 -13.483 -24.129  0.00  0.00    -0.050 C 
BRANCH  32  33
ATOM     33  N   UNL     1      33.868 -12.316 -23.288  0.00  0.00    +0.387 N 
ATOM     34  N   UNL     1      32.365  -9.958 -22.556  0.00  0.00    +0.383 N 
ATOM     35  C   UNL     1      32.548 -12.421 -22.656  0.00  0.00    -0.100 C 
ATOM     36  C   UNL     1      33.966 -11.078 -24.070  0.00  0.00    -0.100 C 
ATOM     37  C   UNL     1      32.267 -11.197 -21.776  0.00  0.00    -0.101 C 
ATOM     38  C   UNL     1      33.685  -9.854 -23.192  0.00  0.00    -0.101 C 
ATOM     39  C   UNL     1      32.100  -8.793 -21.716  0.00  0.00    -0.101 C 
ATOM     40  H   UNL     1      34.575 -12.290 -22.554  0.00  0.00    -0.079 HD
ATOM     41  H   UNL     1      31.658  -9.984 -23.291  0.00  0.00    -0.080 HD
ENDBRANCH  32  33
ENDBRANCH  26  32
ENDBRANCH  24  31
ENDBRANCH   1  23
TORSDOF 6
ENDMDL
