MODEL 1
REMARK VINA RESULT:     -12.5      0.000      0.000
REMARK  Name = 11955716
REMARK  6 active torsions:
REMARK  status: ('A' for Active; 'I' for Inactive)
REMARK    1  A    between atoms: C_4  and  C_25
REMARK    2  A    between atoms: C_11  and  C_12
REMARK    3  A    between atoms: C_13  and  C_18
REMARK    4  A    between atoms: C_15  and  O_21
REMARK    5  A    between atoms: C_16  and  O_23
REMARK    6  A    between atoms: C_25  and  N_26
REMARK                            x       y       z     vdW  Elec       q    Type
REMARK                         _______ _______ _______ _____ _____    ______ ____
ROOT
ATOM      1  O   UNL     1      35.455 -23.825 -15.421  0.00  0.00    -0.269 OA
ATOM      2  N   UNL     1      34.318 -22.749 -17.141  0.00  0.00    -0.231 N 
ATOM      3  C   UNL     1      34.980 -21.458 -18.962  0.00  0.00    +0.016 C 
ATOM      4  C   UNL     1      34.943 -20.073 -20.902  0.00  0.00    -0.043 C 
ATOM      5  C   UNL     1      33.579 -21.488 -18.955  0.00  0.00    +0.016 C 
ATOM      6  C   UNL     1      35.521 -22.260 -17.825  0.00  0.00    +0.072 C 
ATOM      7  C   UNL     1      33.082 -22.317 -17.817  0.00  0.00    +0.072 C 
ATOM      8  C   UNL     1      35.675 -20.756 -19.928  0.00  0.00    -0.005 C 
ATOM      9  C   UNL     1      33.538 -20.103 -20.896  0.00  0.00    -0.006 C 
ATOM     10  C   UNL     1      32.845 -20.816 -19.916  0.00  0.00    +0.001 C 
ATOM     11  C   UNL     1      34.409 -23.478 -15.963  0.00  0.00    +0.259 C 
ENDROOT
BRANCH  11  12
ATOM     12  C   UNL     1      33.149 -23.850 -15.305  0.00  0.00    +0.088 C 
ATOM     13  C   UNL     1      30.738 -23.769 -15.251  0.00  0.00    +0.012 C 
ATOM     14  C   UNL     1      31.945 -23.427 -15.862  0.00  0.00    +0.006 C 
ATOM     15  C   UNL     1      33.153 -24.614 -14.141  0.00  0.00    +0.141 C 
ATOM     16  C   UNL     1      30.739 -24.535 -14.085  0.00  0.00    +0.133 C 
ATOM     17  C   UNL     1      31.947 -24.957 -13.530  0.00  0.00    +0.073 C 
BRANCH  13  18
ATOM     18  C   UNL     1      29.454 -23.309 -15.860  0.00  0.00    +0.025 C 
ATOM     19  C   UNL     1      28.679 -22.349 -14.939  0.00  0.00    +0.005 C 
ATOM     20  C   UNL     1      28.548 -24.482 -16.277  0.00  0.00    +0.005 C 
ENDBRANCH  13  18
BRANCH  15  21
ATOM     21  O   UNL     1      34.323 -25.035 -13.582  0.00  0.00    -0.505 OA
ATOM     22  H   UNL     1      34.517 -24.828 -12.689  0.00  0.00    +0.292 HD
ENDBRANCH  15  21
BRANCH  16  23
ATOM     23  O   UNL     1      29.570 -24.877 -13.476  0.00  0.00    -0.506 OA
ATOM     24  H   UNL     1      29.316 -25.777 -13.420  0.00  0.00    +0.292 HD
ENDBRANCH  16  23
ENDBRANCH  11  12
BRANCH   4  25
ATOM     25  C   UNL     1      35.661 -19.298 -21.964  0.00  0.00    -0.050 C 
BRANCH  25  26
ATOM     26  N   UNL     1      34.772 -18.366 -22.653  0.00  0.00    +0.387 N 
ATOM     27  N   UNL     1      34.129 -16.512 -24.776  0.00  0.00    +0.383 N 
ATOM     28  C   UNL     1      35.357 -17.021 -22.693  0.00  0.00    -0.100 C 
ATOM     29  C   UNL     1      34.477 -18.836 -24.013  0.00  0.00    -0.100 C 
ATOM     30  C   UNL     1      34.427 -16.043 -23.418  0.00  0.00    -0.101 C 
ATOM     31  C   UNL     1      33.545 -17.859 -24.737  0.00  0.00    -0.101 C 
ATOM     32  C   UNL     1      33.238 -15.581 -25.465  0.00  0.00    -0.101 C 
ATOM     33  H   UNL     1      33.897 -18.322 -22.132  0.00  0.00    -0.079 HD
ATOM     34  H   UNL     1      35.004 -16.557 -25.300  0.00  0.00    -0.080 HD
ENDBRANCH  25  26
ENDBRANCH   4  25
TORSDOF 6
ENDMDL
MODEL 2
REMARK VINA RESULT:     -12.1      1.628      2.317
REMARK  Name = 11955716
REMARK  6 active torsions:
REMARK  status: ('A' for Active; 'I' for Inactive)
REMARK    1  A    between atoms: C_4  and  C_25
REMARK    2  A    between atoms: C_11  and  C_12
REMARK    3  A    between atoms: C_13  and  C_18
REMARK    4  A    between atoms: C_15  and  O_21
REMARK    5  A    between atoms: C_16  and  O_23
REMARK    6  A    between atoms: C_25  and  N_26
REMARK                            x       y       z     vdW  Elec       q    Type
REMARK                         _______ _______ _______ _____ _____    ______ ____
ROOT
ATOM      1  O   UNL     1      37.705 -22.606 -16.047  0.00  0.00    -0.269 OA
ATOM      2  N   UNL     1      35.999 -22.055 -17.527  0.00  0.00    -0.231 N 
ATOM      3  C   UNL     1      35.903 -20.842 -19.511  0.00  0.00    +0.016 C 
ATOM      4  C   UNL     1      35.101 -19.732 -21.464  0.00  0.00    -0.043 C 
ATOM      5  C   UNL     1      34.595 -21.234 -19.196  0.00  0.00    +0.016 C 
ATOM      6  C   UNL     1      36.858 -21.347 -18.483  0.00  0.00    +0.072 C 
ATOM      7  C   UNL     1      34.582 -22.034 -17.936  0.00  0.00    +0.072 C 
ATOM      8  C   UNL     1      36.171 -20.091 -20.641  0.00  0.00    -0.005 C 
ATOM      9  C   UNL     1      33.789 -20.125 -21.148  0.00  0.00    -0.006 C 
ATOM     10  C   UNL     1      33.529 -20.883 -20.005  0.00  0.00    +0.001 C 
ATOM     11  C   UNL     1      36.518 -22.603 -16.363  0.00  0.00    +0.259 C 
ENDROOT
BRANCH  11  12
ATOM     12  C   UNL     1      35.567 -23.216 -15.425  0.00  0.00    +0.088 C 
ATOM     13  C   UNL     1      33.282 -23.663 -14.791  0.00  0.00    +0.012 C 
ATOM     14  C   UNL     1      34.201 -23.089 -15.669  0.00  0.00    +0.006 C 
ATOM     15  C   UNL     1      36.018 -23.915 -14.309  0.00  0.00    +0.141 C 
ATOM     16  C   UNL     1      33.732 -24.364 -13.671  0.00  0.00    +0.133 C 
ATOM     17  C   UNL     1      35.100 -24.490 -13.430  0.00  0.00    +0.073 C 
BRANCH  13  18
ATOM     18  C   UNL     1      31.821 -23.519 -15.064  0.00  0.00    +0.025 C 
ATOM     19  C   UNL     1      31.540 -22.928 -16.457  0.00  0.00    +0.005 C 
ATOM     20  C   UNL     1      31.101 -22.688 -13.986  0.00  0.00    +0.005 C 
ENDBRANCH  13  18
BRANCH  15  21
ATOM     21  O   UNL     1      37.351 -24.048 -14.056  0.00  0.00    -0.505 OA
ATOM     22  H   UNL     1      37.643 -24.613 -13.369  0.00  0.00    +0.292 HD
ENDBRANCH  15  21
BRANCH  16  23
ATOM     23  O   UNL     1      32.848 -24.931 -12.803  0.00  0.00    -0.506 OA
ATOM     24  H   UNL     1      32.824 -24.651 -11.909  0.00  0.00    +0.292 HD
ENDBRANCH  16  23
ENDBRANCH  11  12
BRANCH   4  25
ATOM     25  C   UNL     1      35.352 -18.917 -22.695  0.00  0.00    -0.050 C 
BRANCH  25  26
ATOM     26  N   UNL     1      34.669 -17.626 -22.642  0.00  0.00    +0.387 N 
ATOM     27  N   UNL     1      34.588 -14.745 -22.861  0.00  0.00    +0.383 N 
ATOM     28  C   UNL     1      35.261 -16.767 -21.609  0.00  0.00    -0.100 C 
ATOM     29  C   UNL     1      34.712 -16.959 -23.949  0.00  0.00    -0.100 C 
ATOM     30  C   UNL     1      34.548 -15.411 -21.554  0.00  0.00    -0.101 C 
ATOM     31  C   UNL     1      33.998 -15.605 -23.894  0.00  0.00    -0.101 C 
ATOM     32  C   UNL     1      33.904 -13.454 -22.808  0.00  0.00    -0.101 C 
ATOM     33  H   UNL     1      33.693 -17.795 -22.400  0.00  0.00    -0.079 HD
ATOM     34  H   UNL     1      35.565 -14.574 -23.105  0.00  0.00    -0.080 HD
ENDBRANCH  25  26
ENDBRANCH   4  25
TORSDOF 6
ENDMDL
MODEL 3
REMARK VINA RESULT:     -12.1      4.142     10.020
REMARK  Name = 11955716
REMARK  6 active torsions:
REMARK  status: ('A' for Active; 'I' for Inactive)
REMARK    1  A    between atoms: C_4  and  C_25
REMARK    2  A    between atoms: C_11  and  C_12
REMARK    3  A    between atoms: C_13  and  C_18
REMARK    4  A    between atoms: C_15  and  O_21
REMARK    5  A    between atoms: C_16  and  O_23
REMARK    6  A    between atoms: C_25  and  N_26
REMARK                            x       y       z     vdW  Elec       q    Type
REMARK                         _______ _______ _______ _____ _____    ______ ____
ROOT
ATOM      1  O   UNL     1      37.464 -18.765 -21.845  0.00  0.00    -0.269 OA
ATOM      2  N   UNL     1      35.579 -19.655 -20.815  0.00  0.00    -0.231 N 
ATOM      3  C   UNL     1      35.238 -21.275 -19.179  0.00  0.00    +0.016 C 
ATOM      4  C   UNL     1      34.200 -22.799 -17.666  0.00  0.00    -0.043 C 
ATOM      5  C   UNL     1      33.977 -20.845 -19.612  0.00  0.00    +0.016 C 
ATOM      6  C   UNL     1      36.315 -20.541 -19.906  0.00  0.00    +0.072 C 
ATOM      7  C   UNL     1      34.119 -19.788 -20.657  0.00  0.00    +0.072 C 
ATOM      8  C   UNL     1      35.365 -22.250 -18.207  0.00  0.00    -0.005 C 
ATOM      9  C   UNL     1      32.935 -22.367 -18.100  0.00  0.00    -0.006 C 
ATOM     10  C   UNL     1      32.817 -21.382 -19.082  0.00  0.00    +0.001 C 
ATOM     11  C   UNL     1      36.244 -18.857 -21.735  0.00  0.00    +0.259 C 
ENDROOT
BRANCH  11  12
ATOM     12  C   UNL     1      35.420 -18.069 -22.662  0.00  0.00    +0.088 C 
ATOM     13  C   UNL     1      34.485 -15.939 -23.302  0.00  0.00    +0.012 C 
ATOM     14  C   UNL     1      35.264 -16.704 -22.434  0.00  0.00    +0.006 C 
ATOM     15  C   UNL     1      34.802 -18.673 -23.754  0.00  0.00    +0.141 C 
ATOM     16  C   UNL     1      33.865 -16.541 -24.397  0.00  0.00    +0.133 C 
ATOM     17  C   UNL     1      34.023 -17.908 -24.623  0.00  0.00    +0.073 C 
BRANCH  13  18
ATOM     18  C   UNL     1      34.326 -14.476 -23.045  0.00  0.00    +0.025 C 
ATOM     19  C   UNL     1      34.298 -14.143 -21.543  0.00  0.00    +0.005 C 
ATOM     20  C   UNL     1      33.081 -13.890 -23.736  0.00  0.00    +0.005 C 
ENDBRANCH  13  18
BRANCH  15  21
ATOM     21  O   UNL     1      34.943 -20.008 -23.991  0.00  0.00    -0.505 OA
ATOM     22  H   UNL     1      34.887 -20.618 -23.282  0.00  0.00    +0.292 HD
ENDBRANCH  15  21
BRANCH  16  23
ATOM     23  O   UNL     1      33.100 -15.808 -25.254  0.00  0.00    -0.506 OA
ATOM     24  H   UNL     1      32.469 -15.203 -24.918  0.00  0.00    +0.292 HD
ENDBRANCH  16  23
ENDBRANCH  11  12
BRANCH   4  25
ATOM     25  C   UNL     1      34.298 -23.859 -16.613  0.00  0.00    -0.050 C 
BRANCH  25  26
ATOM     26  N   UNL     1      34.886 -23.346 -15.377  0.00  0.00    +0.387 N 
ATOM     27  N   UNL     1      36.402 -23.635 -12.933  0.00  0.00    +0.383 N 
ATOM     28  C   UNL     1      34.323 -24.033 -14.209  0.00  0.00    -0.100 C 
ATOM     29  C   UNL     1      36.347 -23.485 -15.398  0.00  0.00    -0.100 C 
ATOM     30  C   UNL     1      34.941 -23.499 -12.912  0.00  0.00    -0.101 C 
ATOM     31  C   UNL     1      36.965 -22.949 -14.103  0.00  0.00    -0.101 C 
ATOM     32  C   UNL     1      36.990 -23.121 -11.698  0.00  0.00    -0.101 C 
ATOM     33  H   UNL     1      34.659 -22.354 -15.308  0.00  0.00    -0.079 HD
ATOM     34  H   UNL     1      36.631 -24.627 -13.002  0.00  0.00    -0.080 HD
ENDBRANCH  25  26
ENDBRANCH   4  25
TORSDOF 6
ENDMDL
MODEL 4
REMARK VINA RESULT:     -11.7      3.834     10.108
REMARK  Name = 11955716
REMARK  6 active torsions:
REMARK  status: ('A' for Active; 'I' for Inactive)
REMARK    1  A    between atoms: C_4  and  C_25
REMARK    2  A    between atoms: C_11  and  C_12
REMARK    3  A    between atoms: C_13  and  C_18
REMARK    4  A    between atoms: C_15  and  O_21
REMARK    5  A    between atoms: C_16  and  O_23
REMARK    6  A    between atoms: C_25  and  N_26
REMARK                            x       y       z     vdW  Elec       q    Type
REMARK                         _______ _______ _______ _____ _____    ______ ____
ROOT
ATOM      1  O   UNL     1      37.169 -18.439 -22.196  0.00  0.00    -0.269 OA
ATOM      2  N   UNL     1      35.371 -19.430 -21.104  0.00  0.00    -0.231 N 
ATOM      3  C   UNL     1      35.177 -21.018 -19.413  0.00  0.00    +0.016 C 
ATOM      4  C   UNL     1      34.279 -22.564 -17.836  0.00  0.00    -0.043 C 
ATOM      5  C   UNL     1      33.881 -20.694 -19.835  0.00  0.00    +0.016 C 
ATOM      6  C   UNL     1      36.185 -20.231 -20.183  0.00  0.00    +0.072 C 
ATOM      7  C   UNL     1      33.928 -19.663 -20.914  0.00  0.00    +0.072 C 
ATOM      8  C   UNL     1      35.391 -21.950 -18.415  0.00  0.00    -0.005 C 
ATOM      9  C   UNL     1      32.979 -22.240 -18.258  0.00  0.00    -0.006 C 
ATOM     10  C   UNL     1      32.773 -21.296 -19.267  0.00  0.00    +0.001 C 
ATOM     11  C   UNL     1      35.961 -18.615 -22.060  0.00  0.00    +0.259 C 
ENDROOT
BRANCH  11  12
ATOM     12  C   UNL     1      35.066 -17.918 -22.995  0.00  0.00    +0.088 C 
ATOM     13  C   UNL     1      33.930 -15.894 -23.652  0.00  0.00    +0.012 C 
ATOM     14  C   UNL     1      34.778 -16.573 -22.777  0.00  0.00    +0.006 C 
ATOM     15  C   UNL     1      34.511 -18.588 -24.082  0.00  0.00    +0.141 C 
ATOM     16  C   UNL     1      33.373 -16.562 -24.743  0.00  0.00    +0.133 C 
ATOM     17  C   UNL     1      33.663 -17.909 -24.958  0.00  0.00    +0.073 C 
BRANCH  13  18
ATOM     18  C   UNL     1      33.630 -14.451 -23.408  0.00  0.00    +0.025 C 
ATOM     19  C   UNL     1      34.170 -13.541 -24.526  0.00  0.00    +0.005 C 
ATOM     20  C   UNL     1      34.149 -13.967 -22.041  0.00  0.00    +0.005 C 
ENDBRANCH  13  18
BRANCH  15  21
ATOM     21  O   UNL     1      34.782 -19.905 -24.308  0.00  0.00    -0.505 OA
ATOM     22  H   UNL     1      34.563 -20.293 -25.132  0.00  0.00    +0.292 HD
ENDBRANCH  15  21
BRANCH  16  23
ATOM     23  O   UNL     1      32.543 -15.914 -25.607  0.00  0.00    -0.506 OA
ATOM     24  H   UNL     1      31.730 -16.306 -25.859  0.00  0.00    +0.292 HD
ENDBRANCH  16  23
ENDBRANCH  11  12
BRANCH   4  25
ATOM     25  C   UNL     1      34.472 -23.581 -16.753  0.00  0.00    -0.050 C 
BRANCH  25  26
ATOM     26  N   UNL     1      33.557 -23.364 -15.634  0.00  0.00    +0.387 N 
ATOM     27  N   UNL     1      31.606 -24.250 -13.694  0.00  0.00    +0.383 N 
ATOM     28  C   UNL     1      32.175 -23.663 -16.027  0.00  0.00    -0.100 C 
ATOM     29  C   UNL     1      33.948 -24.178 -14.477  0.00  0.00    -0.100 C 
ATOM     30  C   UNL     1      31.215 -23.439 -14.853  0.00  0.00    -0.101 C 
ATOM     31  C   UNL     1      32.989 -23.952 -13.303  0.00  0.00    -0.101 C 
ATOM     32  C   UNL     1      30.692 -24.032 -12.574  0.00  0.00    -0.101 C 
ATOM     33  H   UNL     1      33.612 -22.381 -15.369  0.00  0.00    -0.079 HD
ATOM     34  H   UNL     1      31.552 -25.235 -13.958  0.00  0.00    -0.080 HD
ENDBRANCH  25  26
ENDBRANCH   4  25
TORSDOF 6
ENDMDL
MODEL 5
REMARK VINA RESULT:     -11.5      6.462     11.832
REMARK  Name = 11955716
REMARK  6 active torsions:
REMARK  status: ('A' for Active; 'I' for Inactive)
REMARK    1  A    between atoms: C_4  and  C_25
REMARK    2  A    between atoms: C_11  and  C_12
REMARK    3  A    between atoms: C_13  and  C_18
REMARK    4  A    between atoms: C_15  and  O_21
REMARK    5  A    between atoms: C_16  and  O_23
REMARK    6  A    between atoms: C_25  and  N_26
REMARK                            x       y       z     vdW  Elec       q    Type
REMARK                         _______ _______ _______ _____ _____    ______ ____
ROOT
ATOM      1  O   UNL     1      33.675 -12.559 -25.653  0.00  0.00    -0.269 OA
ATOM      2  N   UNL     1      34.145 -13.680 -23.670  0.00  0.00    -0.231 N 
ATOM      3  C   UNL     1      34.541 -15.907 -23.122  0.00  0.00    +0.016 C 
ATOM      4  C   UNL     1      34.954 -17.910 -21.896  0.00  0.00    -0.043 C 
ATOM      5  C   UNL     1      34.554 -15.173 -21.929  0.00  0.00    +0.016 C 
ATOM      6  C   UNL     1      34.293 -15.005 -24.284  0.00  0.00    +0.072 C 
ATOM      7  C   UNL     1      34.322 -13.725 -22.207  0.00  0.00    +0.072 C 
ATOM      8  C   UNL     1      34.739 -17.275 -23.121  0.00  0.00    -0.005 C 
ATOM      9  C   UNL     1      34.968 -17.174 -20.699  0.00  0.00    -0.006 C 
ATOM     10  C   UNL     1      34.766 -15.793 -20.711  0.00  0.00    +0.001 C 
ATOM     11  C   UNL     1      33.816 -12.568 -24.432  0.00  0.00    +0.259 C 
ENDROOT
BRANCH  11  12
ATOM     12  C   UNL     1      33.604 -11.301 -23.717  0.00  0.00    +0.088 C 
ATOM     13  C   UNL     1      32.387 -10.037 -22.061  0.00  0.00    +0.012 C 
ATOM     14  C   UNL     1      32.605 -11.231 -22.750  0.00  0.00    +0.006 C 
ATOM     15  C   UNL     1      34.388 -10.186 -23.999  0.00  0.00    +0.141 C 
ATOM     16  C   UNL     1      33.172  -8.918 -22.341  0.00  0.00    +0.133 C 
ATOM     17  C   UNL     1      34.171  -8.992 -23.311  0.00  0.00    +0.073 C 
BRANCH  13  18
ATOM     18  C   UNL     1      31.312  -9.975 -21.026  0.00  0.00    +0.025 C 
ATOM     19  C   UNL     1      31.874  -9.777 -19.607  0.00  0.00    +0.005 C 
ATOM     20  C   UNL     1      30.394 -11.212 -21.059  0.00  0.00    +0.005 C 
ENDBRANCH  13  18
BRANCH  15  21
ATOM     21  O   UNL     1      35.369 -10.238 -24.944  0.00  0.00    -0.505 OA
ATOM     22  H   UNL     1      35.158 -10.469 -25.827  0.00  0.00    +0.292 HD
ENDBRANCH  15  21
BRANCH  16  23
ATOM     23  O   UNL     1      32.972  -7.744 -21.679  0.00  0.00    -0.506 OA
ATOM     24  H   UNL     1      32.112  -7.506 -21.396  0.00  0.00    +0.292 HD
ENDBRANCH  16  23
ENDBRANCH  11  12
BRANCH   4  25
ATOM     25  C   UNL     1      35.170 -19.392 -21.855  0.00  0.00    -0.050 C 
BRANCH  25  26
ATOM     26  N   UNL     1      34.801 -19.960 -20.560  0.00  0.00    +0.387 N 
ATOM     27  N   UNL     1      34.004 -22.140 -18.837  0.00  0.00    +0.383 N 
ATOM     28  C   UNL     1      33.438 -20.501 -20.599  0.00  0.00    -0.100 C 
ATOM     29  C   UNL     1      35.754 -21.001 -20.157  0.00  0.00    -0.100 C 
ATOM     30  C   UNL     1      33.050 -21.100 -19.242  0.00  0.00    -0.101 C 
ATOM     31  C   UNL     1      35.369 -21.598 -18.800  0.00  0.00    -0.101 C 
ATOM     32  C   UNL     1      33.636 -22.707 -17.541  0.00  0.00    -0.101 C 
ATOM     33  H   UNL     1      34.832 -19.212 -19.868  0.00  0.00    -0.079 HD
ATOM     34  H   UNL     1      33.975 -22.890 -19.529  0.00  0.00    -0.080 HD
ENDBRANCH  25  26
ENDBRANCH   4  25
TORSDOF 6
ENDMDL
MODEL 6
REMARK VINA RESULT:     -11.5      2.161      3.959
REMARK  Name = 11955716
REMARK  6 active torsions:
REMARK  status: ('A' for Active; 'I' for Inactive)
REMARK    1  A    between atoms: C_4  and  C_25
REMARK    2  A    between atoms: C_11  and  C_12
REMARK    3  A    between atoms: C_13  and  C_18
REMARK    4  A    between atoms: C_15  and  O_21
REMARK    5  A    between atoms: C_16  and  O_23
REMARK    6  A    between atoms: C_25  and  N_26
REMARK                            x       y       z     vdW  Elec       q    Type
REMARK                         _______ _______ _______ _____ _____    ______ ____
ROOT
ATOM      1  O   UNL     1      31.863 -23.826 -15.801  0.00  0.00    -0.269 OA
ATOM      2  N   UNL     1      33.742 -22.837 -16.746  0.00  0.00    -0.231 N 
ATOM      3  C   UNL     1      34.173 -21.786 -18.779  0.00  0.00    +0.016 C 
ATOM      4  C   UNL     1      35.281 -20.700 -20.589  0.00  0.00    -0.043 C 
ATOM      5  C   UNL     1      35.378 -21.832 -18.067  0.00  0.00    +0.016 C 
ATOM      6  C   UNL     1      33.075 -22.407 -17.981  0.00  0.00    +0.072 C 
ATOM      7  C   UNL     1      35.173 -22.482 -16.739  0.00  0.00    +0.072 C 
ATOM      8  C   UNL     1      34.108 -21.223 -20.040  0.00  0.00    -0.005 C 
ATOM      9  C   UNL     1      36.490 -20.746 -19.876  0.00  0.00    -0.006 C 
ATOM     10  C   UNL     1      36.545 -21.316 -18.602  0.00  0.00    +0.001 C 
ATOM     11  C   UNL     1      33.058 -23.545 -15.769  0.00  0.00    +0.259 C 
ENDROOT
BRANCH  11  12
ATOM     12  C   UNL     1      33.831 -24.008 -14.608  0.00  0.00    +0.088 C 
ATOM     13  C   UNL     1      35.751 -25.177 -13.732  0.00  0.00    +0.012 C 
ATOM     14  C   UNL     1      35.004 -24.728 -14.821  0.00  0.00    +0.006 C 
ATOM     15  C   UNL     1      33.402 -23.733 -13.312  0.00  0.00    +0.141 C 
ATOM     16  C   UNL     1      35.324 -24.903 -12.433  0.00  0.00    +0.133 C 
ATOM     17  C   UNL     1      34.149 -24.182 -12.223  0.00  0.00    +0.073 C 
BRANCH  13  18
ATOM     18  C   UNL     1      37.007 -25.949 -13.976  0.00  0.00    +0.025 C 
ATOM     19  C   UNL     1      38.196 -25.038 -14.330  0.00  0.00    +0.005 C 
ATOM     20  C   UNL     1      36.832 -27.029 -15.059  0.00  0.00    +0.005 C 
ENDBRANCH  13  18
BRANCH  15  21
ATOM     21  O   UNL     1      32.256 -23.031 -13.086  0.00  0.00    -0.505 OA
ATOM     22  H   UNL     1      32.226 -22.113 -13.270  0.00  0.00    +0.292 HD
ENDBRANCH  15  21
BRANCH  16  23
ATOM     23  O   UNL     1      36.042 -25.335 -11.358  0.00  0.00    -0.506 OA
ATOM     24  H   UNL     1      35.601 -25.591 -10.572  0.00  0.00    +0.292 HD
ENDBRANCH  16  23
ENDBRANCH  11  12
BRANCH   4  25
ATOM     25  C   UNL     1      35.251 -20.085 -21.954  0.00  0.00    -0.050 C 
BRANCH  25  26
ATOM     26  N   UNL     1      34.699 -18.732 -21.929  0.00  0.00    +0.387 N 
ATOM     27  N   UNL     1      34.882 -15.868 -22.280  0.00  0.00    +0.383 N 
ATOM     28  C   UNL     1      35.424 -17.891 -20.968  0.00  0.00    -0.100 C 
ATOM     29  C   UNL     1      34.736 -18.128 -23.267  0.00  0.00    -0.100 C 
ATOM     30  C   UNL     1      34.848 -16.471 -20.943  0.00  0.00    -0.101 C 
ATOM     31  C   UNL     1      34.158 -16.710 -23.242  0.00  0.00    -0.101 C 
ATOM     32  C   UNL     1      34.328 -14.516 -22.255  0.00  0.00    -0.101 C 
ATOM     33  H   UNL     1      33.725 -18.794 -21.632  0.00  0.00    -0.079 HD
ATOM     34  H   UNL     1      35.856 -15.804 -22.579  0.00  0.00    -0.080 HD
ENDBRANCH  25  26
ENDBRANCH   4  25
TORSDOF 6
ENDMDL
MODEL 7
REMARK VINA RESULT:     -11.4      4.564      8.046
REMARK  Name = 11955716
REMARK  6 active torsions:
REMARK  status: ('A' for Active; 'I' for Inactive)
REMARK    1  A    between atoms: C_4  and  C_25
REMARK    2  A    between atoms: C_11  and  C_12
REMARK    3  A    between atoms: C_13  and  C_18
REMARK    4  A    between atoms: C_15  and  O_21
REMARK    5  A    between atoms: C_16  and  O_23
REMARK    6  A    between atoms: C_25  and  N_26
REMARK                            x       y       z     vdW  Elec       q    Type
REMARK                         _______ _______ _______ _____ _____    ______ ____
ROOT
ATOM      1  O   UNL     1      35.056 -19.700 -23.796  0.00  0.00    -0.269 OA
ATOM      2  N   UNL     1      34.807 -17.628 -22.771  0.00  0.00    -0.231 N 
ATOM      3  C   UNL     1      34.335 -15.483 -23.544  0.00  0.00    +0.016 C 
ATOM      4  C   UNL     1      33.963 -13.130 -23.641  0.00  0.00    -0.043 C 
ATOM      5  C   UNL     1      34.554 -15.393 -22.163  0.00  0.00    +0.016 C 
ATOM      6  C   UNL     1      34.471 -16.898 -23.999  0.00  0.00    +0.072 C 
ATOM      7  C   UNL     1      34.849 -16.741 -21.594  0.00  0.00    +0.072 C 
ATOM      8  C   UNL     1      34.038 -14.362 -24.295  0.00  0.00    -0.005 C 
ATOM      9  C   UNL     1      34.183 -13.038 -22.257  0.00  0.00    -0.006 C 
ATOM     10  C   UNL     1      34.482 -14.178 -21.506  0.00  0.00    +0.001 C 
ATOM     11  C   UNL     1      35.100 -18.984 -22.799  0.00  0.00    +0.259 C 
ENDROOT
BRANCH  11  12
ATOM     12  C   UNL     1      35.509 -19.610 -21.534  0.00  0.00    +0.088 C 
ATOM     13  C   UNL     1      34.945 -20.957 -19.613  0.00  0.00    +0.012 C 
ATOM     14  C   UNL     1      34.577 -20.356 -20.817  0.00  0.00    +0.006 C 
ATOM     15  C   UNL     1      36.807 -19.461 -21.054  0.00  0.00    +0.141 C 
ATOM     16  C   UNL     1      36.246 -20.811 -19.130  0.00  0.00    +0.133 C 
ATOM     17  C   UNL     1      37.177 -20.063 -19.850  0.00  0.00    +0.073 C 
BRANCH  13  18
ATOM     18  C   UNL     1      33.936 -21.755 -18.855  0.00  0.00    +0.025 C 
ATOM     19  C   UNL     1      34.043 -23.263 -19.142  0.00  0.00    +0.005 C 
ATOM     20  C   UNL     1      32.495 -21.273 -19.110  0.00  0.00    +0.005 C 
ENDBRANCH  13  18
BRANCH  15  21
ATOM     21  O   UNL     1      37.732 -18.733 -21.743  0.00  0.00    -0.505 OA
ATOM     22  H   UNL     1      37.643 -18.619 -22.668  0.00  0.00    +0.292 HD
ENDBRANCH  15  21
BRANCH  16  23
ATOM     23  O   UNL     1      36.622 -21.391 -17.957  0.00  0.00    -0.506 OA
ATOM     24  H   UNL     1      36.754 -22.317 -17.912  0.00  0.00    +0.292 HD
ENDBRANCH  16  23
ENDBRANCH  11  12
BRANCH   4  25
ATOM     25  C   UNL     1      33.647 -11.892 -24.423  0.00  0.00    -0.050 C 
BRANCH  25  26
ATOM     26  N   UNL     1      33.867 -10.681 -23.636  0.00  0.00    +0.387 N 
ATOM     27  N   UNL     1      33.660  -7.834 -23.178  0.00  0.00    +0.383 N 
ATOM     28  C   UNL     1      34.707  -9.728 -24.372  0.00  0.00    -0.100 C 
ATOM     29  C   UNL     1      32.590 -10.059 -23.267  0.00  0.00    -0.100 C 
ATOM     30  C   UNL     1      34.937  -8.455 -23.549  0.00  0.00    -0.101 C 
ATOM     31  C   UNL     1      32.820  -8.788 -22.442  0.00  0.00    -0.101 C 
ATOM     32  C   UNL     1      33.881  -6.623 -22.389  0.00  0.00    -0.101 C 
ATOM     33  H   UNL     1      34.354 -10.945 -22.780  0.00  0.00    -0.079 HD
ATOM     34  H   UNL     1      33.171  -7.568 -24.033  0.00  0.00    -0.080 HD
ENDBRANCH  25  26
ENDBRANCH   4  25
TORSDOF 6
ENDMDL
MODEL 8
REMARK VINA RESULT:     -11.1      6.676     12.267
REMARK  Name = 11955716
REMARK  6 active torsions:
REMARK  status: ('A' for Active; 'I' for Inactive)
REMARK    1  A    between atoms: C_4  and  C_25
REMARK    2  A    between atoms: C_11  and  C_12
REMARK    3  A    between atoms: C_13  and  C_18
REMARK    4  A    between atoms: C_15  and  O_21
REMARK    5  A    between atoms: C_16  and  O_23
REMARK    6  A    between atoms: C_25  and  N_26
REMARK                            x       y       z     vdW  Elec       q    Type
REMARK                         _______ _______ _______ _____ _____    ______ ____
ROOT
ATOM      1  O   UNL     1      33.484 -11.876 -25.042  0.00  0.00    -0.269 OA
ATOM      2  N   UNL     1      33.897 -13.125 -23.125  0.00  0.00    -0.231 N 
ATOM      3  C   UNL     1      34.569 -15.319 -22.733  0.00  0.00    +0.016 C 
ATOM      4  C   UNL     1      35.148 -17.363 -21.649  0.00  0.00    -0.043 C 
ATOM      5  C   UNL     1      34.335 -14.723 -21.487  0.00  0.00    +0.016 C 
ATOM      6  C   UNL     1      34.316 -14.341 -23.831  0.00  0.00    +0.072 C 
ATOM      7  C   UNL     1      33.913 -13.302 -21.661  0.00  0.00    +0.072 C 
ATOM      8  C   UNL     1      34.977 -16.636 -22.830  0.00  0.00    -0.005 C 
ATOM      9  C   UNL     1      34.913 -16.766 -20.399  0.00  0.00    -0.006 C 
ATOM     10  C   UNL     1      34.502 -15.434 -20.312  0.00  0.00    +0.001 C 
ATOM     11  C   UNL     1      33.486 -11.996 -23.819  0.00  0.00    +0.259 C 
ENDROOT
BRANCH  11  12
ATOM     12  C   UNL     1      33.001 -10.858 -23.026  0.00  0.00    +0.088 C 
ATOM     13  C   UNL     1      33.135  -8.513 -22.475  0.00  0.00    +0.012 C 
ATOM     14  C   UNL     1      33.581  -9.606 -23.218  0.00  0.00    +0.006 C 
ATOM     15  C   UNL     1      31.979 -11.023 -22.096  0.00  0.00    +0.141 C 
ATOM     16  C   UNL     1      32.111  -8.675 -21.542  0.00  0.00    +0.133 C 
ATOM     17  C   UNL     1      31.533  -9.930 -21.352  0.00  0.00    +0.073 C 
BRANCH  13  18
ATOM     18  C   UNL     1      33.765  -7.176 -22.691  0.00  0.00    +0.025 C 
ATOM     19  C   UNL     1      32.934  -6.280 -23.626  0.00  0.00    +0.005 C 
ATOM     20  C   UNL     1      35.209  -7.285 -23.215  0.00  0.00    +0.005 C 
ENDBRANCH  13  18
BRANCH  15  21
ATOM     21  O   UNL     1      31.403 -12.242 -21.895  0.00  0.00    -0.505 OA
ATOM     22  H   UNL     1      31.513 -12.683 -21.076  0.00  0.00    +0.292 HD
ENDBRANCH  15  21
BRANCH  16  23
ATOM     23  O   UNL     1      31.664  -7.619 -20.807  0.00  0.00    -0.506 OA
ATOM     24  H   UNL     1      31.042  -7.022 -21.173  0.00  0.00    +0.292 HD
ENDBRANCH  16  23
ENDBRANCH  11  12
BRANCH   4  25
ATOM     25  C   UNL     1      35.586 -18.793 -21.715  0.00  0.00    -0.050 C 
BRANCH  25  26
ATOM     26  N   UNL     1      35.103 -19.563 -20.570  0.00  0.00    +0.387 N 
ATOM     27  N   UNL     1      34.204 -21.999 -19.299  0.00  0.00    +0.383 N 
ATOM     28  C   UNL     1      33.770 -20.116 -20.840  0.00  0.00    -0.100 C 
ATOM     29  C   UNL     1      36.044 -20.637 -20.230  0.00  0.00    -0.100 C 
ATOM     30  C   UNL     1      33.264 -20.926 -19.642  0.00  0.00    -0.101 C 
ATOM     31  C   UNL     1      35.538 -21.446 -19.030  0.00  0.00    -0.101 C 
ATOM     32  C   UNL     1      33.722 -22.767 -18.153  0.00  0.00    -0.101 C 
ATOM     33  H   UNL     1      35.035 -18.932 -19.772  0.00  0.00    -0.079 HD
ATOM     34  H   UNL     1      34.274 -22.632 -20.096  0.00  0.00    -0.080 HD
ENDBRANCH  25  26
ENDBRANCH   4  25
TORSDOF 6
ENDMDL
MODEL 9
REMARK VINA RESULT:     -11.0      1.785      3.695
REMARK  Name = 11955716
REMARK  6 active torsions:
REMARK  status: ('A' for Active; 'I' for Inactive)
REMARK    1  A    between atoms: C_4  and  C_25
REMARK    2  A    between atoms: C_11  and  C_12
REMARK    3  A    between atoms: C_13  and  C_18
REMARK    4  A    between atoms: C_15  and  O_21
REMARK    5  A    between atoms: C_16  and  O_23
REMARK    6  A    between atoms: C_25  and  N_26
REMARK                            x       y       z     vdW  Elec       q    Type
REMARK                         _______ _______ _______ _____ _____    ______ ____
ROOT
ATOM      1  O   UNL     1      31.402 -22.815 -17.189  0.00  0.00    -0.269 OA
ATOM      2  N   UNL     1      33.412 -21.981 -18.008  0.00  0.00    -0.231 N 
ATOM      3  C   UNL     1      34.024 -20.834 -19.938  0.00  0.00    +0.016 C 
ATOM      4  C   UNL     1      35.307 -19.747 -21.630  0.00  0.00    -0.043 C 
ATOM      5  C   UNL     1      35.194 -21.075 -19.205  0.00  0.00    +0.016 C 
ATOM      6  C   UNL     1      32.838 -21.383 -19.219  0.00  0.00    +0.072 C 
ATOM      7  C   UNL     1      34.873 -21.798 -17.939  0.00  0.00    +0.072 C 
ATOM      8  C   UNL     1      34.065 -20.171 -21.151  0.00  0.00    -0.005 C 
ATOM      9  C   UNL     1      36.480 -19.989 -20.895  0.00  0.00    -0.006 C 
ATOM     10  C   UNL     1      36.428 -20.658 -19.670  0.00  0.00    +0.001 C 
ATOM     11  C   UNL     1      32.620 -22.679 -17.107  0.00  0.00    +0.259 C 
ENDROOT
BRANCH  11  12
ATOM     12  C   UNL     1      33.298 -23.317 -15.969  0.00  0.00    +0.088 C 
ATOM     13  C   UNL     1      35.344 -23.814 -14.792  0.00  0.00    +0.012 C 
ATOM     14  C   UNL     1      34.683 -23.214 -15.864  0.00  0.00    +0.006 C 
ATOM     15  C   UNL     1      32.571 -24.015 -15.009  0.00  0.00    +0.141 C 
ATOM     16  C   UNL     1      34.619 -24.514 -13.828  0.00  0.00    +0.133 C 
ATOM     17  C   UNL     1      33.232 -24.615 -13.937  0.00  0.00    +0.073 C 
BRANCH  13  18
ATOM     18  C   UNL     1      36.830 -23.696 -14.692  0.00  0.00    +0.025 C 
ATOM     19  C   UNL     1      37.410 -22.698 -15.710  0.00  0.00    +0.005 C 
ATOM     20  C   UNL     1      37.538 -25.057 -14.830  0.00  0.00    +0.005 C 
ENDBRANCH  13  18
BRANCH  15  21
ATOM     21  O   UNL     1      31.215 -24.126 -15.098  0.00  0.00    -0.505 OA
ATOM     22  H   UNL     1      30.810 -24.265 -15.931  0.00  0.00    +0.292 HD
ENDBRANCH  15  21
BRANCH  16  23
ATOM     23  O   UNL     1      35.249 -25.106 -12.776  0.00  0.00    -0.506 OA
ATOM     24  H   UNL     1      35.301 -26.040 -12.725  0.00  0.00    +0.292 HD
ENDBRANCH  16  23
ENDBRANCH  11  12
BRANCH   4  25
ATOM     25  C   UNL     1      35.392 -19.029 -22.941  0.00  0.00    -0.050 C 
BRANCH  25  26
ATOM     26  N   UNL     1      34.685 -17.750 -22.907  0.00  0.00    +0.387 N 
ATOM     27  N   UNL     1      34.525 -14.886 -23.265  0.00  0.00    +0.383 N 
ATOM     28  C   UNL     1      35.325 -16.827 -21.961  0.00  0.00    -0.100 C 
ATOM     29  C   UNL     1      34.626 -17.151 -24.246  0.00  0.00    -0.100 C 
ATOM     30  C   UNL     1      34.587 -15.484 -21.926  0.00  0.00    -0.101 C 
ATOM     31  C   UNL     1      33.886 -15.810 -24.211  0.00  0.00    -0.101 C 
ATOM     32  C   UNL     1      33.817 -13.607 -23.231  0.00  0.00    -0.101 C 
ATOM     33  H   UNL     1      33.732 -17.925 -22.591  0.00  0.00    -0.079 HD
ATOM     34  H   UNL     1      35.479 -14.709 -23.582  0.00  0.00    -0.080 HD
ENDBRANCH  25  26
ENDBRANCH   4  25
TORSDOF 6
ENDMDL
