MODEL 1
REMARK VINA RESULT:     -11.6      0.000      0.000
REMARK  Name = 71226662
REMARK  4 active torsions:
REMARK  status: ('A' for Active; 'I' for Inactive)
REMARK    1  A    between atoms: C_5  and  C_15
REMARK    2  A    between atoms: C_7  and  C_23
REMARK    3  A    between atoms: C_19  and  C_20
REMARK    4  A    between atoms: C_28  and  C_31
REMARK                            x       y       z     vdW  Elec       q    Type
REMARK                         _______ _______ _______ _____ _____    ______ ____
ROOT
ATOM      1  N   UNL     1      32.840 -24.279 -14.338  0.00  0.00    -0.251 N 
ATOM      2  N   UNL     1      34.781 -23.750 -15.277  0.00  0.00    -0.392 NA
ATOM      3  N   UNL     1      30.197 -23.764 -15.007  0.00  0.00    -0.231 NA
ATOM      4  N   UNL     1      30.768 -22.577 -16.915  0.00  0.00    -0.344 N 
ATOM      5  C   UNL     1      34.202 -24.369 -14.269  0.00  0.00    +0.182 C 
ATOM      6  C   UNL     1      32.533 -23.555 -15.465  0.00  0.00    +0.185 C 
ATOM      7  C   UNL     1      33.747 -23.240 -16.028  0.00  0.00    +0.136 C 
ATOM      8  C   UNL     1      31.832 -24.756 -13.527  0.00  0.00    +0.089 C 
ATOM      9  C   UNL     1      31.141 -23.294 -15.800  0.00  0.00    +0.128 C 
ATOM     10  C   UNL     1      30.565 -24.487 -13.883  0.00  0.00    +0.116 C 
ATOM     11  H   UNL     1      29.813 -22.424 -17.104  0.00  0.00    +0.143 HD
ATOM     12  H   UNL     1      31.454 -22.218 -17.522  0.00  0.00    +0.143 HD
ENDROOT
BRANCH   5  15
ATOM     13  O   UNL     1      36.341 -26.721 -15.088  0.00  0.00    -0.260 OA
ATOM     14  N   UNL     1      36.369 -25.204 -13.332  0.00  0.00    -0.263 N 
ATOM     15  C   UNL     1      34.918 -25.103 -13.149  0.00  0.00    +0.143 C 
ATOM     16  C   UNL     1      34.767 -24.398 -11.795  0.00  0.00    +0.030 C 
ATOM     17  C   UNL     1      36.026 -23.542 -11.688  0.00  0.00    +0.024 C 
ATOM     18  C   UNL     1      37.090 -24.408 -12.342  0.00  0.00    +0.095 C 
ATOM     19  C   UNL     1      36.952 -26.056 -14.259  0.00  0.00    +0.293 C 
BRANCH  19  20
ATOM     20  C   UNL     1      38.394 -26.163 -14.243  0.00  0.00    -0.007 C 
ATOM     21  C   UNL     1      39.591 -26.252 -14.229  0.00  0.00    -0.081 C 
ATOM     22  C   UNL     1      41.049 -26.360 -14.211  0.00  0.00    +0.090 C 
ENDBRANCH  19  20
ENDBRANCH   5  15
BRANCH   7  23
ATOM     23  C   UNL     1      33.969 -22.490 -17.226  0.00  0.00    +0.028 C 
ATOM     24  C   UNL     1      32.886 -22.101 -18.017  0.00  0.00    +0.002 C 
ATOM     25  C   UNL     1      35.267 -22.147 -17.604  0.00  0.00    +0.002 C 
ATOM     26  C   UNL     1      33.104 -21.371 -19.185  0.00  0.00    +0.005 C 
ATOM     27  C   UNL     1      35.484 -21.417 -18.772  0.00  0.00    +0.005 C 
ATOM     28  C   UNL     1      34.402 -21.028 -19.563  0.00  0.00    +0.054 C 
BRANCH  28  31
ATOM     29  O   UNL     1      34.866 -20.873 -21.837  0.00  0.00    -0.270 OA
ATOM     30  N   UNL     1      34.579 -18.871 -20.647  0.00  0.00    -0.266 N 
ATOM     31  C   UNL     1      34.628 -20.265 -20.780  0.00  0.00    +0.251 C 
ATOM     32  H   UNL     1      34.377 -18.534 -19.744  0.00  0.00    +0.157 HD
ATOM     33  N   UNL     1      34.684 -16.582 -21.287  0.00  0.00    -0.229 NA
ATOM     34  C   UNL     1      34.781 -17.883 -21.642  0.00  0.00    +0.134 C 
ATOM     35  C   UNL     1      35.066 -18.317 -22.926  0.00  0.00    +0.034 C 
ATOM     36  C   UNL     1      35.267 -17.355 -23.909  0.00  0.00    +0.004 C 
ATOM     37  C   UNL     1      34.885 -15.675 -22.269  0.00  0.00    +0.100 C 
ATOM     38  C   UNL     1      35.176 -16.006 -23.582  0.00  0.00    +0.021 C 
ENDBRANCH  28  31
ENDBRANCH   7  23
TORSDOF 4
ENDMDL
MODEL 2
REMARK VINA RESULT:      -9.5      8.782     16.133
REMARK  Name = 71226662
REMARK  4 active torsions:
REMARK  status: ('A' for Active; 'I' for Inactive)
REMARK    1  A    between atoms: C_5  and  C_15
REMARK    2  A    between atoms: C_7  and  C_23
REMARK    3  A    between atoms: C_19  and  C_20
REMARK    4  A    between atoms: C_28  and  C_31
REMARK                            x       y       z     vdW  Elec       q    Type
REMARK                         _______ _______ _______ _____ _____    ______ ____
ROOT
ATOM      1  N   UNL     1      32.457  -7.516 -21.188  0.00  0.00    -0.251 N 
ATOM      2  N   UNL     1      33.179  -8.232 -23.161  0.00  0.00    -0.392 NA
ATOM      3  N   UNL     1      31.612  -8.811 -18.884  0.00  0.00    -0.231 NA
ATOM      4  N   UNL     1      31.944 -10.921 -19.785  0.00  0.00    -0.344 N 
ATOM      5  C   UNL     1      32.912  -7.169 -22.430  0.00  0.00    +0.182 C 
ATOM      6  C   UNL     1      32.435  -8.888 -21.127  0.00  0.00    +0.185 C 
ATOM      7  C   UNL     1      32.885  -9.308 -22.356  0.00  0.00    +0.136 C 
ATOM      8  C   UNL     1      32.057  -6.769 -20.101  0.00  0.00    +0.089 C 
ATOM      9  C   UNL     1      31.988  -9.551 -19.910  0.00  0.00    +0.128 C 
ATOM     10  C   UNL     1      31.655  -7.431 -19.003  0.00  0.00    +0.116 C 
ATOM     11  H   UNL     1      31.635 -11.328 -18.943  0.00  0.00    +0.143 HD
ATOM     12  H   UNL     1      32.220 -11.494 -20.536  0.00  0.00    +0.143 HD
ENDROOT
BRANCH   5  15
ATOM     13  O   UNL     1      35.789  -6.264 -23.724  0.00  0.00    -0.260 OA
ATOM     14  N   UNL     1      33.631  -5.568 -24.216  0.00  0.00    -0.263 N 
ATOM     15  C   UNL     1      33.073  -5.726 -22.869  0.00  0.00    +0.143 C 
ATOM     16  C   UNL     1      31.734  -4.980 -22.938  0.00  0.00    +0.030 C 
ATOM     17  C   UNL     1      31.321  -5.107 -24.401  0.00  0.00    +0.024 C 
ATOM     18  C   UNL     1      32.645  -5.020 -25.143  0.00  0.00    +0.095 C 
ATOM     19  C   UNL     1      34.967  -5.803 -24.508  0.00  0.00    +0.293 C 
BRANCH  19  20
ATOM     20  C   UNL     1      35.419  -5.478 -25.842  0.00  0.00    -0.007 C 
ATOM     21  C   UNL     1      35.794  -5.207 -26.950  0.00  0.00    -0.081 C 
ATOM     22  C   UNL     1      36.252  -4.877 -28.299  0.00  0.00    +0.090 C 
ENDBRANCH  19  20
ENDBRANCH   5  15
BRANCH   7  23
ATOM     23  C   UNL     1      33.046 -10.660 -22.796  0.00  0.00    +0.028 C 
ATOM     24  C   UNL     1      32.360 -11.690 -22.152  0.00  0.00    +0.002 C 
ATOM     25  C   UNL     1      33.890 -10.947 -23.869  0.00  0.00    +0.002 C 
ATOM     26  C   UNL     1      32.520 -13.008 -22.580  0.00  0.00    +0.005 C 
ATOM     27  C   UNL     1      34.049 -12.265 -24.297  0.00  0.00    +0.005 C 
ATOM     28  C   UNL     1      33.364 -13.296 -23.653  0.00  0.00    +0.054 C 
BRANCH  28  31
ATOM     29  O   UNL     1      33.104 -14.992 -25.223  0.00  0.00    -0.270 OA
ATOM     30  N   UNL     1      34.146 -15.540 -23.193  0.00  0.00    -0.266 N 
ATOM     31  C   UNL     1      33.528 -14.670 -24.101  0.00  0.00    +0.251 C 
ATOM     32  H   UNL     1      34.430 -15.138 -22.340  0.00  0.00    +0.157 HD
ATOM     33  N   UNL     1      35.028 -17.572 -22.326  0.00  0.00    -0.229 NA
ATOM     34  C   UNL     1      34.415 -16.923 -23.341  0.00  0.00    +0.134 C 
ATOM     35  C   UNL     1      34.031 -17.525 -24.528  0.00  0.00    +0.034 C 
ATOM     36  C   UNL     1      34.290 -18.883 -24.683  0.00  0.00    +0.004 C 
ATOM     37  C   UNL     1      35.265 -18.890 -22.512  0.00  0.00    +0.100 C 
ATOM     38  C   UNL     1      34.919 -19.586 -23.660  0.00  0.00    +0.021 C 
ENDBRANCH  28  31
ENDBRANCH   7  23
TORSDOF 4
ENDMDL
