MODEL 1
REMARK VINA RESULT:     -13.1      0.000      0.000
REMARK  Name = 71351
REMARK  4 active torsions:
REMARK  status: ('A' for Active; 'I' for Inactive)
REMARK    1  A    between atoms: N_1  and  C_18
REMARK    2  A    between atoms: C_2  and  C_11
REMARK    3  A    between atoms: C_18  and  C_19
REMARK    4  A    between atoms: C_19  and  C_23
REMARK                            x       y       z     vdW  Elec       q    Type
REMARK                         _______ _______ _______ _____ _____    ______ ____
ROOT
ATOM      1  N   UNL     1      35.768 -19.589 -20.238  0.00  0.00    +0.387 N 
ATOM      2  C   UNL     1      35.181 -18.477 -22.889  0.00  0.00    +0.039 C 
ATOM      3  C   UNL     1      36.312 -17.936 -21.999  0.00  0.00    -0.017 C 
ATOM      4  C   UNL     1      34.104 -19.145 -22.017  0.00  0.00    -0.017 C 
ATOM      5  C   UNL     1      36.845 -19.020 -21.059  0.00  0.00    -0.077 C 
ATOM      6  C   UNL     1      34.720 -20.185 -21.077  0.00  0.00    -0.077 C 
ATOM      7  H   UNL     1      35.347 -18.830 -19.701  0.00  0.00    -0.080 HD
ENDROOT
BRANCH   2  11
ATOM      8  F   UNL     1      33.378 -12.091 -23.983  0.00  0.00    -0.204 F 
ATOM      9  O   UNL     1      33.771 -16.596 -25.620  0.00  0.00    -0.354 OA
ATOM     10  N   UNL     1      34.240 -17.771 -25.044  0.00  0.00    -0.081 NA
ATOM     11  C   UNL     1      34.611 -17.425 -23.813  0.00  0.00    +0.100 A 
ATOM     12  C   UNL     1      34.411 -16.063 -23.541  0.00  0.00    +0.054 A 
ATOM     13  C   UNL     1      33.875 -15.579 -24.721  0.00  0.00    +0.179 A 
ATOM     14  C   UNL     1      34.607 -15.181 -22.468  0.00  0.00    +0.007 C 
ATOM     15  C   UNL     1      33.507 -14.254 -24.930  0.00  0.00    +0.070 C 
ATOM     16  C   UNL     1      34.248 -13.837 -22.644  0.00  0.00    +0.030 C 
ATOM     17  C   UNL     1      33.709 -13.384 -23.853  0.00  0.00    +0.143 C 
ENDBRANCH   2  11
BRANCH   1  18
ATOM     18  C   UNL     1      36.304 -20.582 -19.306  0.00  0.00    -0.076 C 
BRANCH  18  19
ATOM     19  C   UNL     1      35.518 -21.879 -19.424  0.00  0.00    -0.007 C 
BRANCH  19  23
ATOM     20  O   UNL     1      32.845 -22.490 -19.001  0.00  0.00    -0.274 OA
ATOM     21  N   UNL     1      33.088 -22.966 -16.726  0.00  0.00    -0.211 N 
ATOM     22  N   UNL     1      35.247 -22.844 -15.745  0.00  0.00    -0.395 NA
ATOM     23  C   UNL     1      35.016 -22.324 -18.082  0.00  0.00    +0.123 C 
ATOM     24  C   UNL     1      35.754 -22.473 -16.965  0.00  0.00    +0.097 C 
ATOM     25  C   UNL     1      33.546 -22.597 -17.994  0.00  0.00    +0.241 C 
ATOM     26  C   UNL     1      33.973 -23.073 -15.646  0.00  0.00    +0.188 C 
ATOM     27  C   UNL     1      37.247 -22.266 -16.938  0.00  0.00    +0.062 C 
ATOM     28  C   UNL     1      33.392 -23.480 -14.317  0.00  0.00    +0.023 C 
ATOM     29  C   UNL     1      31.733 -23.228 -16.558  0.00  0.00    +0.074 C 
ATOM     30  C   UNL     1      32.074 -23.716 -14.234  0.00  0.00    +0.001 C 
ATOM     31  C   UNL     1      31.219 -23.588 -15.379  0.00  0.00    +0.016 C 
ATOM     32  C   UNL     1      34.316 -23.602 -13.145  0.00  0.00    +0.035 C 
ENDBRANCH  19  23
ENDBRANCH  18  19
ENDBRANCH   1  18
TORSDOF 4
ENDMDL
MODEL 2
REMARK VINA RESULT:     -12.8      1.114      2.052
REMARK  Name = 71351
REMARK  4 active torsions:
REMARK  status: ('A' for Active; 'I' for Inactive)
REMARK    1  A    between atoms: N_1  and  C_18
REMARK    2  A    between atoms: C_2  and  C_11
REMARK    3  A    between atoms: C_18  and  C_19
REMARK    4  A    between atoms: C_19  and  C_23
REMARK                            x       y       z     vdW  Elec       q    Type
REMARK                         _______ _______ _______ _____ _____    ______ ____
ROOT
ATOM      1  N   UNL     1      35.462 -19.403 -20.500  0.00  0.00    +0.387 N 
ATOM      2  C   UNL     1      35.252 -17.981 -23.057  0.00  0.00    +0.039 C 
ATOM      3  C   UNL     1      35.699 -17.286 -21.761  0.00  0.00    -0.017 C 
ATOM      4  C   UNL     1      34.388 -19.207 -22.721  0.00  0.00    -0.017 C 
ATOM      5  C   UNL     1      36.358 -18.277 -20.798  0.00  0.00    -0.077 C 
ATOM      6  C   UNL     1      35.095 -20.128 -21.723  0.00  0.00    -0.077 C 
ATOM      7  H   UNL     1      34.608 -19.025 -20.090  0.00  0.00    -0.080 HD
ENDROOT
BRANCH   2  11
ATOM      8  F   UNL     1      33.148 -11.776 -24.573  0.00  0.00    -0.204 F 
ATOM      9  O   UNL     1      33.561 -16.403 -25.820  0.00  0.00    -0.354 OA
ATOM     10  N   UNL     1      34.115 -17.505 -25.180  0.00  0.00    -0.081 NA
ATOM     11  C   UNL     1      34.574 -17.036 -24.022  0.00  0.00    +0.100 A 
ATOM     12  C   UNL     1      34.350 -15.661 -23.859  0.00  0.00    +0.054 A 
ATOM     13  C   UNL     1      33.703 -15.304 -25.029  0.00  0.00    +0.179 A 
ATOM     14  C   UNL     1      34.602 -14.676 -22.892  0.00  0.00    +0.007 C 
ATOM     15  C   UNL     1      33.274 -14.014 -25.327  0.00  0.00    +0.070 C 
ATOM     16  C   UNL     1      34.184 -13.365 -23.159  0.00  0.00    +0.030 C 
ATOM     17  C   UNL     1      33.533 -13.042 -24.354  0.00  0.00    +0.143 C 
ENDBRANCH   2  11
BRANCH   1  18
ATOM     18  C   UNL     1      36.084 -20.310 -19.534  0.00  0.00    -0.076 C 
BRANCH  18  19
ATOM     19  C   UNL     1      35.548 -21.720 -19.730  0.00  0.00    -0.007 C 
BRANCH  19  23
ATOM     20  O   UNL     1      36.264 -22.768 -17.263  0.00  0.00    -0.274 OA
ATOM     21  N   UNL     1      34.076 -22.975 -16.470  0.00  0.00    -0.211 N 
ATOM     22  N   UNL     1      32.278 -22.248 -17.841  0.00  0.00    -0.395 NA
ATOM     23  C   UNL     1      34.520 -22.050 -18.687  0.00  0.00    +0.123 C 
ATOM     24  C   UNL     1      33.187 -21.895 -18.806  0.00  0.00    +0.097 C 
ATOM     25  C   UNL     1      35.050 -22.631 -17.412  0.00  0.00    +0.241 C 
ATOM     26  C   UNL     1      32.717 -22.764 -16.733  0.00  0.00    +0.188 C 
ATOM     27  C   UNL     1      32.541 -21.286 -20.023  0.00  0.00    +0.062 C 
ATOM     28  C   UNL     1      31.738 -23.162 -15.659  0.00  0.00    +0.023 C 
ATOM     29  C   UNL     1      34.485 -23.529 -15.262  0.00  0.00    +0.074 C 
ATOM     30  C   UNL     1      32.209 -23.691 -14.521  0.00  0.00    +0.001 C 
ATOM     31  C   UNL     1      33.615 -23.881 -14.311  0.00  0.00    +0.016 C 
ATOM     32  C   UNL     1      30.277 -22.948 -15.914  0.00  0.00    +0.035 C 
ENDBRANCH  19  23
ENDBRANCH  18  19
ENDBRANCH   1  18
TORSDOF 4
ENDMDL
MODEL 3
REMARK VINA RESULT:     -12.5      3.546     10.413
REMARK  Name = 71351
REMARK  4 active torsions:
REMARK  status: ('A' for Active; 'I' for Inactive)
REMARK    1  A    between atoms: N_1  and  C_18
REMARK    2  A    between atoms: C_2  and  C_11
REMARK    3  A    between atoms: C_18  and  C_19
REMARK    4  A    between atoms: C_19  and  C_23
REMARK                            x       y       z     vdW  Elec       q    Type
REMARK                         _______ _______ _______ _____ _____    ______ ____
ROOT
ATOM      1  N   UNL     1      34.252 -20.719 -19.810  0.00  0.00    +0.387 N 
ATOM      2  C   UNL     1      34.096 -22.829 -17.778  0.00  0.00    +0.039 C 
ATOM      3  C   UNL     1      32.878 -21.981 -18.182  0.00  0.00    -0.017 C 
ATOM      4  C   UNL     1      35.391 -22.052 -18.062  0.00  0.00    -0.017 C 
ATOM      5  C   UNL     1      33.007 -21.477 -19.622  0.00  0.00    -0.077 C 
ATOM      6  C   UNL     1      35.427 -21.546 -19.507  0.00  0.00    -0.077 C 
ATOM      7  H   UNL     1      34.243 -19.934 -19.158  0.00  0.00    -0.080 HD
ENDROOT
BRANCH   2  11
ATOM      8  F   UNL     1      30.420 -24.111 -12.293  0.00  0.00    -0.204 F 
ATOM      9  O   UNL     1      34.708 -24.126 -14.472  0.00  0.00    -0.354 OA
ATOM     10  N   UNL     1      35.120 -23.747 -15.744  0.00  0.00    -0.081 NA
ATOM     11  C   UNL     1      34.014 -23.324 -16.351  0.00  0.00    +0.100 A 
ATOM     12  C   UNL     1      32.874 -23.404 -15.537  0.00  0.00    +0.054 A 
ATOM     13  C   UNL     1      33.368 -23.920 -14.351  0.00  0.00    +0.179 A 
ATOM     14  C   UNL     1      31.506 -23.113 -15.636  0.00  0.00    +0.007 C 
ATOM     15  C   UNL     1      32.593 -24.179 -13.225  0.00  0.00    +0.070 C 
ATOM     16  C   UNL     1      30.694 -23.362 -14.521  0.00  0.00    +0.030 C 
ATOM     17  C   UNL     1      31.229 -23.886 -13.339  0.00  0.00    +0.143 C 
ENDBRANCH   2  11
BRANCH   1  18
ATOM     18  C   UNL     1      34.331 -20.196 -21.174  0.00  0.00    -0.076 C 
BRANCH  18  19
ATOM     19  C   UNL     1      35.422 -19.138 -21.259  0.00  0.00    -0.007 C 
BRANCH  19  23
ATOM     20  O   UNL     1      35.141 -16.556 -20.284  0.00  0.00    -0.274 OA
ATOM     21  N   UNL     1      34.426 -15.634 -22.309  0.00  0.00    -0.211 N 
ATOM     22  N   UNL     1      34.285 -17.028 -24.226  0.00  0.00    -0.395 NA
ATOM     23  C   UNL     1      34.998 -18.004 -22.146  0.00  0.00    +0.123 C 
ATOM     24  C   UNL     1      34.708 -18.085 -23.460  0.00  0.00    +0.097 C 
ATOM     25  C   UNL     1      34.866 -16.669 -21.479  0.00  0.00    +0.241 C 
ATOM     26  C   UNL     1      34.152 -15.866 -23.662  0.00  0.00    +0.188 C 
ATOM     27  C   UNL     1      34.841 -19.362 -24.248  0.00  0.00    +0.062 C 
ATOM     28  C   UNL     1      33.687 -14.691 -24.482  0.00  0.00    +0.023 C 
ATOM     29  C   UNL     1      34.268 -14.365 -21.763  0.00  0.00    +0.074 C 
ATOM     30  C   UNL     1      33.559 -13.498 -23.884  0.00  0.00    +0.001 C 
ATOM     31  C   UNL     1      33.856 -13.324 -22.491  0.00  0.00    +0.016 C 
ATOM     32  C   UNL     1      33.386 -14.911 -25.933  0.00  0.00    +0.035 C 
ENDBRANCH  19  23
ENDBRANCH  18  19
ENDBRANCH   1  18
TORSDOF 4
ENDMDL
MODEL 4
REMARK VINA RESULT:     -12.4      3.342     10.395
REMARK  Name = 71351
REMARK  4 active torsions:
REMARK  status: ('A' for Active; 'I' for Inactive)
REMARK    1  A    between atoms: N_1  and  C_18
REMARK    2  A    between atoms: C_2  and  C_11
REMARK    3  A    between atoms: C_18  and  C_19
REMARK    4  A    between atoms: C_19  and  C_23
REMARK                            x       y       z     vdW  Elec       q    Type
REMARK                         _______ _______ _______ _____ _____    ______ ____
ROOT
ATOM      1  N   UNL     1      34.181 -19.769 -21.001  0.00  0.00    +0.387 N 
ATOM      2  C   UNL     1      34.439 -21.941 -19.045  0.00  0.00    +0.039 C 
ATOM      3  C   UNL     1      33.158 -21.100 -19.181  0.00  0.00    -0.017 C 
ATOM      4  C   UNL     1      35.648 -21.136 -19.549  0.00  0.00    -0.017 C 
ATOM      5  C   UNL     1      33.003 -20.551 -20.601  0.00  0.00    -0.077 C 
ATOM      6  C   UNL     1      35.400 -20.587 -20.956  0.00  0.00    -0.077 C 
ATOM      7  H   UNL     1      34.291 -19.004 -20.335  0.00  0.00    -0.080 HD
ENDROOT
BRANCH   2  11
ATOM      8  F   UNL     1      31.827 -24.432 -13.370  0.00  0.00    -0.204 F 
ATOM      9  O   UNL     1      35.708 -23.089 -15.874  0.00  0.00    -0.354 OA
ATOM     10  N   UNL     1      35.871 -22.566 -17.151  0.00  0.00    -0.081 NA
ATOM     11  C   UNL     1      34.638 -22.478 -17.646  0.00  0.00    +0.100 A 
ATOM     12  C   UNL     1      33.653 -22.922 -16.751  0.00  0.00    +0.054 A 
ATOM     13  C   UNL     1      34.384 -23.300 -15.638  0.00  0.00    +0.179 A 
ATOM     14  C   UNL     1      32.257 -23.055 -16.727  0.00  0.00    +0.007 C 
ATOM     15  C   UNL     1      33.827 -23.814 -14.471  0.00  0.00    +0.070 C 
ATOM     16  C   UNL     1      31.661 -23.571 -15.568  0.00  0.00    +0.030 C 
ATOM     17  C   UNL     1      32.433 -23.943 -14.462  0.00  0.00    +0.143 C 
ENDBRANCH   2  11
BRANCH   1  18
ATOM     18  C   UNL     1      33.991 -19.205 -22.337  0.00  0.00    -0.076 C 
BRANCH  18  19
ATOM     19  C   UNL     1      35.177 -18.324 -22.700  0.00  0.00    -0.007 C 
BRANCH  19  23
ATOM     20  O   UNL     1      34.480 -17.533 -25.266  0.00  0.00    -0.274 OA
ATOM     21  N   UNL     1      34.038 -15.310 -24.697  0.00  0.00    -0.211 N 
ATOM     22  N   UNL     1      34.246 -14.635 -22.429  0.00  0.00    -0.395 NA
ATOM     23  C   UNL     1      34.731 -16.922 -22.997  0.00  0.00    +0.123 C 
ATOM     24  C   UNL     1      34.621 -15.916 -22.108  0.00  0.00    +0.097 C 
ATOM     25  C   UNL     1      34.408 -16.632 -24.431  0.00  0.00    +0.241 C 
ATOM     26  C   UNL     1      33.974 -14.361 -23.669  0.00  0.00    +0.188 C 
ATOM     27  C   UNL     1      34.879 -16.096 -20.634  0.00  0.00    +0.062 C 
ATOM     28  C   UNL     1      33.563 -12.963 -24.048  0.00  0.00    +0.023 C 
ATOM     29  C   UNL     1      33.732 -14.956 -26.006  0.00  0.00    +0.074 C 
ATOM     30  C   UNL     1      33.283 -12.698 -25.332  0.00  0.00    +0.001 C 
ATOM     31  C   UNL     1      33.367 -13.715 -26.340  0.00  0.00    +0.016 C 
ATOM     32  C   UNL     1      33.487 -11.927 -22.968  0.00  0.00    +0.035 C 
ENDBRANCH  19  23
ENDBRANCH  18  19
ENDBRANCH   1  18
TORSDOF 4
ENDMDL
MODEL 5
REMARK VINA RESULT:     -12.3      4.311     10.514
REMARK  Name = 71351
REMARK  4 active torsions:
REMARK  status: ('A' for Active; 'I' for Inactive)
REMARK    1  A    between atoms: N_1  and  C_18
REMARK    2  A    between atoms: C_2  and  C_11
REMARK    3  A    between atoms: C_18  and  C_19
REMARK    4  A    between atoms: C_19  and  C_23
REMARK                            x       y       z     vdW  Elec       q    Type
REMARK                         _______ _______ _______ _____ _____    ______ ____
ROOT
ATOM      1  N   UNL     1      35.014 -15.462 -23.121  0.00  0.00    +0.387 N 
ATOM      2  C   UNL     1      34.721 -17.967 -21.623  0.00  0.00    +0.039 C 
ATOM      3  C   UNL     1      34.969 -16.617 -20.932  0.00  0.00    -0.017 C 
ATOM      4  C   UNL     1      35.261 -17.925 -23.062  0.00  0.00    -0.017 C 
ATOM      5  C   UNL     1      34.431 -15.456 -21.773  0.00  0.00    -0.077 C 
ATOM      6  C   UNL     1      34.712 -16.716 -23.824  0.00  0.00    -0.077 C 
ATOM      7  H   UNL     1      36.028 -15.391 -23.026  0.00  0.00    -0.080 HD
ENDROOT
BRANCH   2  11
ATOM      8  F   UNL     1      33.611 -23.599 -18.118  0.00  0.00    -0.204 F 
ATOM      9  O   UNL     1      36.737 -20.407 -19.901  0.00  0.00    -0.354 OA
ATOM     10  N   UNL     1      36.576 -19.250 -20.653  0.00  0.00    -0.081 NA
ATOM     11  C   UNL     1      35.262 -19.136 -20.832  0.00  0.00    +0.100 A 
ATOM     12  C   UNL     1      34.533 -20.173 -20.229  0.00  0.00    +0.054 A 
ATOM     13  C   UNL     1      35.517 -20.956 -19.650  0.00  0.00    +0.179 A 
ATOM     14  C   UNL     1      33.191 -20.554 -20.094  0.00  0.00    +0.007 C 
ATOM     15  C   UNL     1      35.269 -22.119 -18.927  0.00  0.00    +0.070 C 
ATOM     16  C   UNL     1      32.904 -21.722 -19.372  0.00  0.00    +0.030 C 
ATOM     17  C   UNL     1      33.926 -22.488 -18.801  0.00  0.00    +0.143 C 
ENDBRANCH   2  11
BRANCH   1  18
ATOM     18  C   UNL     1      34.535 -14.314 -23.892  0.00  0.00    -0.076 C 
BRANCH  18  19
ATOM     19  C   UNL     1      33.092 -14.005 -23.516  0.00  0.00    -0.007 C 
BRANCH  19  23
ATOM     20  O   UNL     1      31.947 -13.458 -21.049  0.00  0.00    -0.274 OA
ATOM     21  N   UNL     1      32.149 -11.137 -21.225  0.00  0.00    -0.211 N 
ATOM     22  N   UNL     1      33.185 -10.210 -23.151  0.00  0.00    -0.395 NA
ATOM     23  C   UNL     1      32.963 -12.601 -23.003  0.00  0.00    +0.123 C 
ATOM     24  C   UNL     1      33.359 -11.481 -23.639  0.00  0.00    +0.097 C 
ATOM     25  C   UNL     1      32.303 -12.454 -21.667  0.00  0.00    +0.241 C 
ATOM     26  C   UNL     1      32.604 -10.063 -21.999  0.00  0.00    +0.188 C 
ATOM     27  C   UNL     1      34.068 -11.504 -24.968  0.00  0.00    +0.062 C 
ATOM     28  C   UNL     1      32.399  -8.678 -21.443  0.00  0.00    +0.023 C 
ATOM     29  C   UNL     1      31.537 -10.914 -19.996  0.00  0.00    +0.074 C 
ATOM     30  C   UNL     1      31.800  -8.543 -20.251  0.00  0.00    +0.001 C 
ATOM     31  C   UNL     1      31.357  -9.685 -19.505  0.00  0.00    +0.016 C 
ATOM     32  C   UNL     1      32.875  -7.510 -22.251  0.00  0.00    +0.035 C 
ENDBRANCH  19  23
ENDBRANCH  18  19
ENDBRANCH   1  18
TORSDOF 4
ENDMDL
MODEL 6
REMARK VINA RESULT:     -12.0      3.299     10.420
REMARK  Name = 71351
REMARK  4 active torsions:
REMARK  status: ('A' for Active; 'I' for Inactive)
REMARK    1  A    between atoms: N_1  and  C_18
REMARK    2  A    between atoms: C_2  and  C_11
REMARK    3  A    between atoms: C_18  and  C_19
REMARK    4  A    between atoms: C_19  and  C_23
REMARK                            x       y       z     vdW  Elec       q    Type
REMARK                         _______ _______ _______ _____ _____    ______ ____
ROOT
ATOM      1  N   UNL     1      35.565 -18.865 -20.948  0.00  0.00    +0.387 N 
ATOM      2  C   UNL     1      35.127 -21.434 -19.602  0.00  0.00    +0.039 C 
ATOM      3  C   UNL     1      33.969 -20.508 -20.010  0.00  0.00    -0.017 C 
ATOM      4  C   UNL     1      36.411 -20.612 -19.412  0.00  0.00    -0.017 C 
ATOM      5  C   UNL     1      34.348 -19.644 -21.215  0.00  0.00    -0.077 C 
ATOM      6  C   UNL     1      36.701 -19.744 -20.640  0.00  0.00    -0.077 C 
ATOM      7  H   UNL     1      35.391 -18.278 -20.132  0.00  0.00    -0.080 HD
ENDROOT
BRANCH   2  11
ATOM      8  F   UNL     1      36.680 -23.569 -13.416  0.00  0.00    -0.204 F 
ATOM      9  O   UNL     1      33.686 -23.679 -17.178  0.00  0.00    -0.354 OA
ATOM     10  N   UNL     1      33.695 -23.034 -18.410  0.00  0.00    -0.081 NA
ATOM     11  C   UNL     1      34.796 -22.286 -18.397  0.00  0.00    +0.100 A 
ATOM     12  C   UNL     1      35.526 -22.402 -17.204  0.00  0.00    +0.054 A 
ATOM     13  C   UNL     1      34.779 -23.299 -16.461  0.00  0.00    +0.179 A 
ATOM     14  C   UNL     1      36.705 -21.878 -16.655  0.00  0.00    +0.007 C 
ATOM     15  C   UNL     1      35.116 -23.730 -15.182  0.00  0.00    +0.070 C 
ATOM     16  C   UNL     1      37.075 -22.290 -15.367  0.00  0.00    +0.030 C 
ATOM     17  C   UNL     1      36.293 -23.199 -14.646  0.00  0.00    +0.143 C 
ENDBRANCH   2  11
BRANCH   1  18
ATOM     18  C   UNL     1      35.880 -18.002 -22.087  0.00  0.00    -0.076 C 
BRANCH  18  19
ATOM     19  C   UNL     1      34.657 -17.860 -22.982  0.00  0.00    -0.007 C 
BRANCH  19  23
ATOM     20  O   UNL     1      34.062 -17.004 -25.553  0.00  0.00    -0.274 OA
ATOM     21  N   UNL     1      33.890 -14.741 -24.995  0.00  0.00    -0.211 N 
ATOM     22  N   UNL     1      34.175 -14.085 -22.730  0.00  0.00    -0.395 NA
ATOM     23  C   UNL     1      34.383 -16.416 -23.286  0.00  0.00    +0.123 C 
ATOM     24  C   UNL     1      34.393 -15.400 -22.402  0.00  0.00    +0.097 C 
ATOM     25  C   UNL     1      34.098 -16.096 -24.722  0.00  0.00    +0.241 C 
ATOM     26  C   UNL     1      33.939 -13.787 -23.972  0.00  0.00    +0.188 C 
ATOM     27  C   UNL     1      34.627 -15.603 -20.927  0.00  0.00    +0.062 C 
ATOM     28  C   UNL     1      33.699 -12.351 -24.357  0.00  0.00    +0.023 C 
ATOM     29  C   UNL     1      33.629 -14.359 -26.306  0.00  0.00    +0.074 C 
ATOM     30  C   UNL     1      33.453 -12.060 -25.643  0.00  0.00    +0.001 C 
ATOM     31  C   UNL     1      33.416 -13.085 -26.646  0.00  0.00    +0.016 C 
ATOM     32  C   UNL     1      33.747 -11.308 -23.283  0.00  0.00    +0.035 C 
ENDBRANCH  19  23
ENDBRANCH  18  19
ENDBRANCH   1  18
TORSDOF 4
ENDMDL
MODEL 7
REMARK VINA RESULT:     -12.0      2.550      4.301
REMARK  Name = 71351
REMARK  4 active torsions:
REMARK  status: ('A' for Active; 'I' for Inactive)
REMARK    1  A    between atoms: N_1  and  C_18
REMARK    2  A    between atoms: C_2  and  C_11
REMARK    3  A    between atoms: C_18  and  C_19
REMARK    4  A    between atoms: C_19  and  C_23
REMARK                            x       y       z     vdW  Elec       q    Type
REMARK                         _______ _______ _______ _____ _____    ______ ____
ROOT
ATOM      1  N   UNL     1      35.233 -16.984 -23.018  0.00  0.00    +0.387 N 
ATOM      2  C   UNL     1      33.679 -14.498 -23.093  0.00  0.00    +0.039 C 
ATOM      3  C   UNL     1      34.164 -15.206 -24.368  0.00  0.00    -0.017 C 
ATOM      4  C   UNL     1      34.591 -14.865 -21.912  0.00  0.00    -0.017 C 
ATOM      5  C   UNL     1      34.325 -16.711 -24.140  0.00  0.00    -0.077 C 
ATOM      6  C   UNL     1      34.736 -16.383 -21.774  0.00  0.00    -0.077 C 
ATOM      7  H   UNL     1      36.136 -16.560 -23.234  0.00  0.00    -0.080 HD
ENDROOT
BRANCH   2  11
ATOM      8  F   UNL     1      31.226  -8.615 -20.946  0.00  0.00    -0.204 F 
ATOM      9  O   UNL     1      33.793 -11.067 -24.191  0.00  0.00    -0.354 OA
ATOM     10  N   UNL     1      34.114 -12.414 -24.316  0.00  0.00    -0.081 NA
ATOM     11  C   UNL     1      33.533 -13.004 -23.274  0.00  0.00    +0.100 A 
ATOM     12  C   UNL     1      32.834 -12.106 -22.453  0.00  0.00    +0.054 A 
ATOM     13  C   UNL     1      33.030 -10.887 -23.078  0.00  0.00    +0.179 A 
ATOM     14  C   UNL     1      32.069 -12.155 -21.279  0.00  0.00    +0.007 C 
ATOM     15  C   UNL     1      32.514  -9.678 -22.620  0.00  0.00    +0.070 C 
ATOM     16  C   UNL     1      31.534 -10.955 -20.787  0.00  0.00    +0.030 C 
ATOM     17  C   UNL     1      31.754  -9.741 -21.447  0.00  0.00    +0.143 C 
ENDBRANCH   2  11
BRANCH   1  18
ATOM     18  C   UNL     1      35.421 -18.426 -22.851  0.00  0.00    -0.076 C 
BRANCH  18  19
ATOM     19  C   UNL     1      34.232 -19.020 -22.110  0.00  0.00    -0.007 C 
BRANCH  19  23
ATOM     20  O   UNL     1      32.482 -20.651 -20.706  0.00  0.00    -0.274 OA
ATOM     21  N   UNL     1      34.060 -21.365 -19.137  0.00  0.00    -0.211 N 
ATOM     22  N   UNL     1      36.301 -20.601 -19.324  0.00  0.00    -0.395 NA
ATOM     23  C   UNL     1      34.687 -19.833 -20.934  0.00  0.00    +0.123 C 
ATOM     24  C   UNL     1      35.936 -19.873 -20.428  0.00  0.00    +0.097 C 
ATOM     25  C   UNL     1      33.629 -20.649 -20.258  0.00  0.00    +0.241 C 
ATOM     26  C   UNL     1      35.395 -21.306 -18.718  0.00  0.00    +0.188 C 
ATOM     27  C   UNL     1      37.091 -19.127 -21.045  0.00  0.00    +0.062 C 
ATOM     28  C   UNL     1      35.771 -22.112 -17.502  0.00  0.00    +0.023 C 
ATOM     29  C   UNL     1      33.136 -22.141 -18.447  0.00  0.00    +0.074 C 
ATOM     30  C   UNL     1      34.823 -22.836 -16.890  0.00  0.00    +0.001 C 
ATOM     31  C   UNL     1      33.471 -22.855 -17.369  0.00  0.00    +0.016 C 
ATOM     32  C   UNL     1      37.192 -22.067 -17.030  0.00  0.00    +0.035 C 
ENDBRANCH  19  23
ENDBRANCH  18  19
ENDBRANCH   1  18
TORSDOF 4
ENDMDL
MODEL 8
REMARK VINA RESULT:     -12.0      1.275      1.979
REMARK  Name = 71351
REMARK  4 active torsions:
REMARK  status: ('A' for Active; 'I' for Inactive)
REMARK    1  A    between atoms: N_1  and  C_18
REMARK    2  A    between atoms: C_2  and  C_11
REMARK    3  A    between atoms: C_18  and  C_19
REMARK    4  A    between atoms: C_19  and  C_23
REMARK                            x       y       z     vdW  Elec       q    Type
REMARK                         _______ _______ _______ _____ _____    ______ ____
ROOT
ATOM      1  N   UNL     1      35.970 -20.741 -20.194  0.00  0.00    +0.387 N 
ATOM      2  C   UNL     1      34.958 -18.449 -21.718  0.00  0.00    +0.039 C 
ATOM      3  C   UNL     1      34.136 -19.733 -21.516  0.00  0.00    -0.017 C 
ATOM      4  C   UNL     1      36.458 -18.765 -21.601  0.00  0.00    -0.017 C 
ATOM      5  C   UNL     1      34.531 -20.445 -20.220  0.00  0.00    -0.077 C 
ATOM      6  C   UNL     1      36.767 -19.512 -20.302  0.00  0.00    -0.077 C 
ATOM      7  H   UNL     1      36.185 -21.328 -21.000  0.00  0.00    -0.080 HD
ENDROOT
BRANCH   2  11
ATOM      8  F   UNL     1      33.651 -12.713 -24.977  0.00  0.00    -0.204 F 
ATOM      9  O   UNL     1      34.152 -17.494 -25.099  0.00  0.00    -0.354 OA
ATOM     10  N   UNL     1      34.459 -18.435 -24.122  0.00  0.00    -0.081 NA
ATOM     11  C   UNL     1      34.612 -17.731 -23.003  0.00  0.00    +0.100 A 
ATOM     12  C   UNL     1      34.421 -16.353 -23.190  0.00  0.00    +0.054 A 
ATOM     13  C   UNL     1      34.131 -16.254 -24.540  0.00  0.00    +0.179 A 
ATOM     14  C   UNL     1      34.453 -15.187 -22.411  0.00  0.00    +0.007 C 
ATOM     15  C   UNL     1      33.863 -15.058 -25.198  0.00  0.00    +0.070 C 
ATOM     16  C   UNL     1      34.188 -13.963 -23.042  0.00  0.00    +0.030 C 
ATOM     17  C   UNL     1      33.899 -13.902 -24.410  0.00  0.00    +0.143 C 
ENDBRANCH   2  11
BRANCH   1  18
ATOM     18  C   UNL     1      36.319 -21.473 -18.976  0.00  0.00    -0.076 C 
BRANCH  18  19
ATOM     19  C   UNL     1      35.056 -21.987 -18.300  0.00  0.00    -0.007 C 
BRANCH  19  23
ATOM     20  O   UNL     1      33.265 -23.526 -16.845  0.00  0.00    -0.274 OA
ATOM     21  N   UNL     1      34.520 -23.517 -14.874  0.00  0.00    -0.211 N 
ATOM     22  N   UNL     1      36.620 -22.408 -14.848  0.00  0.00    -0.395 NA
ATOM     23  C   UNL     1      35.333 -22.383 -16.880  0.00  0.00    +0.123 C 
ATOM     24  C   UNL     1      36.425 -22.058 -16.160  0.00  0.00    +0.097 C 
ATOM     25  C   UNL     1      34.267 -23.195 -16.211  0.00  0.00    +0.241 C 
ATOM     26  C   UNL     1      35.701 -23.102 -14.247  0.00  0.00    +0.188 C 
ATOM     27  C   UNL     1      37.580 -21.280 -16.735  0.00  0.00    +0.062 C 
ATOM     28  C   UNL     1      35.891 -23.497 -12.806  0.00  0.00    +0.023 C 
ATOM     29  C   UNL     1      33.574 -24.261 -14.178  0.00  0.00    +0.074 C 
ATOM     30  C   UNL     1      34.934 -24.216 -12.202  0.00  0.00    +0.001 C 
ATOM     31  C   UNL     1      33.744 -24.611 -12.900  0.00  0.00    +0.016 C 
ATOM     32  C   UNL     1      37.146 -23.066 -12.110  0.00  0.00    +0.035 C 
ENDBRANCH  19  23
ENDBRANCH  18  19
ENDBRANCH   1  18
TORSDOF 4
ENDMDL
MODEL 9
REMARK VINA RESULT:     -11.9      3.769     10.512
REMARK  Name = 71351
REMARK  4 active torsions:
REMARK  status: ('A' for Active; 'I' for Inactive)
REMARK    1  A    between atoms: N_1  and  C_18
REMARK    2  A    between atoms: C_2  and  C_11
REMARK    3  A    between atoms: C_18  and  C_19
REMARK    4  A    between atoms: C_19  and  C_23
REMARK                            x       y       z     vdW  Elec       q    Type
REMARK                         _______ _______ _______ _____ _____    ______ ____
ROOT
ATOM      1  N   UNL     1      34.202 -20.835 -19.609  0.00  0.00    +0.387 N 
ATOM      2  C   UNL     1      34.294 -22.860 -17.489  0.00  0.00    +0.039 C 
ATOM      3  C   UNL     1      32.985 -22.181 -17.925  0.00  0.00    -0.017 C 
ATOM      4  C   UNL     1      35.488 -21.948 -17.810  0.00  0.00    -0.017 C 
ATOM      5  C   UNL     1      33.056 -21.727 -19.385  0.00  0.00    -0.077 C 
ATOM      6  C   UNL     1      35.467 -21.503 -19.275  0.00  0.00    -0.077 C 
ATOM      7  H   UNL     1      34.099 -20.029 -18.992  0.00  0.00    -0.080 HD
ENDROOT
BRANCH   2  11
ATOM      8  F   UNL     1      37.617 -24.551 -11.892  0.00  0.00    -0.204 F 
ATOM      9  O   UNL     1      33.421 -23.877 -14.144  0.00  0.00    -0.354 OA
ATOM     10  N   UNL     1      33.098 -23.485 -15.437  0.00  0.00    -0.081 NA
ATOM     11  C   UNL     1      34.269 -23.300 -16.043  0.00  0.00    +0.100 A 
ATOM     12  C   UNL     1      35.366 -23.552 -15.205  0.00  0.00    +0.054 A 
ATOM     13  C   UNL     1      34.775 -23.915 -14.008  0.00  0.00    +0.179 A 
ATOM     14  C   UNL     1      36.766 -23.524 -15.293  0.00  0.00    +0.007 C 
ATOM     15  C   UNL     1      35.478 -24.263 -12.859  0.00  0.00    +0.070 C 
ATOM     16  C   UNL     1      37.508 -23.867 -14.154  0.00  0.00    +0.030 C 
ATOM     17  C   UNL     1      36.873 -24.229 -12.960  0.00  0.00    +0.143 C 
ENDBRANCH   2  11
BRANCH   1  18
ATOM     18  C   UNL     1      34.221 -20.365 -20.995  0.00  0.00    -0.076 C 
BRANCH  18  19
ATOM     19  C   UNL     1      35.393 -19.416 -21.203  0.00  0.00    -0.007 C 
BRANCH  19  23
ATOM     20  O   UNL     1      35.219 -16.826 -20.224  0.00  0.00    -0.274 OA
ATOM     21  N   UNL     1      34.513 -15.878 -22.241  0.00  0.00    -0.211 N 
ATOM     22  N   UNL     1      34.297 -17.266 -24.156  0.00  0.00    -0.395 NA
ATOM     23  C   UNL     1      35.000 -18.267 -22.085  0.00  0.00    +0.123 C 
ATOM     24  C   UNL     1      34.691 -18.337 -23.394  0.00  0.00    +0.097 C 
ATOM     25  C   UNL     1      34.925 -16.929 -21.415  0.00  0.00    +0.241 C 
ATOM     26  C   UNL     1      34.215 -16.100 -23.590  0.00  0.00    +0.188 C 
ATOM     27  C   UNL     1      34.768 -19.618 -24.184  0.00  0.00    +0.062 C 
ATOM     28  C   UNL     1      33.782 -14.908 -24.405  0.00  0.00    +0.023 C 
ATOM     29  C   UNL     1      34.409 -14.604 -21.693  0.00  0.00    +0.074 C 
ATOM     30  C   UNL     1      33.706 -13.711 -23.806  0.00  0.00    +0.001 C 
ATOM     31  C   UNL     1      34.026 -13.549 -22.417  0.00  0.00    +0.016 C 
ATOM     32  C   UNL     1      33.456 -15.117 -25.851  0.00  0.00    +0.035 C 
ENDBRANCH  19  23
ENDBRANCH  18  19
ENDBRANCH   1  18
TORSDOF 4
ENDMDL
