MODEL 1
REMARK VINA RESULT:     -12.5      0.000      0.000
REMARK  Name = 9999276
REMARK  5 active torsions:
REMARK  status: ('A' for Active; 'I' for Inactive)
REMARK    1  A    between atoms: C_3  and  C_11
REMARK    2  A    between atoms: C_6  and  C_20
REMARK    3  A    between atoms: C_14  and  N_19
REMARK    4  A    between atoms: C_25  and  C_27
REMARK    5  A    between atoms: C_27  and  O_28
REMARK                            x       y       z     vdW  Elec       q    Type
REMARK                         _______ _______ _______ _____ _____    ______ ____
ROOT
ATOM      1  N   UNL     1      34.662 -23.249 -16.237  0.00  0.00    -0.400 NA
ATOM      2  N   UNL     1      32.710 -24.950 -13.664  0.00  0.00    -0.242 NA
ATOM      3  C   UNL     1      34.292 -23.962 -15.147  0.00  0.00    +0.149 C 
ATOM      4  C   UNL     1      32.987 -24.229 -14.768  0.00  0.00    +0.107 C 
ATOM      5  C   UNL     1      31.980 -23.707 -15.598  0.00  0.00    +0.005 C 
ATOM      6  C   UNL     1      33.665 -22.768 -17.005  0.00  0.00    +0.131 C 
ATOM      7  C   UNL     1      32.323 -22.964 -16.735  0.00  0.00    +0.030 C 
ATOM      8  C   UNL     1      30.646 -23.956 -15.249  0.00  0.00    +0.056 C 
ATOM      9  C   UNL     1      30.350 -24.698 -14.113  0.00  0.00    -0.001 C 
ATOM     10  C   UNL     1      31.408 -25.168 -13.362  0.00  0.00    +0.095 C 
ENDROOT
BRANCH   3  11
ATOM     11  C   UNL     1      35.417 -24.446 -14.373  0.00  0.00    +0.033 C 
ATOM     12  C   UNL     1      35.834 -23.749 -13.241  0.00  0.00    +0.027 C 
ATOM     13  C   UNL     1      36.081 -25.608 -14.765  0.00  0.00    +0.003 C 
ATOM     14  C   UNL     1      36.917 -24.216 -12.496  0.00  0.00    +0.143 C 
ATOM     15  C   UNL     1      37.164 -26.075 -14.020  0.00  0.00    +0.002 C 
ATOM     16  C   UNL     1      37.583 -25.378 -12.886  0.00  0.00    +0.024 C 
BRANCH  14  19
ATOM     17  O   UNL     1      37.049 -23.964 -10.212  0.00  0.00    -0.126 OA
ATOM     18  O   UNL     1      38.000 -22.451 -11.491  0.00  0.00    -0.126 OA
ATOM     19  N   UNL     1      37.344 -23.508 -11.341  0.00  0.00    +0.058 N 
ENDBRANCH  14  19
ENDBRANCH   3  11
BRANCH   6  20
ATOM     20  C   UNL     1      34.092 -22.011 -18.158  0.00  0.00    +0.030 C 
ATOM     21  C   UNL     1      35.451 -21.890 -18.456  0.00  0.00    +0.003 C 
ATOM     22  C   UNL     1      33.145 -21.396 -18.981  0.00  0.00    +0.003 C 
ATOM     23  C   UNL     1      35.862 -21.160 -19.571  0.00  0.00    +0.007 C 
ATOM     24  C   UNL     1      33.557 -20.665 -20.096  0.00  0.00    +0.007 C 
ATOM     25  C   UNL     1      34.914 -20.547 -20.390  0.00  0.00    +0.075 C 
BRANCH  25  27
ATOM     26  O   UNL     1      34.798 -19.805 -22.662  0.00  0.00    -0.245 OA
ATOM     27  C   UNL     1      35.342 -19.785 -21.553  0.00  0.00    +0.338 C 
BRANCH  27  28
ATOM     28  O   UNL     1      36.436 -19.017 -21.298  0.00  0.00    -0.477 OA
ATOM     29  H   UNL     1      37.095 -18.905 -21.955  0.00  0.00    +0.295 HD
ENDBRANCH  27  28
ENDBRANCH  25  27
ENDBRANCH   6  20
TORSDOF 5
ENDMDL
MODEL 2
REMARK VINA RESULT:     -12.2      1.724      2.007
REMARK  Name = 9999276
REMARK  5 active torsions:
REMARK  status: ('A' for Active; 'I' for Inactive)
REMARK    1  A    between atoms: C_3  and  C_11
REMARK    2  A    between atoms: C_6  and  C_20
REMARK    3  A    between atoms: C_14  and  N_19
REMARK    4  A    between atoms: C_25  and  C_27
REMARK    5  A    between atoms: C_27  and  O_28
REMARK                            x       y       z     vdW  Elec       q    Type
REMARK                         _______ _______ _______ _____ _____    ______ ____
ROOT
ATOM      1  N   UNL     1      34.744 -22.941 -16.388  0.00  0.00    -0.400 NA
ATOM      2  N   UNL     1      32.977 -24.751 -13.757  0.00  0.00    -0.242 NA
ATOM      3  C   UNL     1      34.448 -23.648 -15.272  0.00  0.00    +0.149 C 
ATOM      4  C   UNL     1      33.179 -24.047 -14.887  0.00  0.00    +0.107 C 
ATOM      5  C   UNL     1      32.126 -23.677 -15.741  0.00  0.00    +0.005 C 
ATOM      6  C   UNL     1      33.705 -22.607 -17.179  0.00  0.00    +0.131 C 
ATOM      7  C   UNL     1      32.391 -22.945 -16.906  0.00  0.00    +0.030 C 
ATOM      8  C   UNL     1      30.826 -24.062 -15.388  0.00  0.00    +0.056 C 
ATOM      9  C   UNL     1      30.607 -24.787 -14.224  0.00  0.00    -0.001 C 
ATOM     10  C   UNL     1      31.706 -25.104 -13.450  0.00  0.00    +0.095 C 
ENDROOT
BRANCH   3  11
ATOM     11  C   UNL     1      35.615 -23.970 -14.475  0.00  0.00    +0.033 C 
ATOM     12  C   UNL     1      36.365 -25.107 -14.769  0.00  0.00    +0.027 C 
ATOM     13  C   UNL     1      35.983 -23.142 -13.416  0.00  0.00    +0.003 C 
ATOM     14  C   UNL     1      37.488 -25.417 -14.002  0.00  0.00    +0.143 C 
ATOM     15  C   UNL     1      37.106 -23.451 -12.649  0.00  0.00    +0.002 C 
ATOM     16  C   UNL     1      37.858 -24.590 -12.941  0.00  0.00    +0.024 C 
BRANCH  14  19
ATOM     17  O   UNL     1      39.505 -26.486 -14.298  0.00  0.00    -0.126 OA
ATOM     18  O   UNL     1      37.655 -27.646 -14.551  0.00  0.00    -0.126 OA
ATOM     19  N   UNL     1      38.254 -26.575 -14.299  0.00  0.00    +0.058 N 
ENDBRANCH  14  19
ENDBRANCH   3  11
BRANCH   6  20
ATOM     20  C   UNL     1      34.052 -21.854 -18.360  0.00  0.00    +0.030 C 
ATOM     21  C   UNL     1      35.390 -21.705 -18.730  0.00  0.00    +0.003 C 
ATOM     22  C   UNL     1      33.049 -21.269 -19.137  0.00  0.00    +0.003 C 
ATOM     23  C   UNL     1      35.724 -20.977 -19.872  0.00  0.00    +0.007 C 
ATOM     24  C   UNL     1      33.383 -20.540 -20.279  0.00  0.00    +0.007 C 
ATOM     25  C   UNL     1      34.720 -20.395 -20.646  0.00  0.00    +0.075 C 
BRANCH  25  27
ATOM     26  O   UNL     1      34.367 -19.531 -22.850  0.00  0.00    -0.245 OA
ATOM     27  C   UNL     1      35.068 -19.635 -21.837  0.00  0.00    +0.338 C 
BRANCH  27  28
ATOM     28  O   UNL     1      36.280 -19.025 -21.730  0.00  0.00    -0.477 OA
ATOM     29  H   UNL     1      36.717 -18.991 -20.901  0.00  0.00    +0.295 HD
ENDBRANCH  27  28
ENDBRANCH  25  27
ENDBRANCH   6  20
TORSDOF 5
ENDMDL
MODEL 3
REMARK VINA RESULT:     -11.4      3.263      5.287
REMARK  Name = 9999276
REMARK  5 active torsions:
REMARK  status: ('A' for Active; 'I' for Inactive)
REMARK    1  A    between atoms: C_3  and  C_11
REMARK    2  A    between atoms: C_6  and  C_20
REMARK    3  A    between atoms: C_14  and  N_19
REMARK    4  A    between atoms: C_25  and  C_27
REMARK    5  A    between atoms: C_27  and  O_28
REMARK                            x       y       z     vdW  Elec       q    Type
REMARK                         _______ _______ _______ _____ _____    ______ ____
ROOT
ATOM      1  N   UNL     1      33.216 -22.747 -16.900  0.00  0.00    -0.400 NA
ATOM      2  N   UNL     1      34.065 -24.518 -13.823  0.00  0.00    -0.242 NA
ATOM      3  C   UNL     1      33.146 -23.447 -15.743  0.00  0.00    +0.149 C 
ATOM      4  C   UNL     1      34.228 -23.821 -14.964  0.00  0.00    +0.107 C 
ATOM      5  C   UNL     1      35.495 -23.432 -15.432  0.00  0.00    +0.005 C 
ATOM      6  C   UNL     1      34.450 -22.394 -17.312  0.00  0.00    +0.131 C 
ATOM      7  C   UNL     1      35.609 -22.707 -16.625  0.00  0.00    +0.030 C 
ATOM      8  C   UNL     1      36.616 -23.791 -14.673  0.00  0.00    +0.056 C 
ATOM      9  C   UNL     1      36.457 -24.510 -13.495  0.00  0.00    -0.001 C 
ATOM     10  C   UNL     1      35.172 -24.845 -13.117  0.00  0.00    +0.095 C 
ENDROOT
BRANCH   3  11
ATOM     11  C   UNL     1      31.789 -23.788 -15.365  0.00  0.00    +0.033 C 
ATOM     12  C   UNL     1      30.718 -23.328 -16.128  0.00  0.00    +0.027 C 
ATOM     13  C   UNL     1      31.559 -24.575 -14.237  0.00  0.00    +0.003 C 
ATOM     14  C   UNL     1      29.412 -23.657 -15.763  0.00  0.00    +0.143 C 
ATOM     15  C   UNL     1      30.254 -24.904 -13.872  0.00  0.00    +0.002 C 
ATOM     16  C   UNL     1      29.180 -24.444 -14.635  0.00  0.00    +0.024 C 
BRANCH  14  19
ATOM     17  O   UNL     1      27.606 -24.027 -17.141  0.00  0.00    -0.126 OA
ATOM     18  O   UNL     1      28.104 -21.957 -16.598  0.00  0.00    -0.126 OA
ATOM     19  N   UNL     1      28.319 -23.189 -16.540  0.00  0.00    +0.058 N 
ENDBRANCH  14  19
ENDBRANCH   3  11
BRANCH   6  20
ATOM     20  C   UNL     1      34.492 -21.650 -18.549  0.00  0.00    +0.030 C 
ATOM     21  C   UNL     1      33.307 -21.250 -19.169  0.00  0.00    +0.003 C 
ATOM     22  C   UNL     1      35.721 -21.330 -19.131  0.00  0.00    +0.003 C 
ATOM     23  C   UNL     1      33.349 -20.530 -20.363  0.00  0.00    +0.007 C 
ATOM     24  C   UNL     1      35.763 -20.610 -20.326  0.00  0.00    +0.007 C 
ATOM     25  C   UNL     1      34.577 -20.212 -20.941  0.00  0.00    +0.075 C 
BRANCH  25  27
ATOM     26  O   UNL     1      33.653 -19.224 -22.915  0.00  0.00    -0.245 OA
ATOM     27  C   UNL     1      34.622 -19.462 -22.188  0.00  0.00    +0.338 C 
BRANCH  27  28
ATOM     28  O   UNL     1      35.877 -19.030 -22.490  0.00  0.00    -0.477 OA
ATOM     29  H   UNL     1      36.560 -19.086 -21.850  0.00  0.00    +0.295 HD
ENDBRANCH  27  28
ENDBRANCH  25  27
ENDBRANCH   6  20
TORSDOF 5
ENDMDL
MODEL 4
REMARK VINA RESULT:      -9.9      2.196      4.514
REMARK  Name = 9999276
REMARK  5 active torsions:
REMARK  status: ('A' for Active; 'I' for Inactive)
REMARK    1  A    between atoms: C_3  and  C_11
REMARK    2  A    between atoms: C_6  and  C_20
REMARK    3  A    between atoms: C_14  and  N_19
REMARK    4  A    between atoms: C_25  and  C_27
REMARK    5  A    between atoms: C_27  and  O_28
REMARK                            x       y       z     vdW  Elec       q    Type
REMARK                         _______ _______ _______ _____ _____    ______ ____
ROOT
ATOM      1  N   UNL     1      34.259 -22.033 -17.694  0.00  0.00    -0.400 NA
ATOM      2  N   UNL     1      35.542 -23.781 -14.758  0.00  0.00    -0.242 NA
ATOM      3  C   UNL     1      34.356 -22.745 -16.547  0.00  0.00    +0.149 C 
ATOM      4  C   UNL     1      35.539 -23.067 -15.900  0.00  0.00    +0.107 C 
ATOM      5  C   UNL     1      36.722 -22.606 -16.503  0.00  0.00    +0.005 C 
ATOM      6  C   UNL     1      35.417 -21.611 -18.238  0.00  0.00    +0.131 C 
ATOM      7  C   UNL     1      36.662 -21.866 -17.691  0.00  0.00    +0.030 C 
ATOM      8  C   UNL     1      37.939 -22.910 -15.879  0.00  0.00    +0.056 C 
ATOM      9  C   UNL     1      37.953 -23.646 -14.702  0.00  0.00    -0.001 C 
ATOM     10  C   UNL     1      36.739 -24.053 -14.187  0.00  0.00    +0.095 C 
ENDROOT
BRANCH   3  11
ATOM     11  C   UNL     1      33.072 -23.163 -16.024  0.00  0.00    +0.033 C 
ATOM     12  C   UNL     1      32.991 -23.741 -14.758  0.00  0.00    +0.027 C 
ATOM     13  C   UNL     1      31.919 -22.986 -16.788  0.00  0.00    +0.003 C 
ATOM     14  C   UNL     1      31.754 -24.142 -14.255  0.00  0.00    +0.143 C 
ATOM     15  C   UNL     1      30.682 -23.387 -16.285  0.00  0.00    +0.002 C 
ATOM     16  C   UNL     1      30.599 -23.967 -15.018  0.00  0.00    +0.024 C 
BRANCH  14  19
ATOM     17  O   UNL     1      32.726 -25.105 -12.403  0.00  0.00    -0.126 OA
ATOM     18  O   UNL     1      30.542 -24.859 -12.433  0.00  0.00    -0.126 OA
ATOM     19  N   UNL     1      31.669 -24.732 -12.965  0.00  0.00    +0.058 N 
ENDBRANCH  14  19
ENDBRANCH   3  11
BRANCH   6  20
ATOM     20  C   UNL     1      35.280 -20.856 -19.461  0.00  0.00    +0.030 C 
ATOM     21  C   UNL     1      36.404 -20.294 -20.069  0.00  0.00    +0.003 C 
ATOM     22  C   UNL     1      34.020 -20.683 -20.040  0.00  0.00    +0.003 C 
ATOM     23  C   UNL     1      36.271 -19.566 -21.252  0.00  0.00    +0.007 C 
ATOM     24  C   UNL     1      33.887 -19.954 -21.222  0.00  0.00    +0.007 C 
ATOM     25  C   UNL     1      35.012 -19.396 -21.827  0.00  0.00    +0.075 C 
BRANCH  25  27
ATOM     26  O   UNL     1      34.092 -18.901 -23.980  0.00  0.00    -0.245 OA
ATOM     27  C   UNL     1      34.872 -18.636 -23.059  0.00  0.00    +0.338 C 
BRANCH  27  28
ATOM     28  O   UNL     1      35.709 -17.564 -23.108  0.00  0.00    -0.477 OA
ATOM     29  H   UNL     1      35.360 -16.694 -23.097  0.00  0.00    +0.295 HD
ENDBRANCH  27  28
ENDBRANCH  25  27
ENDBRANCH   6  20
TORSDOF 5
ENDMDL
MODEL 5
REMARK VINA RESULT:      -9.6      3.766      7.257
REMARK  Name = 9999276
REMARK  5 active torsions:
REMARK  status: ('A' for Active; 'I' for Inactive)
REMARK    1  A    between atoms: C_3  and  C_11
REMARK    2  A    between atoms: C_6  and  C_20
REMARK    3  A    between atoms: C_14  and  N_19
REMARK    4  A    between atoms: C_25  and  C_27
REMARK    5  A    between atoms: C_27  and  O_28
REMARK                            x       y       z     vdW  Elec       q    Type
REMARK                         _______ _______ _______ _____ _____    ______ ____
ROOT
ATOM      1  N   UNL     1      32.494 -22.665 -16.461  0.00  0.00    -0.400 NA
ATOM      2  N   UNL     1      35.834 -23.841 -15.574  0.00  0.00    -0.242 NA
ATOM      3  C   UNL     1      33.828 -22.899 -16.449  0.00  0.00    +0.149 C 
ATOM      4  C   UNL     1      34.500 -23.660 -15.508  0.00  0.00    +0.107 C 
ATOM      5  C   UNL     1      33.714 -24.227 -14.490  0.00  0.00    +0.005 C 
ATOM      6  C   UNL     1      31.778 -23.227 -15.467  0.00  0.00    +0.131 C 
ATOM      7  C   UNL     1      32.331 -24.008 -14.468  0.00  0.00    +0.030 C 
ATOM      8  C   UNL     1      34.357 -25.005 -13.518  0.00  0.00    +0.056 C 
ATOM      9  C   UNL     1      35.731 -25.197 -13.578  0.00  0.00    -0.001 C 
ATOM     10  C   UNL     1      36.417 -24.600 -14.617  0.00  0.00    +0.095 C 
ENDROOT
BRANCH   3  11
ATOM     11  C   UNL     1      34.528 -22.263 -17.547  0.00  0.00    +0.033 C 
ATOM     12  C   UNL     1      33.807 -21.665 -18.579  0.00  0.00    +0.027 C 
ATOM     13  C   UNL     1      35.922 -22.254 -17.569  0.00  0.00    +0.003 C 
ATOM     14  C   UNL     1      34.481 -21.054 -19.635  0.00  0.00    +0.143 C 
ATOM     15  C   UNL     1      36.597 -21.642 -18.626  0.00  0.00    +0.002 C 
ATOM     16  C   UNL     1      35.876 -21.043 -19.660  0.00  0.00    +0.024 C 
BRANCH  14  19
ATOM     17  O   UNL     1      34.378 -19.854 -21.597  0.00  0.00    -0.126 OA
ATOM     18  O   UNL     1      32.498 -20.516 -20.672  0.00  0.00    -0.126 OA
ATOM     19  N   UNL     1      33.748 -20.443 -20.688  0.00  0.00    +0.058 N 
ENDBRANCH  14  19
ENDBRANCH   3  11
BRANCH   6  20
ATOM     20  C   UNL     1      30.360 -22.958 -15.507  0.00  0.00    +0.030 C 
ATOM     21  C   UNL     1      29.714 -22.430 -14.387  0.00  0.00    +0.003 C 
ATOM     22  C   UNL     1      29.629 -23.228 -16.666  0.00  0.00    +0.003 C 
ATOM     23  C   UNL     1      28.345 -22.169 -14.426  0.00  0.00    +0.007 C 
ATOM     24  C   UNL     1      28.258 -22.968 -16.704  0.00  0.00    +0.007 C 
ATOM     25  C   UNL     1      27.617 -22.440 -15.585  0.00  0.00    +0.075 C 
BRANCH  25  27
ATOM     26  O   UNL     1      25.569 -21.735 -16.604  0.00  0.00    -0.245 OA
ATOM     27  C   UNL     1      26.188 -22.170 -15.626  0.00  0.00    +0.338 C 
BRANCH  27  28
ATOM     28  O   UNL     1      25.571 -22.451 -14.446  0.00  0.00    -0.477 OA
ATOM     29  H   UNL     1      25.563 -23.329 -14.118  0.00  0.00    +0.295 HD
ENDBRANCH  27  28
ENDBRANCH  25  27
ENDBRANCH   6  20
TORSDOF 5
ENDMDL
