MODEL 1
REMARK VINA RESULT:     -11.7      0.000      0.000
REMARK  Name = 16363
REMARK  6 active torsions:
REMARK  status: ('A' for Active; 'I' for Inactive)
REMARK    1  A    between atoms: N_1  and  C_19
REMARK    2  A    between atoms: C_2  and  N_9
REMARK    3  A    between atoms: C_19  and  C_20
REMARK    4  A    between atoms: C_20  and  C_21
REMARK    5  A    between atoms: C_21  and  C_23
REMARK    6  A    between atoms: C_23  and  C_25
REMARK                            x       y       z     vdW  Elec       q    Type
REMARK                         _______ _______ _______ _____ _____    ______ ____
ROOT
ATOM      1  N   UNL     1      33.942 -16.504 -24.061  0.00  0.00    +0.387 N 
ATOM      2  C   UNL     1      34.174 -13.590 -23.933  0.00  0.00    +0.086 C 
ATOM      3  C   UNL     1      33.144 -14.290 -24.820  0.00  0.00    -0.000 C 
ATOM      4  C   UNL     1      34.558 -14.492 -22.760  0.00  0.00    -0.000 C 
ATOM      5  C   UNL     1      33.623 -15.682 -25.236  0.00  0.00    -0.075 C 
ATOM      6  C   UNL     1      34.990 -15.879 -23.242  0.00  0.00    -0.075 C 
ATOM      7  H   UNL     1      33.100 -16.578 -23.490  0.00  0.00    -0.080 HD
ENDROOT
BRANCH   2   9
ATOM      8  O   UNL     1      34.654 -10.824 -25.032  0.00  0.00    -0.247 OA
ATOM      9  N   UNL     1      33.679 -12.321 -23.464  0.00  0.00    -0.282 N 
ATOM     10  N   UNL     1      33.266 -10.102 -23.258  0.00  0.00    -0.305 N 
ATOM     11  C   UNL     1      32.842 -12.135 -22.355  0.00  0.00    +0.079 A 
ATOM     12  C   UNL     1      33.961 -11.058 -24.052  0.00  0.00    +0.328 A 
ATOM     13  C   UNL     1      32.593 -10.769 -22.235  0.00  0.00    +0.076 A 
ATOM     14  C   UNL     1      32.302 -13.047 -21.473  0.00  0.00    +0.019 C 
ATOM     15  C   UNL     1      31.798 -10.248 -21.238  0.00  0.00    +0.019 C 
ATOM     16  C   UNL     1      31.491 -12.542 -20.451  0.00  0.00    +0.002 C 
ATOM     17  C   UNL     1      31.242 -11.158 -20.335  0.00  0.00    +0.002 C 
ATOM     18  H   UNL     1      33.260  -9.129 -23.408  0.00  0.00    +0.170 HD
ENDBRANCH   2   9
BRANCH   1  19
ATOM     19  C   UNL     1      34.349 -17.848 -24.472  0.00  0.00    -0.077 C 
BRANCH  19  20
ATOM     20  C   UNL     1      34.026 -18.859 -23.369  0.00  0.00    -0.015 C 
BRANCH  20  21
ATOM     21  C   UNL     1      35.287 -19.393 -22.684  0.00  0.00    +0.067 C 
BRANCH  21  23
ATOM     22  O   UNL     1      35.670 -18.111 -20.675  0.00  0.00    -0.291 OA
ATOM     23  C   UNL     1      35.298 -19.169 -21.179  0.00  0.00    +0.173 C 
BRANCH  23  25
ATOM     24  F   UNL     1      33.512 -23.282 -17.852  0.00  0.00    -0.204 F 
ATOM     25  C   UNL     1      34.821 -20.267 -20.290  0.00  0.00    +0.035 C 
ATOM     26  C   UNL     1      33.465 -20.466 -20.155  0.00  0.00    +0.005 C 
ATOM     27  C   UNL     1      35.754 -21.041 -19.637  0.00  0.00    +0.005 C 
ATOM     28  C   UNL     1      33.019 -21.494 -19.325  0.00  0.00    +0.030 C 
ATOM     29  C   UNL     1      35.308 -22.069 -18.806  0.00  0.00    +0.030 C 
ATOM     30  C   UNL     1      33.941 -22.295 -18.650  0.00  0.00    +0.140 C 
ENDBRANCH  23  25
ENDBRANCH  21  23
ENDBRANCH  20  21
ENDBRANCH  19  20
ENDBRANCH   1  19
TORSDOF 6
ENDMDL
MODEL 2
REMARK VINA RESULT:     -11.5      1.493      2.484
REMARK  Name = 16363
REMARK  6 active torsions:
REMARK  status: ('A' for Active; 'I' for Inactive)
REMARK    1  A    between atoms: N_1  and  C_19
REMARK    2  A    between atoms: C_2  and  N_9
REMARK    3  A    between atoms: C_19  and  C_20
REMARK    4  A    between atoms: C_20  and  C_21
REMARK    5  A    between atoms: C_21  and  C_23
REMARK    6  A    between atoms: C_23  and  C_25
REMARK                            x       y       z     vdW  Elec       q    Type
REMARK                         _______ _______ _______ _____ _____    ______ ____
ROOT
ATOM      1  N   UNL     1      33.771 -15.947 -23.965  0.00  0.00    +0.387 N 
ATOM      2  C   UNL     1      33.973 -13.063 -23.517  0.00  0.00    +0.086 C 
ATOM      3  C   UNL     1      33.126 -13.658 -24.643  0.00  0.00    -0.000 C 
ATOM      4  C   UNL     1      34.132 -14.078 -22.385  0.00  0.00    -0.000 C 
ATOM      5  C   UNL     1      33.676 -15.012 -25.094  0.00  0.00    -0.075 C 
ATOM      6  C   UNL     1      34.648 -15.420 -22.910  0.00  0.00    -0.075 C 
ATOM      7  H   UNL     1      32.838 -16.060 -23.570  0.00  0.00    -0.080 HD
ENDROOT
BRANCH   2   9
ATOM      8  O   UNL     1      31.583 -12.649 -21.724  0.00  0.00    -0.247 OA
ATOM      9  N   UNL     1      33.397 -11.836 -23.028  0.00  0.00    -0.282 N 
ATOM     10  N   UNL     1      32.063 -10.346 -21.963  0.00  0.00    -0.305 N 
ATOM     11  C   UNL     1      33.870 -10.547 -23.312  0.00  0.00    +0.079 A 
ATOM     12  C   UNL     1      32.261 -11.739 -22.180  0.00  0.00    +0.328 A 
ATOM     13  C   UNL     1      33.045  -9.637 -22.654  0.00  0.00    +0.076 A 
ATOM     14  C   UNL     1      34.936 -10.129 -24.081  0.00  0.00    +0.019 C 
ATOM     15  C   UNL     1      33.240  -8.276 -22.729  0.00  0.00    +0.019 C 
ATOM     16  C   UNL     1      35.155  -8.751 -24.172  0.00  0.00    +0.002 C 
ATOM     17  C   UNL     1      34.316  -7.834 -23.504  0.00  0.00    +0.002 C 
ATOM     18  H   UNL     1      31.349  -9.948 -21.413  0.00  0.00    +0.170 HD
ENDBRANCH   2   9
BRANCH   1  19
ATOM     19  C   UNL     1      34.249 -17.253 -24.420  0.00  0.00    -0.077 C 
BRANCH  19  20
ATOM     20  C   UNL     1      35.244 -17.832 -23.414  0.00  0.00    -0.015 C 
BRANCH  20  21
ATOM     21  C   UNL     1      34.659 -19.010 -22.630  0.00  0.00    +0.067 C 
BRANCH  21  23
ATOM     22  O   UNL     1      35.742 -18.130 -20.661  0.00  0.00    -0.291 OA
ATOM     23  C   UNL     1      35.090 -19.039 -21.170  0.00  0.00    +0.173 C 
BRANCH  23  25
ATOM     24  F   UNL     1      33.592 -23.399 -18.021  0.00  0.00    -0.204 F 
ATOM     25  C   UNL     1      34.690 -20.204 -20.330  0.00  0.00    +0.035 C 
ATOM     26  C   UNL     1      35.677 -20.973 -19.754  0.00  0.00    +0.005 C 
ATOM     27  C   UNL     1      33.349 -20.467 -20.160  0.00  0.00    +0.005 C 
ATOM     28  C   UNL     1      35.303 -22.062 -18.968  0.00  0.00    +0.030 C 
ATOM     29  C   UNL     1      32.975 -21.556 -19.374  0.00  0.00    +0.030 C 
ATOM     30  C   UNL     1      33.951 -22.353 -18.777  0.00  0.00    +0.140 C 
ENDBRANCH  23  25
ENDBRANCH  21  23
ENDBRANCH  20  21
ENDBRANCH  19  20
ENDBRANCH   1  19
TORSDOF 6
ENDMDL
MODEL 3
REMARK VINA RESULT:     -11.0      2.925      5.134
REMARK  Name = 16363
REMARK  6 active torsions:
REMARK  status: ('A' for Active; 'I' for Inactive)
REMARK    1  A    between atoms: N_1  and  C_19
REMARK    2  A    between atoms: C_2  and  N_9
REMARK    3  A    between atoms: C_19  and  C_20
REMARK    4  A    between atoms: C_20  and  C_21
REMARK    5  A    between atoms: C_21  and  C_23
REMARK    6  A    between atoms: C_23  and  C_25
REMARK                            x       y       z     vdW  Elec       q    Type
REMARK                         _______ _______ _______ _____ _____    ______ ____
ROOT
ATOM      1  N   UNL     1      35.910 -19.730 -20.206  0.00  0.00    +0.387 N 
ATOM      2  C   UNL     1      35.316 -18.163 -22.605  0.00  0.00    +0.086 C 
ATOM      3  C   UNL     1      34.243 -18.959 -21.862  0.00  0.00    -0.000 C 
ATOM      4  C   UNL     1      36.454 -17.798 -21.652  0.00  0.00    -0.000 C 
ATOM      5  C   UNL     1      34.848 -20.157 -21.128  0.00  0.00    -0.075 C 
ATOM      6  C   UNL     1      36.987 -19.033 -20.923  0.00  0.00    -0.075 C 
ATOM      7  H   UNL     1      35.503 -19.076 -19.538  0.00  0.00    -0.080 HD
ENDROOT
BRANCH   2   9
ATOM      8  O   UNL     1      34.608 -17.652 -25.491  0.00  0.00    -0.247 OA
ATOM      9  N   UNL     1      34.759 -16.982 -23.215  0.00  0.00    -0.282 N 
ATOM     10  N   UNL     1      33.931 -15.517 -24.732  0.00  0.00    -0.305 N 
ATOM     11  C   UNL     1      34.428 -15.799 -22.541  0.00  0.00    +0.079 A 
ATOM     12  C   UNL     1      34.456 -16.833 -24.596  0.00  0.00    +0.328 A 
ATOM     13  C   UNL     1      33.921 -14.903 -23.480  0.00  0.00    +0.076 A 
ATOM     14  C   UNL     1      34.537 -15.462 -21.209  0.00  0.00    +0.019 C 
ATOM     15  C   UNL     1      33.499 -13.637 -23.140  0.00  0.00    +0.019 C 
ATOM     16  C   UNL     1      34.115 -14.181 -20.838  0.00  0.00    +0.002 C 
ATOM     17  C   UNL     1      33.602 -13.278 -21.793  0.00  0.00    +0.002 C 
ATOM     18  H   UNL     1      33.625 -15.107 -25.574  0.00  0.00    +0.170 HD
ENDBRANCH   2   9
BRANCH   1  19
ATOM     19  C   UNL     1      36.443 -20.878 -19.473  0.00  0.00    -0.077 C 
BRANCH  19  20
ATOM     20  C   UNL     1      35.411 -22.006 -19.434  0.00  0.00    -0.015 C 
BRANCH  20  21
ATOM     21  C   UNL     1      34.922 -22.298 -18.012  0.00  0.00    +0.067 C 
BRANCH  21  23
ATOM     22  O   UNL     1      32.688 -22.468 -18.909  0.00  0.00    -0.291 OA
ATOM     23  C   UNL     1      33.425 -22.559 -17.929  0.00  0.00    +0.173 C 
BRANCH  23  25
ATOM     24  F   UNL     1      31.241 -24.051 -13.012  0.00  0.00    -0.204 F 
ATOM     25  C   UNL     1      32.841 -22.958 -16.617  0.00  0.00    +0.035 C 
ATOM     26  C   UNL     1      33.692 -23.356 -15.610  0.00  0.00    +0.005 C 
ATOM     27  C   UNL     1      31.475 -22.912 -16.460  0.00  0.00    +0.005 C 
ATOM     28  C   UNL     1      33.147 -23.729 -14.382  0.00  0.00    +0.030 C 
ATOM     29  C   UNL     1      30.930 -23.285 -15.231  0.00  0.00    +0.030 C 
ATOM     30  C   UNL     1      31.765 -23.693 -14.192  0.00  0.00    +0.140 C 
ENDBRANCH  23  25
ENDBRANCH  21  23
ENDBRANCH  20  21
ENDBRANCH  19  20
ENDBRANCH   1  19
TORSDOF 6
ENDMDL
MODEL 4
REMARK VINA RESULT:     -11.0      6.134     12.037
REMARK  Name = 16363
REMARK  6 active torsions:
REMARK  status: ('A' for Active; 'I' for Inactive)
REMARK    1  A    between atoms: N_1  and  C_19
REMARK    2  A    between atoms: C_2  and  N_9
REMARK    3  A    between atoms: C_19  and  C_20
REMARK    4  A    between atoms: C_20  and  C_21
REMARK    5  A    between atoms: C_21  and  C_23
REMARK    6  A    between atoms: C_23  and  C_25
REMARK                            x       y       z     vdW  Elec       q    Type
REMARK                         _______ _______ _______ _____ _____    ______ ____
ROOT
ATOM      1  N   UNL     1      34.235 -22.858 -17.785  0.00  0.00    +0.387 N 
ATOM      2  C   UNL     1      34.782 -23.157 -14.926  0.00  0.00    +0.086 C 
ATOM      3  C   UNL     1      33.635 -23.892 -15.620  0.00  0.00    -0.000 C 
ATOM      4  C   UNL     1      35.878 -22.819 -15.937  0.00  0.00    -0.000 C 
ATOM      5  C   UNL     1      33.138 -23.119 -16.843  0.00  0.00    -0.075 C 
ATOM      6  C   UNL     1      35.309 -22.081 -17.150  0.00  0.00    -0.075 C 
ATOM      7  H   UNL     1      34.624 -23.756 -18.071  0.00  0.00    -0.080 HD
ENDROOT
BRANCH   2   9
ATOM      8  O   UNL     1      33.443 -24.027 -12.369  0.00  0.00    -0.247 OA
ATOM      9  N   UNL     1      35.312 -23.934 -13.835  0.00  0.00    -0.282 N 
ATOM     10  N   UNL     1      35.516 -25.053 -11.874  0.00  0.00    -0.305 N 
ATOM     11  C   UNL     1      36.613 -24.451 -13.762  0.00  0.00    +0.079 A 
ATOM     12  C   UNL     1      34.599 -24.298 -12.660  0.00  0.00    +0.328 A 
ATOM     13  C   UNL     1      36.730 -25.137 -12.555  0.00  0.00    +0.076 A 
ATOM     14  C   UNL     1      37.665 -24.366 -14.648  0.00  0.00    +0.019 C 
ATOM     15  C   UNL     1      37.894 -25.768 -12.174  0.00  0.00    +0.019 C 
ATOM     16  C   UNL     1      38.858 -25.000 -14.285  0.00  0.00    +0.002 C 
ATOM     17  C   UNL     1      38.971 -25.693 -13.061  0.00  0.00    +0.002 C 
ATOM     18  H   UNL     1      35.323 -25.451 -10.994  0.00  0.00    +0.170 HD
ENDBRANCH   2   9
BRANCH   1  19
ATOM     19  C   UNL     1      33.735 -22.164 -18.972  0.00  0.00    -0.077 C 
BRANCH  19  20
ATOM     20  C   UNL     1      34.813 -21.234 -19.533  0.00  0.00    -0.015 C 
BRANCH  20  21
ATOM     21  C   UNL     1      34.234 -20.179 -20.480  0.00  0.00    +0.067 C 
BRANCH  21  23
ATOM     22  O   UNL     1      36.382 -19.078 -20.488  0.00  0.00    -0.291 OA
ATOM     23  C   UNL     1      35.278 -19.208 -21.013  0.00  0.00    +0.173 C 
BRANCH  23  25
ATOM     24  F   UNL     1      34.054 -16.196 -25.552  0.00  0.00    -0.204 F 
ATOM     25  C   UNL     1      34.952 -18.403 -22.225  0.00  0.00    +0.035 C 
ATOM     26  C   UNL     1      34.353 -19.033 -23.294  0.00  0.00    +0.005 C 
ATOM     27  C   UNL     1      35.259 -17.061 -22.231  0.00  0.00    +0.005 C 
ATOM     28  C   UNL     1      34.047 -18.281 -24.427  0.00  0.00    +0.030 C 
ATOM     29  C   UNL     1      34.953 -16.309 -23.364  0.00  0.00    +0.030 C 
ATOM     30  C   UNL     1      34.347 -16.918 -24.463  0.00  0.00    +0.140 C 
ENDBRANCH  23  25
ENDBRANCH  21  23
ENDBRANCH  20  21
ENDBRANCH  19  20
ENDBRANCH   1  19
TORSDOF 6
ENDMDL
MODEL 5
REMARK VINA RESULT:     -10.8      3.417      6.204
REMARK  Name = 16363
REMARK  6 active torsions:
REMARK  status: ('A' for Active; 'I' for Inactive)
REMARK    1  A    between atoms: N_1  and  C_19
REMARK    2  A    between atoms: C_2  and  N_9
REMARK    3  A    between atoms: C_19  and  C_20
REMARK    4  A    between atoms: C_20  and  C_21
REMARK    5  A    between atoms: C_21  and  C_23
REMARK    6  A    between atoms: C_23  and  C_25
REMARK                            x       y       z     vdW  Elec       q    Type
REMARK                         _______ _______ _______ _____ _____    ______ ____
ROOT
ATOM      1  N   UNL     1      36.084 -20.856 -19.892  0.00  0.00    +0.387 N 
ATOM      2  C   UNL     1      35.060 -18.524 -21.333  0.00  0.00    +0.086 C 
ATOM      3  C   UNL     1      36.549 -18.868 -21.287  0.00  0.00    -0.000 C 
ATOM      4  C   UNL     1      34.222 -19.785 -21.119  0.00  0.00    -0.000 C 
ATOM      5  C   UNL     1      36.903 -19.642 -20.016  0.00  0.00    -0.075 C 
ATOM      6  C   UNL     1      34.651 -20.530 -19.854  0.00  0.00    -0.075 C 
ATOM      7  H   UNL     1      36.252 -21.435 -20.715  0.00  0.00    -0.080 HD
ENDROOT
BRANCH   2   9
ATOM      8  O   UNL     1      34.615 -19.738 -24.057  0.00  0.00    -0.247 OA
ATOM      9  N   UNL     1      34.713 -17.881 -22.575  0.00  0.00    -0.282 N 
ATOM     10  N   UNL     1      34.196 -17.516 -24.751  0.00  0.00    -0.305 N 
ATOM     11  C   UNL     1      34.508 -16.506 -22.748  0.00  0.00    +0.079 A 
ATOM     12  C   UNL     1      34.522 -18.542 -23.819  0.00  0.00    +0.328 A 
ATOM     13  C   UNL     1      34.192 -16.289 -24.088  0.00  0.00    +0.076 A 
ATOM     14  C   UNL     1      34.578 -15.465 -21.846  0.00  0.00    +0.019 C 
ATOM     15  C   UNL     1      33.930 -15.034 -24.591  0.00  0.00    +0.019 C 
ATOM     16  C   UNL     1      34.317 -14.180 -22.333  0.00  0.00    +0.002 C 
ATOM     17  C   UNL     1      33.997 -13.967 -23.691  0.00  0.00    +0.002 C 
ATOM     18  H   UNL     1      34.005 -17.651 -25.708  0.00  0.00    +0.170 HD
ENDBRANCH   2   9
BRANCH   1  19
ATOM     19  C   UNL     1      36.468 -21.612 -18.700  0.00  0.00    -0.077 C 
BRANCH  19  20
ATOM     20  C   UNL     1      35.228 -22.199 -18.024  0.00  0.00    -0.015 C 
BRANCH  20  21
ATOM     21  C   UNL     1      35.405 -22.342 -16.510  0.00  0.00    +0.067 C 
BRANCH  21  23
ATOM     22  O   UNL     1      35.147 -24.614 -15.736  0.00  0.00    -0.291 OA
ATOM     23  C   UNL     1      34.632 -23.513 -15.919  0.00  0.00    +0.173 C 
BRANCH  23  25
ATOM     24  F   UNL     1      29.294 -22.740 -14.475  0.00  0.00    -0.204 F 
ATOM     25  C   UNL     1      33.207 -23.306 -15.533  0.00  0.00    +0.035 C 
ATOM     26  C   UNL     1      32.270 -23.140 -16.529  0.00  0.00    +0.005 C 
ATOM     27  C   UNL     1      32.880 -23.289 -14.196  0.00  0.00    +0.005 C 
ATOM     28  C   UNL     1      30.937 -22.947 -16.169  0.00  0.00    +0.030 C 
ATOM     29  C   UNL     1      31.546 -23.096 -13.836  0.00  0.00    +0.030 C 
ATOM     30  C   UNL     1      30.575 -22.926 -14.821  0.00  0.00    +0.140 C 
ENDBRANCH  23  25
ENDBRANCH  21  23
ENDBRANCH  20  21
ENDBRANCH  19  20
ENDBRANCH   1  19
TORSDOF 6
ENDMDL
MODEL 6
REMARK VINA RESULT:     -10.7      2.765      4.315
REMARK  Name = 16363
REMARK  6 active torsions:
REMARK  status: ('A' for Active; 'I' for Inactive)
REMARK    1  A    between atoms: N_1  and  C_19
REMARK    2  A    between atoms: C_2  and  N_9
REMARK    3  A    between atoms: C_19  and  C_20
REMARK    4  A    between atoms: C_20  and  C_21
REMARK    5  A    between atoms: C_21  and  C_23
REMARK    6  A    between atoms: C_23  and  C_25
REMARK                            x       y       z     vdW  Elec       q    Type
REMARK                         _______ _______ _______ _____ _____    ______ ____
ROOT
ATOM      1  N   UNL     1      33.389 -13.054 -22.710  0.00  0.00    +0.387 N 
ATOM      2  C   UNL     1      32.048 -10.549 -22.011  0.00  0.00    +0.086 C 
ATOM      3  C   UNL     1      31.927 -11.808 -21.152  0.00  0.00    -0.000 C 
ATOM      4  C   UNL     1      33.348 -10.583 -22.814  0.00  0.00    -0.000 C 
ATOM      5  C   UNL     1      32.106 -13.074 -21.993  0.00  0.00    -0.075 C 
ATOM      6  C   UNL     1      33.483 -11.889 -23.601  0.00  0.00    -0.075 C 
ATOM      7  H   UNL     1      34.135 -12.982 -22.019  0.00  0.00    -0.080 HD
ENDROOT
BRANCH   2   9
ATOM      8  O   UNL     1      32.143 -10.267 -19.010  0.00  0.00    -0.247 OA
ATOM      9  N   UNL     1      31.976  -9.359 -21.201  0.00  0.00    -0.282 N 
ATOM     10  N   UNL     1      31.923  -7.949 -19.428  0.00  0.00    -0.305 N 
ATOM     11  C   UNL     1      31.843  -8.052 -21.689  0.00  0.00    +0.079 A 
ATOM     12  C   UNL     1      32.030  -9.325 -19.781  0.00  0.00    +0.328 A 
ATOM     13  C   UNL     1      31.811  -7.192 -20.593  0.00  0.00    +0.076 A 
ATOM     14  C   UNL     1      31.751  -7.579 -22.980  0.00  0.00    +0.019 C 
ATOM     15  C   UNL     1      31.686  -5.827 -20.729  0.00  0.00    +0.019 C 
ATOM     16  C   UNL     1      31.623  -6.195 -23.145  0.00  0.00    +0.002 C 
ATOM     17  C   UNL     1      31.591  -5.329 -22.032  0.00  0.00    +0.002 C 
ATOM     18  H   UNL     1      31.928  -7.592 -18.510  0.00  0.00    +0.170 HD
ENDBRANCH   2   9
BRANCH   1  19
ATOM     19  C   UNL     1      33.569 -14.292 -23.468  0.00  0.00    -0.077 C 
BRANCH  19  20
ATOM     20  C   UNL     1      34.465 -15.261 -22.694  0.00  0.00    -0.015 C 
BRANCH  20  21
ATOM     21  C   UNL     1      35.120 -16.302 -23.606  0.00  0.00    +0.067 C 
BRANCH  21  23
ATOM     22  O   UNL     1      33.713 -18.187 -24.147  0.00  0.00    -0.291 OA
ATOM     23  C   UNL     1      34.571 -17.708 -23.408  0.00  0.00    +0.173 C 
BRANCH  23  25
ATOM     24  F   UNL     1      36.593 -20.810 -19.229  0.00  0.00    -0.204 F 
ATOM     25  C   UNL     1      35.111 -18.536 -22.292  0.00  0.00    +0.035 C 
ATOM     26  C   UNL     1      34.274 -19.438 -21.674  0.00  0.00    +0.005 C 
ATOM     27  C   UNL     1      36.426 -18.368 -21.921  0.00  0.00    +0.005 C 
ATOM     28  C   UNL     1      34.779 -20.213 -20.631  0.00  0.00    +0.030 C 
ATOM     29  C   UNL     1      36.931 -19.143 -20.877  0.00  0.00    +0.030 C 
ATOM     30  C   UNL     1      36.108 -20.065 -20.232  0.00  0.00    +0.140 C 
ENDBRANCH  23  25
ENDBRANCH  21  23
ENDBRANCH  20  21
ENDBRANCH  19  20
ENDBRANCH   1  19
TORSDOF 6
ENDMDL
MODEL 7
REMARK VINA RESULT:     -10.7      1.552      2.327
REMARK  Name = 16363
REMARK  6 active torsions:
REMARK  status: ('A' for Active; 'I' for Inactive)
REMARK    1  A    between atoms: N_1  and  C_19
REMARK    2  A    between atoms: C_2  and  N_9
REMARK    3  A    between atoms: C_19  and  C_20
REMARK    4  A    between atoms: C_20  and  C_21
REMARK    5  A    between atoms: C_21  and  C_23
REMARK    6  A    between atoms: C_23  and  C_25
REMARK                            x       y       z     vdW  Elec       q    Type
REMARK                         _______ _______ _______ _____ _____    ______ ____
ROOT
ATOM      1  N   UNL     1      34.114 -14.659 -24.183  0.00  0.00    +0.387 N 
ATOM      2  C   UNL     1      33.382 -11.872 -23.678  0.00  0.00    +0.086 C 
ATOM      3  C   UNL     1      34.108 -12.727 -22.640  0.00  0.00    -0.000 C 
ATOM      4  C   UNL     1      33.662 -12.400 -25.085  0.00  0.00    -0.000 C 
ATOM      5  C   UNL     1      33.790 -14.212 -22.822  0.00  0.00    -0.075 C 
ATOM      6  C   UNL     1      33.359 -13.896 -25.188  0.00  0.00    -0.075 C 
ATOM      7  H   UNL     1      35.107 -14.490 -24.342  0.00  0.00    -0.080 HD
ENDROOT
BRANCH   2   9
ATOM      8  O   UNL     1      35.607 -10.376 -25.058  0.00  0.00    -0.247 OA
ATOM      9  N   UNL     1      33.759 -10.486 -23.565  0.00  0.00    -0.282 N 
ATOM     10  N   UNL     1      34.826  -8.505 -23.840  0.00  0.00    -0.305 N 
ATOM     11  C   UNL     1      33.127  -9.535 -22.753  0.00  0.00    +0.079 A 
ATOM     12  C   UNL     1      34.832  -9.865 -24.262  0.00  0.00    +0.328 A 
ATOM     13  C   UNL     1      33.788  -8.321 -22.926  0.00  0.00    +0.076 A 
ATOM     14  C   UNL     1      32.051  -9.654 -21.900  0.00  0.00    +0.019 C 
ATOM     15  C   UNL     1      33.412  -7.173 -22.264  0.00  0.00    +0.019 C 
ATOM     16  C   UNL     1      31.648  -8.503 -21.215  0.00  0.00    +0.002 C 
ATOM     17  C   UNL     1      32.322  -7.276 -21.395  0.00  0.00    +0.002 C 
ATOM     18  H   UNL     1      35.452  -7.809 -24.144  0.00  0.00    +0.170 HD
ENDBRANCH   2   9
BRANCH   1  19
ATOM     19  C   UNL     1      33.853 -16.092 -24.328  0.00  0.00    -0.077 C 
BRANCH  19  20
ATOM     20  C   UNL     1      35.016 -16.902 -23.751  0.00  0.00    -0.015 C 
BRANCH  20  21
ATOM     21  C   UNL     1      34.565 -18.260 -23.208  0.00  0.00    +0.067 C 
BRANCH  21  23
ATOM     22  O   UNL     1      36.614 -18.438 -21.945  0.00  0.00    -0.291 OA
ATOM     23  C   UNL     1      35.440 -18.780 -22.077  0.00  0.00    +0.173 C 
BRANCH  23  25
ATOM     24  F   UNL     1      33.205 -22.307 -18.370  0.00  0.00    -0.204 F 
ATOM     25  C   UNL     1      34.844 -19.721 -21.087  0.00  0.00    +0.035 C 
ATOM     26  C   UNL     1      33.472 -19.791 -20.985  0.00  0.00    +0.005 C 
ATOM     27  C   UNL     1      35.686 -20.487 -20.312  0.00  0.00    +0.005 C 
ATOM     28  C   UNL     1      32.914 -20.671 -20.059  0.00  0.00    +0.030 C 
ATOM     29  C   UNL     1      35.127 -21.368 -19.386  0.00  0.00    +0.030 C 
ATOM     30  C   UNL     1      33.742 -21.461 -19.259  0.00  0.00    +0.140 C 
ENDBRANCH  23  25
ENDBRANCH  21  23
ENDBRANCH  20  21
ENDBRANCH  19  20
ENDBRANCH   1  19
TORSDOF 6
ENDMDL
MODEL 8
REMARK VINA RESULT:     -10.7      5.385     10.965
REMARK  Name = 16363
REMARK  6 active torsions:
REMARK  status: ('A' for Active; 'I' for Inactive)
REMARK    1  A    between atoms: N_1  and  C_19
REMARK    2  A    between atoms: C_2  and  N_9
REMARK    3  A    between atoms: C_19  and  C_20
REMARK    4  A    between atoms: C_20  and  C_21
REMARK    5  A    between atoms: C_21  and  C_23
REMARK    6  A    between atoms: C_23  and  C_25
REMARK                            x       y       z     vdW  Elec       q    Type
REMARK                         _______ _______ _______ _____ _____    ______ ____
ROOT
ATOM      1  N   UNL     1      35.288 -21.369 -18.594  0.00  0.00    +0.387 N 
ATOM      2  C   UNL     1      34.638 -23.463 -16.656  0.00  0.00    +0.086 C 
ATOM      3  C   UNL     1      35.722 -22.417 -16.396  0.00  0.00    -0.000 C 
ATOM      4  C   UNL     1      33.609 -22.919 -17.647  0.00  0.00    -0.000 C 
ATOM      5  C   UNL     1      36.328 -21.907 -17.705  0.00  0.00    -0.075 C 
ATOM      6  C   UNL     1      34.282 -22.391 -18.915  0.00  0.00    -0.075 C 
ATOM      7  H   UNL     1      34.818 -20.609 -18.104  0.00  0.00    -0.080 HD
ENDROOT
BRANCH   2   9
ATOM      8  O   UNL     1      35.809 -24.910 -14.284  0.00  0.00    -0.247 OA
ATOM      9  N   UNL     1      34.003 -23.869 -15.428  0.00  0.00    -0.282 N 
ATOM     10  N   UNL     1      33.634 -24.743 -13.370  0.00  0.00    -0.305 N 
ATOM     11  C   UNL     1      32.658 -23.653 -15.098  0.00  0.00    +0.079 A 
ATOM     12  C   UNL     1      34.642 -24.553 -14.358  0.00  0.00    +0.328 A 
ATOM     13  C   UNL     1      32.439 -24.193 -13.833  0.00  0.00    +0.076 A 
ATOM     14  C   UNL     1      31.647 -23.038 -15.805  0.00  0.00    +0.019 C 
ATOM     15  C   UNL     1      31.210 -24.146 -13.213  0.00  0.00    +0.019 C 
ATOM     16  C   UNL     1      30.388 -22.978 -15.197  0.00  0.00    +0.002 C 
ATOM     17  C   UNL     1      30.173 -23.527 -13.915  0.00  0.00    +0.002 C 
ATOM     18  H   UNL     1      33.761 -25.190 -12.501  0.00  0.00    +0.170 HD
ENDBRANCH   2   9
BRANCH   1  19
ATOM     19  C   UNL     1      35.887 -20.838 -19.819  0.00  0.00    -0.077 C 
BRANCH  19  20
ATOM     20  C   UNL     1      34.835 -20.091 -20.640  0.00  0.00    -0.015 C 
BRANCH  20  21
ATOM     21  C   UNL     1      35.425 -18.891 -21.387  0.00  0.00    +0.067 C 
BRANCH  21  23
ATOM     22  O   UNL     1      34.960 -19.813 -23.568  0.00  0.00    -0.291 OA
ATOM     23  C   UNL     1      35.000 -18.819 -22.846  0.00  0.00    +0.173 C 
BRANCH  23  25
ATOM     24  F   UNL     1      33.501 -13.870 -24.953  0.00  0.00    -0.204 F 
ATOM     25  C   UNL     1      34.601 -17.497 -23.409  0.00  0.00    +0.035 C 
ATOM     26  C   UNL     1      33.906 -17.468 -24.598  0.00  0.00    +0.005 C 
ATOM     27  C   UNL     1      34.939 -16.355 -22.719  0.00  0.00    +0.005 C 
ATOM     28  C   UNL     1      33.532 -16.233 -25.124  0.00  0.00    +0.030 C 
ATOM     29  C   UNL     1      34.565 -15.119 -23.245  0.00  0.00    +0.030 C 
ATOM     30  C   UNL     1      33.861 -15.057 -24.447  0.00  0.00    +0.140 C 
ENDBRANCH  23  25
ENDBRANCH  21  23
ENDBRANCH  20  21
ENDBRANCH  19  20
ENDBRANCH   1  19
TORSDOF 6
ENDMDL
MODEL 9
REMARK VINA RESULT:     -10.6      5.010     10.655
REMARK  Name = 16363
REMARK  6 active torsions:
REMARK  status: ('A' for Active; 'I' for Inactive)
REMARK    1  A    between atoms: N_1  and  C_19
REMARK    2  A    between atoms: C_2  and  N_9
REMARK    3  A    between atoms: C_19  and  C_20
REMARK    4  A    between atoms: C_20  and  C_21
REMARK    5  A    between atoms: C_21  and  C_23
REMARK    6  A    between atoms: C_23  and  C_25
REMARK                            x       y       z     vdW  Elec       q    Type
REMARK                         _______ _______ _______ _____ _____    ______ ____
ROOT
ATOM      1  N   UNL     1      32.326 -10.585 -22.612  0.00  0.00    +0.387 N 
ATOM      2  C   UNL     1      33.687 -13.131 -23.087  0.00  0.00    +0.086 C 
ATOM      3  C   UNL     1      32.368 -13.040 -22.320  0.00  0.00    -0.000 C 
ATOM      4  C   UNL     1      33.828 -11.940 -24.035  0.00  0.00    -0.000 C 
ATOM      5  C   UNL     1      32.213 -11.679 -21.638  0.00  0.00    -0.075 C 
ATOM      6  C   UNL     1      33.625 -10.615 -23.299  0.00  0.00    -0.075 C 
ATOM      7  H   UNL     1      31.597 -10.711 -23.314  0.00  0.00    -0.080 HD
ENDROOT
BRANCH   2   9
ATOM      8  O   UNL     1      32.882 -13.771 -25.921  0.00  0.00    -0.247 OA
ATOM      9  N   UNL     1      33.785 -14.375 -23.806  0.00  0.00    -0.282 N 
ATOM     10  N   UNL     1      33.661 -15.950 -25.431  0.00  0.00    -0.305 N 
ATOM     11  C   UNL     1      34.299 -15.573 -23.291  0.00  0.00    +0.079 A 
ATOM     12  C   UNL     1      33.376 -14.583 -25.152  0.00  0.00    +0.328 A 
ATOM     13  C   UNL     1      34.219 -16.536 -24.295  0.00  0.00    +0.076 A 
ATOM     14  C   UNL     1      34.814 -15.869 -22.047  0.00  0.00    +0.019 C 
ATOM     15  C   UNL     1      34.646 -17.833 -24.111  0.00  0.00    +0.019 C 
ATOM     16  C   UNL     1      35.254 -17.180 -21.835  0.00  0.00    +0.002 C 
ATOM     17  C   UNL     1      35.171 -18.151 -22.855  0.00  0.00    +0.002 C 
ATOM     18  H   UNL     1      33.491 -16.407 -26.287  0.00  0.00    +0.170 HD
ENDBRANCH   2   9
BRANCH   1  19
ATOM     19  C   UNL     1      32.125  -9.293 -21.955  0.00  0.00    -0.077 C 
BRANCH  19  20
ATOM     20  C   UNL     1      31.210  -8.406 -22.802  0.00  0.00    -0.015 C 
BRANCH  20  21
ATOM     21  C   UNL     1      30.951  -7.046 -22.147  0.00  0.00    +0.067 C 
BRANCH  21  23
ATOM     22  O   UNL     1      32.560  -5.750 -20.900  0.00  0.00    -0.291 OA
ATOM     23  C   UNL     1      32.208  -6.203 -21.987  0.00  0.00    +0.173 C 
BRANCH  23  25
ATOM     24  F   UNL     1      35.353  -5.204 -26.490  0.00  0.00    -0.204 F 
ATOM     25  C   UNL     1      33.048  -5.937 -23.189  0.00  0.00    +0.035 C 
ATOM     26  C   UNL     1      32.565  -5.084 -24.157  0.00  0.00    +0.005 C 
ATOM     27  C   UNL     1      34.276  -6.553 -23.288  0.00  0.00    +0.005 C 
ATOM     28  C   UNL     1      33.350  -4.834 -25.281  0.00  0.00    +0.030 C 
ATOM     29  C   UNL     1      35.061  -6.303 -24.413  0.00  0.00    +0.030 C 
ATOM     30  C   UNL     1      34.599  -5.444 -25.410  0.00  0.00    +0.140 C 
ENDBRANCH  23  25
ENDBRANCH  21  23
ENDBRANCH  20  21
ENDBRANCH  19  20
ENDBRANCH   1  19
TORSDOF 6
ENDMDL
