MODEL 1
REMARK VINA RESULT:     -11.6      0.000      0.000
REMARK  Name = 5288527
REMARK  4 active torsions:
REMARK  status: ('A' for Active; 'I' for Inactive)
REMARK    1  A    between atoms: N_1  and  C_18
REMARK    2  A    between atoms: C_4  and  C_11
REMARK    3  A    between atoms: C_19  and  S_24
REMARK    4  A    between atoms: S_24  and  N_27
REMARK                            x       y       z     vdW  Elec       q    Type
REMARK                         _______ _______ _______ _____ _____    ______ ____
ROOT
ATOM      1  N   UNL     1      34.731 -24.930 -12.596  0.00  0.00    -0.247 N 
ATOM      2  N   UNL     1      33.870 -23.927 -14.534  0.00  0.00    -0.336 NA
ATOM      3  N   UNL     1      32.454 -24.367 -12.635  0.00  0.00    -0.170 NA
ATOM      4  C   UNL     1      32.795 -23.410 -15.162  0.00  0.00    +0.161 C 
ATOM      5  C   UNL     1      33.631 -24.381 -13.289  0.00  0.00    +0.149 C 
ATOM      6  C   UNL     1      31.537 -23.336 -14.607  0.00  0.00    +0.056 C 
ATOM      7  C   UNL     1      31.424 -23.836 -13.326  0.00  0.00    +0.114 C 
ATOM      8  H   UNL     1      34.510 -25.248 -11.691  0.00  0.00    +0.165 HD
ENDROOT
BRANCH   4  11
ATOM      9  N   UNL     1      34.286 -22.544 -16.969  0.00  0.00    -0.246 N 
ATOM     10  N   UNL     1      32.844 -22.258 -18.655  0.00  0.00    -0.227 NA
ATOM     11  C   UNL     1      33.056 -22.925 -16.497  0.00  0.00    +0.107 C 
ATOM     12  C   UNL     1      34.105 -22.145 -18.291  0.00  0.00    +0.139 C 
ATOM     13  C   UNL     1      32.191 -22.741 -17.550  0.00  0.00    +0.118 C 
ATOM     14  C   UNL     1      35.518 -22.529 -16.321  0.00  0.00    +0.071 C 
ATOM     15  C   UNL     1      35.261 -21.701 -18.997  0.00  0.00    +0.035 C 
ATOM     16  C   UNL     1      36.603 -22.109 -16.993  0.00  0.00    +0.017 C 
ATOM     17  C   UNL     1      36.457 -21.683 -18.376  0.00  0.00    +0.004 C 
ENDBRANCH   4  11
BRANCH   1  18
ATOM     18  C   UNL     1      36.083 -25.110 -12.944  0.00  0.00    +0.058 C 
ATOM     19  C   UNL     1      38.764 -25.468 -13.637  0.00  0.00    +0.122 C 
ATOM     20  C   UNL     1      37.091 -24.544 -12.160  0.00  0.00    +0.017 C 
ATOM     21  C   UNL     1      36.421 -25.855 -14.076  0.00  0.00    +0.017 C 
ATOM     22  C   UNL     1      38.429 -24.723 -12.506  0.00  0.00    +0.021 C 
ATOM     23  C   UNL     1      37.760 -26.034 -14.422  0.00  0.00    +0.021 C 
BRANCH  19  24
ATOM     24  S   UNL     1      40.441 -25.691 -14.071  0.00  0.00    +0.057 S 
ATOM     25  O   UNL     1      41.128 -24.416 -13.920  0.00  0.00    -0.153 OA
ATOM     26  O   UNL     1      40.944 -26.870 -13.382  0.00  0.00    -0.153 OA
BRANCH  24  27
ATOM     27  N   UNL     1      40.301 -26.048 -15.737  0.00  0.00    -0.203 NA
ATOM     28  H   UNL     1      39.327 -26.249 -15.961  0.00  0.00    +0.144 HD
ATOM     29  H   UNL     1      40.877 -26.861 -15.960  0.00  0.00    +0.144 HD
ENDBRANCH  24  27
ENDBRANCH  19  24
ENDBRANCH   1  18
TORSDOF 4
ENDMDL
MODEL 2
REMARK VINA RESULT:     -11.5      4.929      6.918
REMARK  Name = 5288527
REMARK  4 active torsions:
REMARK  status: ('A' for Active; 'I' for Inactive)
REMARK    1  A    between atoms: N_1  and  C_18
REMARK    2  A    between atoms: C_4  and  C_11
REMARK    3  A    between atoms: C_19  and  S_24
REMARK    4  A    between atoms: S_24  and  N_27
REMARK                            x       y       z     vdW  Elec       q    Type
REMARK                         _______ _______ _______ _____ _____    ______ ____
ROOT
ATOM      1  N   UNL     1      32.726 -24.639 -12.802  0.00  0.00    -0.247 N 
ATOM      2  N   UNL     1      34.462 -23.793 -14.133  0.00  0.00    -0.336 NA
ATOM      3  N   UNL     1      34.933 -24.931 -12.062  0.00  0.00    -0.170 NA
ATOM      4  C   UNL     1      35.790 -23.628 -14.296  0.00  0.00    +0.161 C 
ATOM      5  C   UNL     1      34.109 -24.444 -13.009  0.00  0.00    +0.149 C 
ATOM      6  C   UNL     1      36.739 -24.076 -13.404  0.00  0.00    +0.056 C 
ATOM      7  C   UNL     1      36.247 -24.728 -12.292  0.00  0.00    +0.114 C 
ATOM      8  H   UNL     1      32.514 -25.119 -11.969  0.00  0.00    +0.165 HD
ENDROOT
BRANCH   4  11
ATOM      9  N   UNL     1      35.335 -22.703 -16.571  0.00  0.00    -0.246 N 
ATOM     10  N   UNL     1      37.306 -21.784 -17.094  0.00  0.00    -0.227 NA
ATOM     11  C   UNL     1      36.165 -22.928 -15.502  0.00  0.00    +0.107 C 
ATOM     12  C   UNL     1      36.078 -22.001 -17.517  0.00  0.00    +0.139 C 
ATOM     13  C   UNL     1      37.366 -22.355 -15.848  0.00  0.00    +0.118 C 
ATOM     14  C   UNL     1      34.004 -23.069 -16.752  0.00  0.00    +0.071 C 
ATOM     15  C   UNL     1      35.415 -21.651 -18.729  0.00  0.00    +0.035 C 
ATOM     16  C   UNL     1      33.387 -22.736 -17.897  0.00  0.00    +0.017 C 
ATOM     17  C   UNL     1      34.128 -22.002 -18.912  0.00  0.00    +0.004 C 
ENDBRANCH   4  11
BRANCH   1  18
ATOM     18  C   UNL     1      31.590 -24.282 -13.553  0.00  0.00    +0.058 C 
ATOM     19  C   UNL     1      29.338 -23.571 -15.044  0.00  0.00    +0.122 C 
ATOM     20  C   UNL     1      30.653 -25.252 -13.911  0.00  0.00    +0.017 C 
ATOM     21  C   UNL     1      31.398 -22.954 -13.943  0.00  0.00    +0.017 C 
ATOM     22  C   UNL     1      29.528 -24.898 -14.655  0.00  0.00    +0.021 C 
ATOM     23  C   UNL     1      30.274 -22.599 -14.687  0.00  0.00    +0.021 C 
BRANCH  19  24
ATOM     24  S   UNL     1      27.931 -23.127 -15.976  0.00  0.00    +0.057 S 
ATOM     25  O   UNL     1      26.804 -22.981 -15.065  0.00  0.00    -0.153 OA
ATOM     26  O   UNL     1      28.290 -22.029 -16.863  0.00  0.00    -0.153 OA
BRANCH  24  27
ATOM     27  N   UNL     1      27.703 -24.537 -16.915  0.00  0.00    -0.203 NA
ATOM     28  H   UNL     1      26.817 -24.471 -17.415  0.00  0.00    +0.144 HD
ATOM     29  H   UNL     1      27.689 -25.353 -16.303  0.00  0.00    +0.144 HD
ENDBRANCH  24  27
ENDBRANCH  19  24
ENDBRANCH   1  18
TORSDOF 4
ENDMDL
MODEL 3
REMARK VINA RESULT:     -10.8      4.244      7.178
REMARK  Name = 5288527
REMARK  4 active torsions:
REMARK  status: ('A' for Active; 'I' for Inactive)
REMARK    1  A    between atoms: N_1  and  C_18
REMARK    2  A    between atoms: C_4  and  C_11
REMARK    3  A    between atoms: C_19  and  S_24
REMARK    4  A    between atoms: S_24  and  N_27
REMARK                            x       y       z     vdW  Elec       q    Type
REMARK                         _______ _______ _______ _____ _____    ______ ____
ROOT
ATOM      1  N   UNL     1      32.493 -22.226 -18.164  0.00  0.00    -0.247 N 
ATOM      2  N   UNL     1      34.001 -22.897 -16.497  0.00  0.00    -0.336 NA
ATOM      3  N   UNL     1      31.678 -23.530 -16.392  0.00  0.00    -0.170 NA
ATOM      4  C   UNL     1      34.193 -23.569 -15.345  0.00  0.00    +0.161 C 
ATOM      5  C   UNL     1      32.736 -22.918 -16.958  0.00  0.00    +0.149 C 
ATOM      6  C   UNL     1      33.199 -24.236 -14.665  0.00  0.00    +0.056 C 
ATOM      7  C   UNL     1      31.946 -24.182 -15.242  0.00  0.00    +0.114 C 
ATOM      8  H   UNL     1      31.556 -22.268 -18.464  0.00  0.00    +0.165 HD
ENDROOT
BRANCH   4  11
ATOM      9  N   UNL     1      36.334 -24.650 -14.648  0.00  0.00    -0.246 N 
ATOM     10  N   UNL     1      37.576 -22.879 -14.079  0.00  0.00    -0.227 NA
ATOM     11  C   UNL     1      35.551 -23.543 -14.854  0.00  0.00    +0.107 C 
ATOM     12  C   UNL     1      37.561 -24.192 -14.175  0.00  0.00    +0.139 C 
ATOM     13  C   UNL     1      36.335 -22.471 -14.498  0.00  0.00    +0.118 C 
ATOM     14  C   UNL     1      36.038 -25.995 -14.848  0.00  0.00    +0.071 C 
ATOM     15  C   UNL     1      38.551 -25.177 -13.886  0.00  0.00    +0.035 C 
ATOM     16  C   UNL     1      36.975 -26.916 -14.574  0.00  0.00    +0.017 C 
ATOM     17  C   UNL     1      38.271 -26.481 -14.076  0.00  0.00    +0.004 C 
ENDBRANCH   4  11
BRANCH   1  18
ATOM     18  C   UNL     1      33.328 -21.487 -19.024  0.00  0.00    +0.058 C 
ATOM     19  C   UNL     1      34.983 -20.021 -20.730  0.00  0.00    +0.122 C 
ATOM     20  C   UNL     1      34.713 -21.658 -18.973  0.00  0.00    +0.017 C 
ATOM     21  C   UNL     1      32.773 -20.581 -19.931  0.00  0.00    +0.017 C 
ATOM     22  C   UNL     1      35.539 -20.926 -19.825  0.00  0.00    +0.021 C 
ATOM     23  C   UNL     1      33.599 -19.849 -20.782  0.00  0.00    +0.021 C 
BRANCH  19  24
ATOM     24  S   UNL     1      36.017 -19.104 -21.796  0.00  0.00    +0.057 S 
ATOM     25  O   UNL     1      37.379 -19.174 -21.286  0.00  0.00    -0.153 OA
ATOM     26  O   UNL     1      35.737 -19.501 -23.168  0.00  0.00    -0.153 OA
BRANCH  24  27
ATOM     27  N   UNL     1      35.418 -17.522 -21.550  0.00  0.00    -0.203 NA
ATOM     28  H   UNL     1      36.147 -16.944 -21.134  0.00  0.00    +0.144 HD
ATOM     29  H   UNL     1      34.612 -17.557 -20.925  0.00  0.00    +0.144 HD
ENDBRANCH  24  27
ENDBRANCH  19  24
ENDBRANCH   1  18
TORSDOF 4
ENDMDL
MODEL 4
REMARK VINA RESULT:     -10.6      4.194      7.235
REMARK  Name = 5288527
REMARK  4 active torsions:
REMARK  status: ('A' for Active; 'I' for Inactive)
REMARK    1  A    between atoms: N_1  and  C_18
REMARK    2  A    between atoms: C_4  and  C_11
REMARK    3  A    between atoms: C_19  and  S_24
REMARK    4  A    between atoms: S_24  and  N_27
REMARK                            x       y       z     vdW  Elec       q    Type
REMARK                         _______ _______ _______ _____ _____    ______ ____
ROOT
ATOM      1  N   UNL     1      32.458 -22.362 -18.096  0.00  0.00    -0.247 N 
ATOM      2  N   UNL     1      33.885 -22.859 -16.301  0.00  0.00    -0.336 NA
ATOM      3  N   UNL     1      31.609 -23.650 -16.329  0.00  0.00    -0.170 NA
ATOM      4  C   UNL     1      34.039 -23.470 -15.110  0.00  0.00    +0.161 C 
ATOM      5  C   UNL     1      32.661 -22.988 -16.847  0.00  0.00    +0.149 C 
ATOM      6  C   UNL     1      33.046 -24.180 -14.472  0.00  0.00    +0.056 C 
ATOM      7  C   UNL     1      31.838 -24.237 -15.135  0.00  0.00    +0.114 C 
ATOM      8  H   UNL     1      31.550 -22.482 -18.457  0.00  0.00    +0.165 HD
ENDROOT
BRANCH   4  11
ATOM      9  N   UNL     1      35.671 -23.613 -13.224  0.00  0.00    -0.246 N 
ATOM     10  N   UNL     1      37.559 -22.914 -14.199  0.00  0.00    -0.227 NA
ATOM     11  C   UNL     1      35.353 -23.329 -14.528  0.00  0.00    +0.107 C 
ATOM     12  C   UNL     1      37.029 -23.344 -13.073  0.00  0.00    +0.139 C 
ATOM     13  C   UNL     1      36.527 -22.903 -15.103  0.00  0.00    +0.118 C 
ATOM     14  C   UNL     1      34.858 -24.080 -12.196  0.00  0.00    +0.071 C 
ATOM     15  C   UNL     1      37.592 -23.568 -11.783  0.00  0.00    +0.035 C 
ATOM     16  C   UNL     1      35.396 -24.289 -10.983  0.00  0.00    +0.017 C 
ATOM     17  C   UNL     1      36.811 -24.020 -10.782  0.00  0.00    +0.004 C 
ENDBRANCH   4  11
BRANCH   1  18
ATOM     18  C   UNL     1      33.301 -21.600 -18.927  0.00  0.00    +0.058 C 
ATOM     19  C   UNL     1      34.970 -20.087 -20.578  0.00  0.00    +0.122 C 
ATOM     20  C   UNL     1      34.686 -21.762 -18.860  0.00  0.00    +0.017 C 
ATOM     21  C   UNL     1      32.753 -20.679 -19.823  0.00  0.00    +0.017 C 
ATOM     22  C   UNL     1      35.520 -21.007 -19.684  0.00  0.00    +0.021 C 
ATOM     23  C   UNL     1      33.587 -19.924 -20.647  0.00  0.00    +0.021 C 
BRANCH  19  24
ATOM     24  S   UNL     1      36.014 -19.141 -21.609  0.00  0.00    +0.057 S 
ATOM     25  O   UNL     1      37.376 -19.250 -21.107  0.00  0.00    -0.153 OA
ATOM     26  O   UNL     1      35.724 -19.478 -22.995  0.00  0.00    -0.153 OA
BRANCH  24  27
ATOM     27  N   UNL     1      35.436 -17.563 -21.297  0.00  0.00    -0.203 NA
ATOM     28  H   UNL     1      36.154 -16.883 -21.546  0.00  0.00    +0.144 HD
ATOM     29  H   UNL     1      35.212 -17.473 -20.305  0.00  0.00    +0.144 HD
ENDBRANCH  24  27
ENDBRANCH  19  24
ENDBRANCH   1  18
TORSDOF 4
ENDMDL
MODEL 5
REMARK VINA RESULT:      -9.6      1.767      2.836
REMARK  Name = 5288527
REMARK  4 active torsions:
REMARK  status: ('A' for Active; 'I' for Inactive)
REMARK    1  A    between atoms: N_1  and  C_18
REMARK    2  A    between atoms: C_4  and  C_11
REMARK    3  A    between atoms: C_19  and  S_24
REMARK    4  A    between atoms: S_24  and  N_27
REMARK                            x       y       z     vdW  Elec       q    Type
REMARK                         _______ _______ _______ _____ _____    ______ ____
ROOT
ATOM      1  N   UNL     1      34.499 -24.705 -14.726  0.00  0.00    -0.247 N 
ATOM      2  N   UNL     1      34.552 -23.263 -16.576  0.00  0.00    -0.336 NA
ATOM      3  N   UNL     1      32.462 -23.881 -15.548  0.00  0.00    -0.170 NA
ATOM      4  C   UNL     1      33.852 -22.515 -17.452  0.00  0.00    +0.161 C 
ATOM      5  C   UNL     1      33.804 -23.910 -15.663  0.00  0.00    +0.149 C 
ATOM      6  C   UNL     1      32.480 -22.399 -17.445  0.00  0.00    +0.056 C 
ATOM      7  C   UNL     1      31.830 -23.112 -16.459  0.00  0.00    +0.114 C 
ATOM      8  H   UNL     1      33.913 -25.159 -14.078  0.00  0.00    +0.165 HD
ENDROOT
BRANCH   4  11
ATOM      9  N   UNL     1      34.167 -21.101 -19.486  0.00  0.00    -0.246 N 
ATOM     10  N   UNL     1      36.397 -20.973 -19.614  0.00  0.00    -0.227 NA
ATOM     11  C   UNL     1      34.659 -21.824 -18.430  0.00  0.00    +0.107 C 
ATOM     12  C   UNL     1      35.267 -20.601 -20.179  0.00  0.00    +0.139 C 
ATOM     13  C   UNL     1      36.027 -21.729 -18.531  0.00  0.00    +0.118 C 
ATOM     14  C   UNL     1      32.847 -20.865 -19.861  0.00  0.00    +0.071 C 
ATOM     15  C   UNL     1      34.997 -19.806 -21.332  0.00  0.00    +0.035 C 
ATOM     16  C   UNL     1      32.602 -20.116 -20.947  0.00  0.00    +0.017 C 
ATOM     17  C   UNL     1      33.723 -19.574 -21.701  0.00  0.00    +0.004 C 
ENDBRANCH   4  11
BRANCH   1  18
ATOM     18  C   UNL     1      35.868 -24.974 -14.535  0.00  0.00    +0.058 C 
ATOM     19  C   UNL     1      38.582 -25.510 -14.156  0.00  0.00    +0.122 C 
ATOM     20  C   UNL     1      36.745 -23.942 -14.198  0.00  0.00    +0.017 C 
ATOM     21  C   UNL     1      36.352 -26.276 -14.682  0.00  0.00    +0.017 C 
ATOM     22  C   UNL     1      38.100 -24.209 -14.009  0.00  0.00    +0.021 C 
ATOM     23  C   UNL     1      37.707 -26.544 -14.493  0.00  0.00    +0.021 C 
BRANCH  19  24
ATOM     24  S   UNL     1      40.279 -25.846 -13.921  0.00  0.00    +0.057 S 
ATOM     25  O   UNL     1      40.940 -24.611 -13.522  0.00  0.00    -0.153 OA
ATOM     26  O   UNL     1      40.405 -27.034 -13.089  0.00  0.00    -0.153 OA
BRANCH  24  27
ATOM     27  N   UNL     1      40.758 -26.239 -15.514  0.00  0.00    -0.203 NA
ATOM     28  H   UNL     1      41.771 -26.350 -15.546  0.00  0.00    +0.144 HD
ATOM     29  H   UNL     1      40.477 -25.490 -16.147  0.00  0.00    +0.144 HD
ENDBRANCH  24  27
ENDBRANCH  19  24
ENDBRANCH   1  18
TORSDOF 4
ENDMDL
MODEL 6
REMARK VINA RESULT:      -9.6      5.009      6.955
REMARK  Name = 5288527
REMARK  4 active torsions:
REMARK  status: ('A' for Active; 'I' for Inactive)
REMARK    1  A    between atoms: N_1  and  C_18
REMARK    2  A    between atoms: C_4  and  C_11
REMARK    3  A    between atoms: C_19  and  S_24
REMARK    4  A    between atoms: S_24  and  N_27
REMARK                            x       y       z     vdW  Elec       q    Type
REMARK                         _______ _______ _______ _____ _____    ______ ____
ROOT
ATOM      1  N   UNL     1      33.625 -23.861 -14.136  0.00  0.00    -0.247 N 
ATOM      2  N   UNL     1      34.852 -22.864 -15.869  0.00  0.00    -0.336 NA
ATOM      3  N   UNL     1      35.967 -23.892 -13.997  0.00  0.00    -0.170 NA
ATOM      4  C   UNL     1      36.065 -22.559 -16.371  0.00  0.00    +0.161 C 
ATOM      5  C   UNL     1      34.876 -23.522 -14.695  0.00  0.00    +0.149 C 
ATOM      6  C   UNL     1      37.256 -22.879 -15.759  0.00  0.00    +0.056 C 
ATOM      7  C   UNL     1      37.145 -23.553 -14.560  0.00  0.00    +0.114 C 
ATOM      8  H   UNL     1      33.691 -24.340 -13.278  0.00  0.00    +0.165 HD
ENDROOT
BRANCH   4  11
ATOM      9  N   UNL     1      34.902 -21.603 -18.364  0.00  0.00    -0.246 N 
ATOM     10  N   UNL     1      36.608 -20.711 -19.504  0.00  0.00    -0.227 NA
ATOM     11  C   UNL     1      36.034 -21.853 -17.630  0.00  0.00    +0.107 C 
ATOM     12  C   UNL     1      35.305 -20.903 -19.499  0.00  0.00    +0.139 C 
ATOM     13  C   UNL     1      37.064 -21.295 -18.350  0.00  0.00    +0.118 C 
ATOM     14  C   UNL     1      33.580 -21.946 -18.098  0.00  0.00    +0.071 C 
ATOM     15  C   UNL     1      34.286 -20.530 -20.423  0.00  0.00    +0.035 C 
ATOM     16  C   UNL     1      32.626 -21.591 -18.973  0.00  0.00    +0.017 C 
ATOM     17  C   UNL     1      33.004 -20.859 -20.173  0.00  0.00    +0.004 C 
ENDBRANCH   4  11
BRANCH   1  18
ATOM     18  C   UNL     1      32.301 -23.648 -14.564  0.00  0.00    +0.058 C 
ATOM     19  C   UNL     1      29.675 -23.226 -15.415  0.00  0.00    +0.122 C 
ATOM     20  C   UNL     1      31.356 -23.117 -13.683  0.00  0.00    +0.017 C 
ATOM     21  C   UNL     1      31.928 -23.966 -15.872  0.00  0.00    +0.017 C 
ATOM     22  C   UNL     1      30.045 -22.907 -14.108  0.00  0.00    +0.021 C 
ATOM     23  C   UNL     1      30.617 -23.756 -16.297  0.00  0.00    +0.021 C 
BRANCH  19  24
ATOM     24  S   UNL     1      28.033 -22.963 -15.948  0.00  0.00    +0.057 S 
ATOM     25  O   UNL     1      27.168 -22.948 -14.776  0.00  0.00    -0.153 OA
ATOM     26  O   UNL     1      28.020 -21.838 -16.871  0.00  0.00    -0.153 OA
BRANCH  24  27
ATOM     27  N   UNL     1      27.743 -24.399 -16.829  0.00  0.00    -0.203 NA
ATOM     28  H   UNL     1      26.743 -24.600 -16.829  0.00  0.00    +0.144 HD
ATOM     29  H   UNL     1      28.246 -25.172 -16.395  0.00  0.00    +0.144 HD
ENDBRANCH  24  27
ENDBRANCH  19  24
ENDBRANCH   1  18
TORSDOF 4
ENDMDL
MODEL 7
REMARK VINA RESULT:      -9.3      5.140      7.108
REMARK  Name = 5288527
REMARK  4 active torsions:
REMARK  status: ('A' for Active; 'I' for Inactive)
REMARK    1  A    between atoms: N_1  and  C_18
REMARK    2  A    between atoms: C_4  and  C_11
REMARK    3  A    between atoms: C_19  and  S_24
REMARK    4  A    between atoms: S_24  and  N_27
REMARK                            x       y       z     vdW  Elec       q    Type
REMARK                         _______ _______ _______ _____ _____    ______ ____
ROOT
ATOM      1  N   UNL     1      34.341 -23.365 -15.508  0.00  0.00    -0.247 N 
ATOM      2  N   UNL     1      34.591 -22.144 -17.496  0.00  0.00    -0.336 NA
ATOM      3  N   UNL     1      36.512 -22.808 -16.202  0.00  0.00    -0.170 NA
ATOM      4  C   UNL     1      35.435 -21.561 -18.371  0.00  0.00    +0.161 C 
ATOM      5  C   UNL     1      35.190 -22.741 -16.449  0.00  0.00    +0.149 C 
ATOM      6  C   UNL     1      36.805 -21.557 -18.237  0.00  0.00    +0.056 C 
ATOM      7  C   UNL     1      37.294 -22.203 -17.120  0.00  0.00    +0.114 C 
ATOM      8  H   UNL     1      34.822 -23.788 -14.760  0.00  0.00    +0.165 HD
ENDROOT
BRANCH   4  11
ATOM      9  N   UNL     1      35.408 -20.083 -20.384  0.00  0.00    -0.246 N 
ATOM     10  N   UNL     1      33.270 -20.228 -21.029  0.00  0.00    -0.227 NA
ATOM     11  C   UNL     1      34.788 -20.921 -19.492  0.00  0.00    +0.107 C 
ATOM     12  C   UNL     1      34.439 -19.686 -21.303  0.00  0.00    +0.139 C 
ATOM     13  C   UNL     1      33.480 -20.993 -19.911  0.00  0.00    +0.118 C 
ATOM     14  C   UNL     1      36.734 -19.663 -20.431  0.00  0.00    +0.071 C 
ATOM     15  C   UNL     1      34.856 -18.800 -22.340  0.00  0.00    +0.035 C 
ATOM     16  C   UNL     1      37.118 -18.829 -21.410  0.00  0.00    +0.017 C 
ATOM     17  C   UNL     1      36.138 -18.389 -22.391  0.00  0.00    +0.004 C 
ENDBRANCH   4  11
BRANCH   1  18
ATOM     18  C   UNL     1      32.942 -23.500 -15.431  0.00  0.00    +0.058 C 
ATOM     19  C   UNL     1      30.167 -23.770 -15.275  0.00  0.00    +0.122 C 
ATOM     20  C   UNL     1      32.133 -23.021 -16.463  0.00  0.00    +0.017 C 
ATOM     21  C   UNL     1      32.359 -24.115 -14.321  0.00  0.00    +0.017 C 
ATOM     22  C   UNL     1      30.748 -23.155 -16.385  0.00  0.00    +0.021 C 
ATOM     23  C   UNL     1      30.973 -24.250 -14.243  0.00  0.00    +0.021 C 
BRANCH  19  24
ATOM     24  S   UNL     1      28.432 -23.938 -15.178  0.00  0.00    +0.057 S 
ATOM     25  O   UNL     1      28.130 -25.099 -14.352  0.00  0.00    -0.153 OA
ATOM     26  O   UNL     1      27.860 -22.643 -14.841  0.00  0.00    -0.153 OA
BRANCH  24  27
ATOM     27  N   UNL     1      28.047 -24.302 -16.803  0.00  0.00    -0.203 NA
ATOM     28  H   UNL     1      27.446 -25.124 -16.833  0.00  0.00    +0.144 HD
ATOM     29  H   UNL     1      28.906 -24.488 -17.322  0.00  0.00    +0.144 HD
ENDBRANCH  24  27
ENDBRANCH  19  24
ENDBRANCH   1  18
TORSDOF 4
ENDMDL
MODEL 8
REMARK VINA RESULT:      -9.2      4.741      7.481
REMARK  Name = 5288527
REMARK  4 active torsions:
REMARK  status: ('A' for Active; 'I' for Inactive)
REMARK    1  A    between atoms: N_1  and  C_18
REMARK    2  A    between atoms: C_4  and  C_11
REMARK    3  A    between atoms: C_19  and  S_24
REMARK    4  A    between atoms: S_24  and  N_27
REMARK                            x       y       z     vdW  Elec       q    Type
REMARK                         _______ _______ _______ _____ _____    ______ ____
ROOT
ATOM      1  N   UNL     1      36.727 -22.031 -17.558  0.00  0.00    -0.247 N 
ATOM      2  N   UNL     1      34.658 -22.702 -16.679  0.00  0.00    -0.336 NA
ATOM      3  N   UNL     1      36.723 -23.382 -15.641  0.00  0.00    -0.170 NA
ATOM      4  C   UNL     1      34.000 -23.390 -15.725  0.00  0.00    +0.161 C 
ATOM      5  C   UNL     1      36.000 -22.740 -16.578  0.00  0.00    +0.149 C 
ATOM      6  C   UNL     1      34.619 -24.089 -14.711  0.00  0.00    +0.056 C 
ATOM      7  C   UNL     1      35.998 -24.049 -14.719  0.00  0.00    +0.114 C 
ATOM      8  H   UNL     1      37.703 -22.086 -17.445  0.00  0.00    +0.165 HD
ENDROOT
BRANCH   4  11
ATOM      9  N   UNL     1      31.686 -23.950 -14.970  0.00  0.00    -0.246 N 
ATOM     10  N   UNL     1      30.440 -22.935 -16.526  0.00  0.00    -0.227 NA
ATOM     11  C   UNL     1      32.562 -23.348 -15.838  0.00  0.00    +0.107 C 
ATOM     12  C   UNL     1      30.403 -23.669 -15.433  0.00  0.00    +0.139 C 
ATOM     13  C   UNL     1      31.772 -22.733 -16.781  0.00  0.00    +0.118 C 
ATOM     14  C   UNL     1      31.947 -24.708 -13.832  0.00  0.00    +0.071 C 
ATOM     15  C   UNL     1      29.314 -24.199 -14.680  0.00  0.00    +0.035 C 
ATOM     16  C   UNL     1      30.916 -25.203 -13.129  0.00  0.00    +0.017 C 
ATOM     17  C   UNL     1      29.559 -24.933 -13.578  0.00  0.00    +0.004 C 
ENDBRANCH   4  11
BRANCH   1  18
ATOM     18  C   UNL     1      36.329 -21.259 -18.666  0.00  0.00    +0.058 C 
ATOM     19  C   UNL     1      35.540 -19.727 -20.864  0.00  0.00    +0.122 C 
ATOM     20  C   UNL     1      35.057 -21.428 -19.218  0.00  0.00    +0.017 C 
ATOM     21  C   UNL     1      37.205 -20.321 -19.217  0.00  0.00    +0.017 C 
ATOM     22  C   UNL     1      34.663 -20.663 -20.315  0.00  0.00    +0.021 C 
ATOM     23  C   UNL     1      36.811 -19.556 -20.315  0.00  0.00    +0.021 C 
BRANCH  19  24
ATOM     24  S   UNL     1      35.048 -18.770 -22.239  0.00  0.00    +0.057 S 
ATOM     25  O   UNL     1      36.124 -18.789 -23.220  0.00  0.00    -0.153 OA
ATOM     26  O   UNL     1      33.706 -19.176 -22.630  0.00  0.00    -0.153 OA
BRANCH  24  27
ATOM     27  N   UNL     1      34.968 -17.212 -21.540  0.00  0.00    -0.203 NA
ATOM     28  H   UNL     1      34.030 -17.053 -21.173  0.00  0.00    +0.144 HD
ATOM     29  H   UNL     1      35.180 -16.510 -22.249  0.00  0.00    +0.144 HD
ENDBRANCH  24  27
ENDBRANCH  19  24
ENDBRANCH   1  18
TORSDOF 4
ENDMDL
MODEL 9
REMARK VINA RESULT:      -8.9     13.255     15.884
REMARK  Name = 5288527
REMARK  4 active torsions:
REMARK  status: ('A' for Active; 'I' for Inactive)
REMARK    1  A    between atoms: N_1  and  C_18
REMARK    2  A    between atoms: C_4  and  C_11
REMARK    3  A    between atoms: C_19  and  S_24
REMARK    4  A    between atoms: S_24  and  N_27
REMARK                            x       y       z     vdW  Elec       q    Type
REMARK                         _______ _______ _______ _____ _____    ______ ____
ROOT
ATOM      1  N   UNL     1      32.490 -12.590 -20.521  0.00  0.00    -0.247 N 
ATOM      2  N   UNL     1      32.147 -10.403 -21.297  0.00  0.00    -0.336 NA
ATOM      3  N   UNL     1      31.907 -10.938 -18.960  0.00  0.00    -0.170 NA
ATOM      4  C   UNL     1      31.834  -9.127 -20.995  0.00  0.00    +0.161 C 
ATOM      5  C   UNL     1      32.165 -11.244 -20.246  0.00  0.00    +0.149 C 
ATOM      6  C   UNL     1      31.548  -8.683 -19.723  0.00  0.00    +0.056 C 
ATOM      7  C   UNL     1      31.601  -9.644 -18.734  0.00  0.00    +0.114 C 
ATOM      8  H   UNL     1      32.491 -13.168 -19.724  0.00  0.00    +0.165 HD
ENDROOT
BRANCH   4  11
ATOM      9  N   UNL     1      32.922  -7.636 -22.677  0.00  0.00    -0.246 N 
ATOM     10  N   UNL     1      31.165  -6.932 -23.869  0.00  0.00    -0.227 NA
ATOM     11  C   UNL     1      31.815  -8.230 -22.125  0.00  0.00    +0.107 C 
ATOM     12  C   UNL     1      32.473  -6.854 -23.738  0.00  0.00    +0.139 C 
ATOM     13  C   UNL     1      30.752  -7.783 -22.875  0.00  0.00    +0.118 C 
ATOM     14  C   UNL     1      34.260  -7.741 -22.309  0.00  0.00    +0.071 C 
ATOM     15  C   UNL     1      33.459  -6.131 -24.471  0.00  0.00    +0.035 C 
ATOM     16  C   UNL     1      35.183  -7.058 -23.004  0.00  0.00    +0.017 C 
ATOM     17  C   UNL     1      34.756  -6.228 -24.121  0.00  0.00    +0.004 C 
ENDBRANCH   4  11
BRANCH   1  18
ATOM     18  C   UNL     1      32.814 -13.268 -21.711  0.00  0.00    +0.058 C 
ATOM     19  C   UNL     1      33.457 -14.614 -24.072  0.00  0.00    +0.122 C 
ATOM     20  C   UNL     1      32.168 -12.937 -22.904  0.00  0.00    +0.017 C 
ATOM     21  C   UNL     1      33.783 -14.274 -21.702  0.00  0.00    +0.017 C 
ATOM     22  C   UNL     1      32.489 -13.609 -24.083  0.00  0.00    +0.021 C 
ATOM     23  C   UNL     1      34.104 -14.946 -22.881  0.00  0.00    +0.021 C 
BRANCH  19  24
ATOM     24  S   UNL     1      33.859 -15.457 -25.547  0.00  0.00    +0.057 S 
ATOM     25  O   UNL     1      33.933 -14.482 -26.626  0.00  0.00    -0.153 OA
ATOM     26  O   UNL     1      34.991 -16.334 -25.286  0.00  0.00    -0.153 OA
BRANCH  24  27
ATOM     27  N   UNL     1      32.461 -16.416 -25.766  0.00  0.00    -0.203 NA
ATOM     28  H   UNL     1      32.718 -17.402 -25.731  0.00  0.00    +0.144 HD
ATOM     29  H   UNL     1      32.042 -16.205 -26.672  0.00  0.00    +0.144 HD
ENDBRANCH  24  27
ENDBRANCH  19  24
ENDBRANCH   1  18
TORSDOF 4
ENDMDL
