MODEL 1
REMARK VINA RESULT:     -11.5      0.000      0.000
REMARK  Name = 25052630
REMARK  6 active torsions:
REMARK  status: ('A' for Active; 'I' for Inactive)
REMARK    1  A    between atoms: N_2  and  C_11
REMARK    2  A    between atoms: C_4  and  C_20
REMARK    3  A    between atoms: C_20  and  C_21
REMARK    4  A    between atoms: C_21  and  N_22
REMARK    5  A    between atoms: N_22  and  C_25
REMARK    6  A    between atoms: C_25  and  C_26
REMARK                            x       y       z     vdW  Elec       q    Type
REMARK                         _______ _______ _______ _____ _____    ______ ____
ROOT
ATOM      1  S   UNL     1      37.162 -26.880 -13.442  0.00  0.00    -0.018 S 
ATOM      2  N   UNL     1      36.285 -24.480 -14.588  0.00  0.00    -0.270 N 
ATOM      3  N   UNL     1      38.511 -24.812 -14.599  0.00  0.00    -0.294 N 
ATOM      4  C   UNL     1      36.918 -23.394 -15.189  0.00  0.00    +0.043 C 
ATOM      5  C   UNL     1      37.294 -25.409 -14.198  0.00  0.00    +0.142 C 
ATOM      6  C   UNL     1      38.244 -23.605 -15.190  0.00  0.00    +0.074 C 
ATOM      7  H   UNL     1      39.407 -25.200 -14.474  0.00  0.00    +0.154 HD
ENDROOT
BRANCH   2  11
ATOM      8  F   UNL     1      30.421 -24.264 -12.234  0.00  0.00    -0.201 F 
ATOM      9  F   UNL     1      29.495 -22.625 -16.571  0.00  0.00    -0.204 F 
ATOM     10  O   UNL     1      33.040 -24.436 -12.778  0.00  0.00    -0.472 OA
ATOM     11  C   UNL     1      34.860 -24.592 -14.415  0.00  0.00    +0.127 C 
ATOM     12  C   UNL     1      34.111 -23.714 -15.414  0.00  0.00    +0.054 C 
ATOM     13  C   UNL     1      34.435 -24.202 -13.003  0.00  0.00    +0.226 C 
ATOM     14  C   UNL     1      32.656 -23.624 -15.049  0.00  0.00    +0.018 C 
ATOM     15  C   UNL     1      32.212 -23.975 -13.768  0.00  0.00    +0.162 C 
ATOM     16  C   UNL     1      31.729 -23.159 -15.991  0.00  0.00    +0.029 C 
ATOM     17  C   UNL     1      30.854 -23.897 -13.448  0.00  0.00    +0.176 C 
ATOM     18  C   UNL     1      30.374 -23.071 -15.664  0.00  0.00    +0.142 C 
ATOM     19  C   UNL     1      29.937 -23.444 -14.396  0.00  0.00    +0.062 C 
ENDBRANCH   2  11
BRANCH   4  20
ATOM     20  C   UNL     1      36.179 -22.225 -15.723  0.00  0.00    +0.019 C 
BRANCH  20  21
ATOM     21  C   UNL     1      37.114 -21.243 -16.429  0.00  0.00    -0.075 C 
BRANCH  21  22
ATOM     22  N   UNL     1      36.972 -21.350 -17.876  0.00  0.00    +0.387 N 
ATOM     23  H   UNL     1      37.758 -21.880 -18.251  0.00  0.00    -0.084 HD
ATOM     24  H   UNL     1      36.954 -20.411 -18.272  0.00  0.00    -0.084 HD
BRANCH  22  25
ATOM     25  C   UNL     1      35.731 -22.027 -18.226  0.00  0.00    -0.054 C 
BRANCH  25  26
ATOM     26  C   UNL     1      34.943 -21.258 -19.254  0.00  0.00    -0.044 C 
ATOM     27  C   UNL     1      35.606 -20.456 -20.184  0.00  0.00    -0.006 C 
ATOM     28  C   UNL     1      33.552 -21.348 -19.277  0.00  0.00    -0.006 C 
ATOM     29  C   UNL     1      34.877 -19.745 -21.136  0.00  0.00    -0.000 C 
ATOM     30  C   UNL     1      32.823 -20.635 -20.230  0.00  0.00    -0.000 C 
ATOM     31  C   UNL     1      33.486 -19.834 -21.159  0.00  0.00    -0.000 C 
ENDBRANCH  25  26
ENDBRANCH  22  25
ENDBRANCH  21  22
ENDBRANCH  20  21
ENDBRANCH   4  20
TORSDOF 6
ENDMDL
MODEL 2
REMARK VINA RESULT:     -10.7      8.777     12.497
REMARK  Name = 25052630
REMARK  6 active torsions:
REMARK  status: ('A' for Active; 'I' for Inactive)
REMARK    1  A    between atoms: N_2  and  C_11
REMARK    2  A    between atoms: C_4  and  C_20
REMARK    3  A    between atoms: C_20  and  C_21
REMARK    4  A    between atoms: C_21  and  N_22
REMARK    5  A    between atoms: N_22  and  C_25
REMARK    6  A    between atoms: C_25  and  C_26
REMARK                            x       y       z     vdW  Elec       q    Type
REMARK                         _______ _______ _______ _____ _____    ______ ____
ROOT
ATOM      1  S   UNL     1      32.855 -13.461 -26.587  0.00  0.00    -0.018 S 
ATOM      2  N   UNL     1      33.783 -14.325 -24.090  0.00  0.00    -0.270 N 
ATOM      3  N   UNL     1      33.707 -15.895 -25.700  0.00  0.00    -0.294 N 
ATOM      4  C   UNL     1      34.229 -15.542 -23.579  0.00  0.00    +0.043 C 
ATOM      5  C   UNL     1      33.441 -14.528 -25.459  0.00  0.00    +0.142 C 
ATOM      6  C   UNL     1      34.179 -16.469 -24.548  0.00  0.00    +0.074 C 
ATOM      7  H   UNL     1      33.575 -16.361 -26.557  0.00  0.00    +0.154 HD
ENDROOT
BRANCH   2  11
ATOM      8  F   UNL     1      33.172  -8.274 -22.360  0.00  0.00    -0.201 F 
ATOM      9  F   UNL     1      30.462 -10.235 -19.018  0.00  0.00    -0.204 F 
ATOM     10  O   UNL     1      33.633 -10.660 -23.490  0.00  0.00    -0.472 OA
ATOM     11  C   UNL     1      33.702 -13.107 -23.326  0.00  0.00    +0.127 C 
ATOM     12  C   UNL     1      32.511 -13.131 -22.371  0.00  0.00    +0.054 C 
ATOM     13  C   UNL     1      33.581 -11.885 -24.230  0.00  0.00    +0.226 C 
ATOM     14  C   UNL     1      32.275 -11.767 -21.788  0.00  0.00    +0.018 C 
ATOM     15  C   UNL     1      32.832 -10.625 -22.379  0.00  0.00    +0.162 C 
ATOM     16  C   UNL     1      31.465 -11.624 -20.654  0.00  0.00    +0.029 C 
ATOM     17  C   UNL     1      32.613  -9.364 -21.817  0.00  0.00    +0.176 C 
ATOM     18  C   UNL     1      31.238 -10.361 -20.103  0.00  0.00    +0.142 C 
ATOM     19  C   UNL     1      31.815  -9.234 -20.682  0.00  0.00    +0.062 C 
ENDBRANCH   2  11
BRANCH   4  20
ATOM     20  C   UNL     1      34.674 -15.712 -22.174  0.00  0.00    +0.019 C 
BRANCH  20  21
ATOM     21  C   UNL     1      35.578 -16.934 -22.016  0.00  0.00    -0.075 C 
BRANCH  21  22
ATOM     22  N   UNL     1      35.042 -17.838 -21.004  0.00  0.00    +0.387 N 
ATOM     23  H   UNL     1      34.176 -17.449 -20.634  0.00  0.00    -0.084 HD
ATOM     24  H   UNL     1      35.733 -17.941 -20.261  0.00  0.00    -0.084 HD
BRANCH  22  25
ATOM     25  C   UNL     1      34.771 -19.151 -21.573  0.00  0.00    -0.054 C 
BRANCH  25  26
ATOM     26  C   UNL     1      34.570 -20.194 -20.506  0.00  0.00    -0.044 C 
ATOM     27  C   UNL     1      33.279 -20.534 -20.098  0.00  0.00    -0.006 C 
ATOM     28  C   UNL     1      35.672 -20.822 -19.928  0.00  0.00    -0.006 C 
ATOM     29  C   UNL     1      33.093 -21.501 -19.111  0.00  0.00    -0.000 C 
ATOM     30  C   UNL     1      35.485 -21.789 -18.940  0.00  0.00    -0.000 C 
ATOM     31  C   UNL     1      34.195 -22.128 -18.532  0.00  0.00    -0.000 C 
ENDBRANCH  25  26
ENDBRANCH  22  25
ENDBRANCH  21  22
ENDBRANCH  20  21
ENDBRANCH   4  20
TORSDOF 6
ENDMDL
MODEL 3
REMARK VINA RESULT:     -10.3      1.051      2.169
REMARK  Name = 25052630
REMARK  6 active torsions:
REMARK  status: ('A' for Active; 'I' for Inactive)
REMARK    1  A    between atoms: N_2  and  C_11
REMARK    2  A    between atoms: C_4  and  C_20
REMARK    3  A    between atoms: C_20  and  C_21
REMARK    4  A    between atoms: C_21  and  N_22
REMARK    5  A    between atoms: N_22  and  C_25
REMARK    6  A    between atoms: C_25  and  C_26
REMARK                            x       y       z     vdW  Elec       q    Type
REMARK                         _______ _______ _______ _____ _____    ______ ____
ROOT
ATOM      1  S   UNL     1      36.245 -26.738 -14.507  0.00  0.00    -0.018 S 
ATOM      2  N   UNL     1      36.382 -23.981 -14.975  0.00  0.00    -0.270 N 
ATOM      3  N   UNL     1      38.350 -25.071 -14.983  0.00  0.00    -0.294 N 
ATOM      4  C   UNL     1      37.415 -23.080 -15.222  0.00  0.00    +0.043 C 
ATOM      5  C   UNL     1      36.961 -25.274 -14.817  0.00  0.00    +0.142 C 
ATOM      6  C   UNL     1      38.583 -23.743 -15.224  0.00  0.00    +0.074 C 
ATOM      7  H   UNL     1      39.041 -25.771 -14.932  0.00  0.00    +0.154 HD
ENDROOT
BRANCH   2  11
ATOM      8  F   UNL     1      30.289 -22.978 -16.338  0.00  0.00    -0.201 F 
ATOM      9  F   UNL     1      29.742 -24.877 -12.042  0.00  0.00    -0.204 F 
ATOM     10  O   UNL     1      32.948 -23.300 -16.222  0.00  0.00    -0.472 OA
ATOM     11  C   UNL     1      34.990 -23.617 -14.901  0.00  0.00    +0.127 C 
ATOM     12  C   UNL     1      34.253 -24.456 -13.861  0.00  0.00    +0.054 C 
ATOM     13  C   UNL     1      34.295 -23.784 -16.249  0.00  0.00    +0.226 C 
ATOM     14  C   UNL     1      32.768 -24.265 -13.986  0.00  0.00    +0.018 C 
ATOM     15  C   UNL     1      32.208 -23.716 -15.147  0.00  0.00    +0.162 C 
ATOM     16  C   UNL     1      31.923 -24.664 -12.942  0.00  0.00    +0.029 C 
ATOM     17  C   UNL     1      30.825 -23.534 -15.243  0.00  0.00    +0.176 C 
ATOM     18  C   UNL     1      30.542 -24.492 -13.046  0.00  0.00    +0.142 C 
ATOM     19  C   UNL     1      29.995 -23.924 -14.193  0.00  0.00    +0.062 C 
ENDBRANCH   2  11
BRANCH   4  20
ATOM     20  C   UNL     1      37.187 -21.631 -15.440  0.00  0.00    +0.019 C 
BRANCH  20  21
ATOM     21  C   UNL     1      37.528 -21.218 -16.872  0.00  0.00    -0.075 C 
BRANCH  21  22
ATOM     22  N   UNL     1      36.696 -21.943 -17.826  0.00  0.00    +0.387 N 
ATOM     23  H   UNL     1      35.734 -21.954 -17.488  0.00  0.00    -0.084 HD
ATOM     24  H   UNL     1      37.054 -22.893 -17.913  0.00  0.00    -0.084 HD
BRANCH  22  25
ATOM     25  C   UNL     1      36.736 -21.308 -19.135  0.00  0.00    -0.054 C 
BRANCH  25  26
ATOM     26  C   UNL     1      35.358 -20.960 -19.632  0.00  0.00    -0.044 C 
ATOM     27  C   UNL     1      34.236 -21.554 -19.050  0.00  0.00    -0.006 C 
ATOM     28  C   UNL     1      35.202 -20.044 -20.671  0.00  0.00    -0.006 C 
ATOM     29  C   UNL     1      32.960 -21.231 -19.509  0.00  0.00    -0.000 C 
ATOM     30  C   UNL     1      33.924 -19.721 -21.130  0.00  0.00    -0.000 C 
ATOM     31  C   UNL     1      32.803 -20.315 -20.549  0.00  0.00    -0.000 C 
ENDBRANCH  25  26
ENDBRANCH  22  25
ENDBRANCH  21  22
ENDBRANCH  20  21
ENDBRANCH   4  20
TORSDOF 6
ENDMDL
MODEL 4
REMARK VINA RESULT:     -10.2      3.331      5.241
REMARK  Name = 25052630
REMARK  6 active torsions:
REMARK  status: ('A' for Active; 'I' for Inactive)
REMARK    1  A    between atoms: N_2  and  C_11
REMARK    2  A    between atoms: C_4  and  C_20
REMARK    3  A    between atoms: C_20  and  C_21
REMARK    4  A    between atoms: C_21  and  N_22
REMARK    5  A    between atoms: N_22  and  C_25
REMARK    6  A    between atoms: C_25  and  C_26
REMARK                            x       y       z     vdW  Elec       q    Type
REMARK                         _______ _______ _______ _____ _____    ______ ____
ROOT
ATOM      1  S   UNL     1      31.403 -25.050 -13.030  0.00  0.00    -0.018 S 
ATOM      2  N   UNL     1      32.977 -23.776 -14.963  0.00  0.00    -0.270 N 
ATOM      3  N   UNL     1      30.798 -24.007 -15.476  0.00  0.00    -0.294 N 
ATOM      4  C   UNL     1      32.730 -23.226 -16.219  0.00  0.00    +0.043 C 
ATOM      5  C   UNL     1      31.744 -24.286 -14.463  0.00  0.00    +0.142 C 
ATOM      6  C   UNL     1      31.429 -23.370 -16.512  0.00  0.00    +0.074 C 
ATOM      7  H   UNL     1      29.841 -24.233 -15.443  0.00  0.00    +0.154 HD
ENDROOT
BRANCH   2  11
ATOM      8  F   UNL     1      37.666 -24.315 -10.755  0.00  0.00    -0.201 F 
ATOM      9  F   UNL     1      39.690 -26.615 -14.357  0.00  0.00    -0.204 F 
ATOM     10  O   UNL     1      35.419 -23.932 -12.166  0.00  0.00    -0.472 OA
ATOM     11  C   UNL     1      34.270 -23.798 -14.329  0.00  0.00    +0.127 C 
ATOM     12  C   UNL     1      35.163 -24.879 -14.932  0.00  0.00    +0.054 C 
ATOM     13  C   UNL     1      34.154 -24.039 -12.827  0.00  0.00    +0.226 C 
ATOM     14  C   UNL     1      36.391 -25.079 -14.091  0.00  0.00    +0.018 C 
ATOM     15  C   UNL     1      36.444 -24.610 -12.771  0.00  0.00    +0.162 C 
ATOM     16  C   UNL     1      37.494 -25.765 -14.617  0.00  0.00    +0.029 C 
ATOM     17  C   UNL     1      37.599 -24.792 -12.005  0.00  0.00    +0.176 C 
ATOM     18  C   UNL     1      38.641 -25.957 -13.845  0.00  0.00    +0.142 C 
ATOM     19  C   UNL     1      38.695 -25.467 -12.542  0.00  0.00    +0.062 C 
ENDBRANCH   2  11
BRANCH   4  20
ATOM     20  C   UNL     1      33.789 -22.596 -17.045  0.00  0.00    +0.019 C 
BRANCH  20  21
ATOM     21  C   UNL     1      33.520 -22.781 -18.539  0.00  0.00    -0.075 C 
BRANCH  21  22
ATOM     22  N   UNL     1      33.750 -21.533 -19.259  0.00  0.00    +0.387 N 
ATOM     23  H   UNL     1      33.344 -20.763 -18.728  0.00  0.00    -0.084 HD
ATOM     24  H   UNL     1      33.314 -21.602 -20.177  0.00  0.00    -0.084 HD
BRANCH  22  25
ATOM     25  C   UNL     1      35.175 -21.292 -19.437  0.00  0.00    -0.054 C 
BRANCH  25  26
ATOM     26  C   UNL     1      35.439 -20.216 -20.455  0.00  0.00    -0.044 C 
ATOM     27  C   UNL     1      36.699 -19.620 -20.530  0.00  0.00    -0.006 C 
ATOM     28  C   UNL     1      34.426 -19.815 -21.325  0.00  0.00    -0.006 C 
ATOM     29  C   UNL     1      36.943 -18.623 -21.474  0.00  0.00    -0.000 C 
ATOM     30  C   UNL     1      34.671 -18.817 -22.269  0.00  0.00    -0.000 C 
ATOM     31  C   UNL     1      35.930 -18.222 -22.344  0.00  0.00    -0.000 C 
ENDBRANCH  25  26
ENDBRANCH  22  25
ENDBRANCH  21  22
ENDBRANCH  20  21
ENDBRANCH   4  20
TORSDOF 6
ENDMDL
MODEL 5
REMARK VINA RESULT:     -10.1      1.897      2.766
REMARK  Name = 25052630
REMARK  6 active torsions:
REMARK  status: ('A' for Active; 'I' for Inactive)
REMARK    1  A    between atoms: N_2  and  C_11
REMARK    2  A    between atoms: C_4  and  C_20
REMARK    3  A    between atoms: C_20  and  C_21
REMARK    4  A    between atoms: C_21  and  N_22
REMARK    5  A    between atoms: N_22  and  C_25
REMARK    6  A    between atoms: C_25  and  C_26
REMARK                            x       y       z     vdW  Elec       q    Type
REMARK                         _______ _______ _______ _____ _____    ______ ____
ROOT
ATOM      1  S   UNL     1      37.030 -23.275 -13.798  0.00  0.00    -0.018 S 
ATOM      2  N   UNL     1      35.482 -22.863 -16.095  0.00  0.00    -0.270 N 
ATOM      3  N   UNL     1      37.538 -21.949 -16.126  0.00  0.00    -0.294 N 
ATOM      4  C   UNL     1      35.683 -22.201 -17.304  0.00  0.00    +0.043 C 
ATOM      5  C   UNL     1      36.667 -22.714 -15.317  0.00  0.00    +0.142 C 
ATOM      6  C   UNL     1      36.911 -21.662 -17.310  0.00  0.00    +0.074 C 
ATOM      7  H   UNL     1      38.448 -21.667 -15.879  0.00  0.00    +0.154 HD
ENDROOT
BRANCH   2  11
ATOM      8  F   UNL     1      30.748 -25.572 -12.896  0.00  0.00    -0.201 F 
ATOM      9  F   UNL     1      28.182 -23.304 -16.157  0.00  0.00    -0.204 F 
ATOM     10  O   UNL     1      33.028 -24.567 -13.884  0.00  0.00    -0.472 OA
ATOM     11  C   UNL     1      34.271 -23.558 -15.743  0.00  0.00    +0.127 C 
ATOM     12  C   UNL     1      33.038 -22.801 -16.229  0.00  0.00    +0.054 C 
ATOM     13  C   UNL     1      34.159 -23.762 -14.236  0.00  0.00    +0.226 C 
ATOM     14  C   UNL     1      31.791 -23.381 -15.625  0.00  0.00    +0.018 C 
ATOM     15  C   UNL     1      31.855 -24.210 -14.497  0.00  0.00    +0.162 C 
ATOM     16  C   UNL     1      30.540 -23.073 -16.176  0.00  0.00    +0.029 C 
ATOM     17  C   UNL     1      30.687 -24.752 -13.954  0.00  0.00    +0.176 C 
ATOM     18  C   UNL     1      29.374 -23.605 -15.623  0.00  0.00    +0.142 C 
ATOM     19  C   UNL     1      29.448 -24.448 -14.516  0.00  0.00    +0.062 C 
ENDBRANCH   2  11
BRANCH   4  20
ATOM     20  C   UNL     1      34.655 -22.145 -18.372  0.00  0.00    +0.019 C 
BRANCH  20  21
ATOM     21  C   UNL     1      35.256 -21.706 -19.707  0.00  0.00    -0.075 C 
BRANCH  21  22
ATOM     22  N   UNL     1      34.734 -20.402 -20.099  0.00  0.00    +0.387 N 
ATOM     23  H   UNL     1      34.371 -19.926 -19.274  0.00  0.00    -0.084 HD
ATOM     24  H   UNL     1      33.992 -20.541 -20.785  0.00  0.00    -0.084 HD
BRANCH  22  25
ATOM     25  C   UNL     1      35.778 -19.585 -20.702  0.00  0.00    -0.054 C 
BRANCH  25  26
ATOM     26  C   UNL     1      35.273 -18.821 -21.897  0.00  0.00    -0.044 C 
ATOM     27  C   UNL     1      35.510 -17.449 -21.998  0.00  0.00    -0.006 C 
ATOM     28  C   UNL     1      34.571 -19.484 -22.902  0.00  0.00    -0.006 C 
ATOM     29  C   UNL     1      35.043 -16.742 -23.105  0.00  0.00    -0.000 C 
ATOM     30  C   UNL     1      34.104 -18.775 -24.010  0.00  0.00    -0.000 C 
ATOM     31  C   UNL     1      34.340 -17.404 -24.111  0.00  0.00    -0.000 C 
ENDBRANCH  25  26
ENDBRANCH  22  25
ENDBRANCH  21  22
ENDBRANCH  20  21
ENDBRANCH   4  20
TORSDOF 6
ENDMDL
MODEL 6
REMARK VINA RESULT:      -9.9     11.196     14.996
REMARK  Name = 25052630
REMARK  6 active torsions:
REMARK  status: ('A' for Active; 'I' for Inactive)
REMARK    1  A    between atoms: N_2  and  C_11
REMARK    2  A    between atoms: C_4  and  C_20
REMARK    3  A    between atoms: C_20  and  C_21
REMARK    4  A    between atoms: C_21  and  N_22
REMARK    5  A    between atoms: N_22  and  C_25
REMARK    6  A    between atoms: C_25  and  C_26
REMARK                            x       y       z     vdW  Elec       q    Type
REMARK                         _______ _______ _______ _____ _____    ______ ____
ROOT
ATOM      1  S   UNL     1      31.211 -10.419 -19.325  0.00  0.00    -0.018 S 
ATOM      2  N   UNL     1      32.261 -11.298 -21.767  0.00  0.00    -0.270 N 
ATOM      3  N   UNL     1      32.067 -12.867 -20.166  0.00  0.00    -0.294 N 
ATOM      4  C   UNL     1      32.712 -12.523 -22.254  0.00  0.00    +0.043 C 
ATOM      5  C   UNL     1      31.839 -11.496 -20.420  0.00  0.00    +0.142 C 
ATOM      6  C   UNL     1      32.591 -13.449 -21.290  0.00  0.00    +0.074 C 
ATOM      7  H   UNL     1      31.880 -13.331 -19.317  0.00  0.00    +0.154 HD
ENDROOT
BRANCH   2  11
ATOM      8  F   UNL     1      31.162  -5.403 -23.772  0.00  0.00    -0.201 F 
ATOM      9  F   UNL     1      35.801  -5.594 -24.667  0.00  0.00    -0.204 F 
ATOM     10  O   UNL     1      31.185  -7.877 -22.740  0.00  0.00    -0.472 OA
ATOM     11  C   UNL     1      32.246 -10.078 -22.532  0.00  0.00    +0.127 C 
ATOM     12  C   UNL     1      33.645  -9.475 -22.638  0.00  0.00    +0.054 C 
ATOM     13  C   UNL     1      31.310  -9.042 -21.918  0.00  0.00    +0.226 C 
ATOM     14  C   UNL     1      33.577  -8.080 -23.191  0.00  0.00    +0.018 C 
ATOM     15  C   UNL     1      32.371  -7.367 -23.200  0.00  0.00    +0.162 C 
ATOM     16  C   UNL     1      34.737  -7.467 -23.683  0.00  0.00    +0.029 C 
ATOM     17  C   UNL     1      32.321  -6.075 -23.730  0.00  0.00    +0.176 C 
ATOM     18  C   UNL     1      34.687  -6.172 -24.200  0.00  0.00    +0.142 C 
ATOM     19  C   UNL     1      33.479  -5.478 -24.227  0.00  0.00    +0.062 C 
ENDBRANCH   2  11
BRANCH   4  20
ATOM     20  C   UNL     1      33.231 -12.701 -23.632  0.00  0.00    +0.019 C 
BRANCH  20  21
ATOM     21  C   UNL     1      33.247 -14.174 -24.040  0.00  0.00    -0.075 C 
BRANCH  21  22
ATOM     22  N   UNL     1      34.549 -14.768 -23.756  0.00  0.00    +0.387 N 
ATOM     23  H   UNL     1      34.666 -14.847 -22.746  0.00  0.00    -0.084 HD
ATOM     24  H   UNL     1      35.273 -14.171 -24.153  0.00  0.00    -0.084 HD
BRANCH  22  25
ATOM     25  C   UNL     1      34.656 -16.092 -24.354  0.00  0.00    -0.054 C 
BRANCH  25  26
ATOM     26  C   UNL     1      34.765 -17.171 -23.311  0.00  0.00    -0.044 C 
ATOM     27  C   UNL     1      35.223 -16.860 -22.030  0.00  0.00    -0.006 C 
ATOM     28  C   UNL     1      34.408 -18.482 -23.624  0.00  0.00    -0.006 C 
ATOM     29  C   UNL     1      35.323 -17.860 -21.063  0.00  0.00    -0.000 C 
ATOM     30  C   UNL     1      34.509 -19.483 -22.656  0.00  0.00    -0.000 C 
ATOM     31  C   UNL     1      34.967 -19.171 -21.376  0.00  0.00    -0.000 C 
ENDBRANCH  25  26
ENDBRANCH  22  25
ENDBRANCH  21  22
ENDBRANCH  20  21
ENDBRANCH   4  20
TORSDOF 6
ENDMDL
MODEL 7
REMARK VINA RESULT:      -9.9      3.418      6.824
REMARK  Name = 25052630
REMARK  6 active torsions:
REMARK  status: ('A' for Active; 'I' for Inactive)
REMARK    1  A    between atoms: N_2  and  C_11
REMARK    2  A    between atoms: C_4  and  C_20
REMARK    3  A    between atoms: C_20  and  C_21
REMARK    4  A    between atoms: C_21  and  N_22
REMARK    5  A    between atoms: N_22  and  C_25
REMARK    6  A    between atoms: C_25  and  C_26
REMARK                            x       y       z     vdW  Elec       q    Type
REMARK                         _______ _______ _______ _____ _____    ______ ____
ROOT
ATOM      1  S   UNL     1      29.581 -23.180 -16.109  0.00  0.00    -0.018 S 
ATOM      2  N   UNL     1      32.041 -23.811 -14.929  0.00  0.00    -0.270 N 
ATOM      3  N   UNL     1      30.236 -24.787 -14.004  0.00  0.00    -0.294 N 
ATOM      4  C   UNL     1      32.438 -24.616 -13.863  0.00  0.00    +0.043 C 
ATOM      5  C   UNL     1      30.623 -23.905 -15.040  0.00  0.00    +0.142 C 
ATOM      6  C   UNL     1      31.353 -25.191 -13.322  0.00  0.00    +0.074 C 
ATOM      7  H   UNL     1      29.313 -25.065 -13.805  0.00  0.00    +0.154 HD
ENDROOT
BRANCH   2  11
ATOM      8  F   UNL     1      36.959 -21.942 -18.436  0.00  0.00    -0.201 F 
ATOM      9  F   UNL     1      33.482 -20.186 -21.115  0.00  0.00    -0.204 F 
ATOM     10  O   UNL     1      35.198 -22.997 -16.712  0.00  0.00    -0.472 OA
ATOM     11  C   UNL     1      32.946 -23.040 -15.742  0.00  0.00    +0.127 C 
ATOM     12  C   UNL     1      32.305 -22.659 -17.074  0.00  0.00    +0.054 C 
ATOM     13  C   UNL     1      34.238 -23.801 -16.018  0.00  0.00    +0.226 C 
ATOM     14  C   UNL     1      33.336 -22.103 -18.015  0.00  0.00    +0.018 C 
ATOM     15  C   UNL     1      34.703 -22.310 -17.789  0.00  0.00    +0.162 C 
ATOM     16  C   UNL     1      32.931 -21.389 -19.150  0.00  0.00    +0.029 C 
ATOM     17  C   UNL     1      35.650 -21.775 -18.667  0.00  0.00    +0.176 C 
ATOM     18  C   UNL     1      33.879 -20.867 -20.032  0.00  0.00    +0.142 C 
ATOM     19  C   UNL     1      35.237 -21.056 -19.788  0.00  0.00    +0.062 C 
ENDBRANCH   2  11
BRANCH   4  20
ATOM     20  C   UNL     1      33.854 -24.766 -13.450  0.00  0.00    +0.019 C 
BRANCH  20  21
ATOM     21  C   UNL     1      34.196 -23.853 -12.273  0.00  0.00    -0.075 C 
BRANCH  21  22
ATOM     22  N   UNL     1      35.623 -23.553 -12.256  0.00  0.00    +0.387 N 
ATOM     23  H   UNL     1      35.815 -22.891 -11.505  0.00  0.00    -0.084 HD
ATOM     24  H   UNL     1      35.883 -23.154 -13.157  0.00  0.00    -0.084 HD
BRANCH  22  25
ATOM     25  C   UNL     1      36.404 -24.762 -12.038  0.00  0.00    -0.054 C 
BRANCH  25  26
ATOM     26  C   UNL     1      37.567 -24.857 -12.989  0.00  0.00    -0.044 C 
ATOM     27  C   UNL     1      38.664 -25.661 -12.672  0.00  0.00    -0.006 C 
ATOM     28  C   UNL     1      37.548 -24.145 -14.188  0.00  0.00    -0.006 C 
ATOM     29  C   UNL     1      39.740 -25.749 -13.554  0.00  0.00    -0.000 C 
ATOM     30  C   UNL     1      38.626 -24.234 -15.070  0.00  0.00    -0.000 C 
ATOM     31  C   UNL     1      39.722 -25.037 -14.752  0.00  0.00    -0.000 C 
ENDBRANCH  25  26
ENDBRANCH  22  25
ENDBRANCH  21  22
ENDBRANCH  20  21
ENDBRANCH   4  20
TORSDOF 6
ENDMDL
MODEL 8
REMARK VINA RESULT:      -9.9      1.569      2.725
REMARK  Name = 25052630
REMARK  6 active torsions:
REMARK  status: ('A' for Active; 'I' for Inactive)
REMARK    1  A    between atoms: N_2  and  C_11
REMARK    2  A    between atoms: C_4  and  C_20
REMARK    3  A    between atoms: C_20  and  C_21
REMARK    4  A    between atoms: C_21  and  N_22
REMARK    5  A    between atoms: N_22  and  C_25
REMARK    6  A    between atoms: C_25  and  C_26
REMARK                            x       y       z     vdW  Elec       q    Type
REMARK                         _______ _______ _______ _____ _____    ______ ____
ROOT
ATOM      1  S   UNL     1      36.696 -25.335 -13.834  0.00  0.00    -0.018 S 
ATOM      2  N   UNL     1      36.356 -23.125 -15.519  0.00  0.00    -0.270 N 
ATOM      3  N   UNL     1      38.463 -23.893 -15.329  0.00  0.00    -0.294 N 
ATOM      4  C   UNL     1      37.209 -22.351 -16.303  0.00  0.00    +0.043 C 
ATOM      5  C   UNL     1      37.143 -24.128 -14.880  0.00  0.00    +0.142 C 
ATOM      6  C   UNL     1      38.461 -22.820 -16.180  0.00  0.00    +0.074 C 
ATOM      7  H   UNL     1      39.256 -24.417 -15.072  0.00  0.00    +0.154 HD
ENDROOT
BRANCH   2  11
ATOM      8  F   UNL     1      30.130 -23.004 -16.612  0.00  0.00    -0.201 F 
ATOM      9  F   UNL     1      30.016 -24.275 -12.058  0.00  0.00    -0.204 F 
ATOM     10  O   UNL     1      32.810 -23.016 -16.625  0.00  0.00    -0.472 OA
ATOM     11  C   UNL     1      34.937 -22.906 -15.408  0.00  0.00    +0.127 C 
ATOM     12  C   UNL     1      34.354 -23.652 -14.210  0.00  0.00    +0.054 C 
ATOM     13  C   UNL     1      34.202 -23.351 -16.668  0.00  0.00    +0.226 C 
ATOM     14  C   UNL     1      32.853 -23.644 -14.264  0.00  0.00    +0.018 C 
ATOM     15  C   UNL     1      32.176 -23.342 -15.454  0.00  0.00    +0.162 C 
ATOM     16  C   UNL     1      32.112 -23.967 -13.120  0.00  0.00    +0.029 C 
ATOM     17  C   UNL     1      30.779 -23.326 -15.485  0.00  0.00    +0.176 C 
ATOM     18  C   UNL     1      30.716 -23.964 -13.158  0.00  0.00    +0.142 C 
ATOM     19  C   UNL     1      30.051 -23.639 -14.337  0.00  0.00    +0.062 C 
ENDBRANCH   2  11
BRANCH   4  20
ATOM     20  C   UNL     1      36.738 -21.206 -17.118  0.00  0.00    +0.019 C 
BRANCH  20  21
ATOM     21  C   UNL     1      36.504 -21.611 -18.573  0.00  0.00    -0.075 C 
BRANCH  21  22
ATOM     22  N   UNL     1      36.355 -20.430 -19.415  0.00  0.00    +0.387 N 
ATOM     23  H   UNL     1      37.153 -20.369 -20.048  0.00  0.00    -0.084 HD
ATOM     24  H   UNL     1      36.312 -19.606 -18.817  0.00  0.00    -0.084 HD
BRANCH  22  25
ATOM     25  C   UNL     1      35.129 -20.501 -20.198  0.00  0.00    -0.054 C 
BRANCH  25  26
ATOM     26  C   UNL     1      35.041 -19.386 -21.206  0.00  0.00    -0.044 C 
ATOM     27  C   UNL     1      34.577 -19.648 -22.496  0.00  0.00    -0.006 C 
ATOM     28  C   UNL     1      35.420 -18.093 -20.849  0.00  0.00    -0.006 C 
ATOM     29  C   UNL     1      34.495 -18.615 -23.429  0.00  0.00    -0.000 C 
ATOM     30  C   UNL     1      35.337 -17.059 -21.784  0.00  0.00    -0.000 C 
ATOM     31  C   UNL     1      34.874 -17.321 -23.073  0.00  0.00    -0.000 C 
ENDBRANCH  25  26
ENDBRANCH  22  25
ENDBRANCH  21  22
ENDBRANCH  20  21
ENDBRANCH   4  20
TORSDOF 6
ENDMDL
MODEL 9
REMARK VINA RESULT:      -9.9      9.391     12.950
REMARK  Name = 25052630
REMARK  6 active torsions:
REMARK  status: ('A' for Active; 'I' for Inactive)
REMARK    1  A    between atoms: N_2  and  C_11
REMARK    2  A    between atoms: C_4  and  C_20
REMARK    3  A    between atoms: C_20  and  C_21
REMARK    4  A    between atoms: C_21  and  N_22
REMARK    5  A    between atoms: N_22  and  C_25
REMARK    6  A    between atoms: C_25  and  C_26
REMARK                            x       y       z     vdW  Elec       q    Type
REMARK                         _______ _______ _______ _____ _____    ______ ____
ROOT
ATOM      1  S   UNL     1      33.752 -13.520 -26.831  0.00  0.00    -0.018 S 
ATOM      2  N   UNL     1      33.654 -13.646 -24.036  0.00  0.00    -0.270 N 
ATOM      3  N   UNL     1      33.690 -11.577 -24.918  0.00  0.00    -0.294 N 
ATOM      4  C   UNL     1      33.621 -12.700 -23.013  0.00  0.00    +0.043 C 
ATOM      5  C   UNL     1      33.699 -12.944 -25.276  0.00  0.00    +0.142 C 
ATOM      6  C   UNL     1      33.643 -11.471 -23.554  0.00  0.00    +0.074 C 
ATOM      7  H   UNL     1      33.715 -10.821 -25.549  0.00  0.00    +0.154 HD
ENDROOT
BRANCH   2  11
ATOM      8  F   UNL     1      34.194 -19.901 -24.783  0.00  0.00    -0.201 F 
ATOM      9  F   UNL     1      36.144 -19.539 -20.491  0.00  0.00    -0.204 F 
ATOM     10  O   UNL     1      33.849 -17.248 -24.932  0.00  0.00    -0.472 OA
ATOM     11  C   UNL     1      33.644 -15.070 -23.821  0.00  0.00    +0.127 C 
ATOM     12  C   UNL     1      34.633 -15.472 -22.730  0.00  0.00    +0.054 C 
ATOM     13  C   UNL     1      33.985 -15.832 -25.097  0.00  0.00    +0.226 C 
ATOM     14  C   UNL     1      34.816 -16.963 -22.707  0.00  0.00    +0.018 C 
ATOM     15  C   UNL     1      34.429 -17.753 -23.798  0.00  0.00    +0.162 C 
ATOM     16  C   UNL     1      35.405 -17.577 -21.593  0.00  0.00    +0.029 C 
ATOM     17  C   UNL     1      34.594 -19.140 -23.756  0.00  0.00    +0.176 C 
ATOM     18  C   UNL     1      35.580 -18.961 -21.560  0.00  0.00    +0.142 C 
ATOM     19  C   UNL     1      35.171 -19.742 -22.639  0.00  0.00    +0.062 C 
ENDBRANCH   2  11
BRANCH   4  20
ATOM     20  C   UNL     1      33.569 -13.066 -21.577  0.00  0.00    +0.019 C 
BRANCH  20  21
ATOM     21  C   UNL     1      32.131 -13.114 -21.061  0.00  0.00    -0.075 C 
BRANCH  21  22
ATOM     22  N   UNL     1      31.851 -11.957 -20.218  0.00  0.00    +0.387 N 
ATOM     23  H   UNL     1      32.726 -11.477 -20.009  0.00  0.00    -0.084 HD
ATOM     24  H   UNL     1      31.408 -12.280 -19.358  0.00  0.00    -0.084 HD
BRANCH  22  25
ATOM     25  C   UNL     1      30.948 -11.033 -20.888  0.00  0.00    -0.054 C 
BRANCH  25  26
ATOM     26  C   UNL     1      31.517  -9.640 -20.953  0.00  0.00    -0.044 C 
ATOM     27  C   UNL     1      32.048  -9.050 -19.805  0.00  0.00    -0.006 C 
ATOM     28  C   UNL     1      31.514  -8.942 -22.159  0.00  0.00    -0.006 C 
ATOM     29  C   UNL     1      32.576  -7.761 -19.865  0.00  0.00    -0.000 C 
ATOM     30  C   UNL     1      32.042  -7.651 -22.219  0.00  0.00    -0.000 C 
ATOM     31  C   UNL     1      32.573  -7.061 -21.071  0.00  0.00    -0.000 C 
ENDBRANCH  25  26
ENDBRANCH  22  25
ENDBRANCH  21  22
ENDBRANCH  20  21
ENDBRANCH   4  20
TORSDOF 6
ENDMDL
