MODEL 1
REMARK VINA RESULT:     -12.6      0.000      0.000
REMARK  Name = 24808489
REMARK  4 active torsions:
REMARK  status: ('A' for Active; 'I' for Inactive)
REMARK    1  A    between atoms: N_1  and  C_10
REMARK    2  A    between atoms: N_1  and  C_21
REMARK    3  A    between atoms: C_18  and  C_24
REMARK    4  A    between atoms: C_24  and  N_25
REMARK                            x       y       z     vdW  Elec       q    Type
REMARK                         _______ _______ _______ _____ _____    ______ ____
ROOT
ATOM      1  N   UNL     1      34.379 -22.662 -18.389  0.00  0.00    -0.311 N 
ATOM      2  H   UNL     1      35.021 -23.405 -18.341  0.00  0.00    +0.152 HD
ENDROOT
BRANCH   1  10
ATOM      3 BR   UNL     1      27.819 -22.827 -16.176  0.00  0.00    -0.049 Br
ATOM      4  O   UNL     1      35.585 -23.379 -16.274  0.00  0.00    -0.270 OA
ATOM      5  O   UNL     1      33.319 -24.348 -12.402  0.00  0.00    -0.270 OA
ATOM      6  N   UNL     1      34.414 -23.854 -14.360  0.00  0.00    -0.248 N 
ATOM      7  C   UNL     1      33.194 -23.177 -16.345  0.00  0.00    +0.068 C 
ATOM      8  C   UNL     1      31.933 -23.308 -15.583  0.00  0.00    +0.010 C 
ATOM      9  C   UNL     1      31.982 -23.708 -14.237  0.00  0.00    +0.054 C 
ATOM     10  C   UNL     1      33.268 -22.802 -17.634  0.00  0.00    +0.066 C 
ATOM     11  C   UNL     1      34.508 -23.469 -15.690  0.00  0.00    +0.253 C 
ATOM     12  C   UNL     1      30.669 -23.049 -16.141  0.00  0.00    +0.007 C 
ATOM     13  C   UNL     1      33.275 -23.999 -13.578  0.00  0.00    +0.252 C 
ATOM     14  C   UNL     1      30.807 -23.844 -13.480  0.00  0.00    +0.005 C 
ATOM     15  C   UNL     1      29.499 -23.185 -15.386  0.00  0.00    +0.035 C 
ATOM     16  C   UNL     1      29.568 -23.582 -14.057  0.00  0.00    +0.007 C 
ATOM     17  H   UNL     1      35.269 -24.052 -13.912  0.00  0.00    +0.158 HD
ENDBRANCH   1  10
BRANCH   1  21
ATOM     18  C   UNL     1      35.463 -19.487 -20.913  0.00  0.00    -0.043 C 
ATOM     19  C   UNL     1      36.449 -20.222 -20.253  0.00  0.00    -0.005 C 
ATOM     20  C   UNL     1      34.118 -19.807 -20.734  0.00  0.00    -0.005 C 
ATOM     21  C   UNL     1      34.743 -21.596 -19.235  0.00  0.00    +0.048 C 
ATOM     22  C   UNL     1      36.088 -21.276 -19.414  0.00  0.00    +0.014 C 
ATOM     23  C   UNL     1      33.757 -20.862 -19.896  0.00  0.00    +0.014 C 
BRANCH  18  24
ATOM     24  C   UNL     1      35.849 -18.359 -21.809  0.00  0.00    -0.050 C 
BRANCH  24  25
ATOM     25  N   UNL     1      34.759 -17.944 -22.680  0.00  0.00    +0.390 N 
ATOM     26  C   UNL     1      34.998 -16.636 -23.288  0.00  0.00    -0.077 C 
ATOM     27  C   UNL     1      34.565 -18.857 -23.805  0.00  0.00    -0.077 C 
ATOM     28  C   UNL     1      33.974 -16.590 -24.413  0.00  0.00    -0.025 C 
ATOM     29  C   UNL     1      33.687 -18.050 -24.750  0.00  0.00    -0.025 C 
ATOM     30  H   UNL     1      33.945 -17.928 -22.065  0.00  0.00    -0.079 HD
ENDBRANCH  24  25
ENDBRANCH  18  24
ENDBRANCH   1  21
TORSDOF 4
ENDMDL
MODEL 2
REMARK VINA RESULT:     -12.1      2.533      3.291
REMARK  Name = 24808489
REMARK  4 active torsions:
REMARK  status: ('A' for Active; 'I' for Inactive)
REMARK    1  A    between atoms: N_1  and  C_10
REMARK    2  A    between atoms: N_1  and  C_21
REMARK    3  A    between atoms: C_18  and  C_24
REMARK    4  A    between atoms: C_24  and  N_25
REMARK                            x       y       z     vdW  Elec       q    Type
REMARK                         _______ _______ _______ _____ _____    ______ ____
ROOT
ATOM      1  N   UNL     1      33.623 -22.688 -18.206  0.00  0.00    -0.311 N 
ATOM      2  H   UNL     1      32.778 -23.110 -18.484  0.00  0.00    +0.152 HD
ENDROOT
BRANCH   1  10
ATOM      3 BR   UNL     1      37.879 -24.946 -13.231  0.00  0.00    -0.049 Br
ATOM      4  O   UNL     1      31.435 -22.602 -16.921  0.00  0.00    -0.270 OA
ATOM      5  O   UNL     1      31.175 -23.795 -12.497  0.00  0.00    -0.270 OA
ATOM      6  N   UNL     1      31.349 -23.207 -14.710  0.00  0.00    -0.248 N 
ATOM      7  C   UNL     1      33.475 -23.312 -15.874  0.00  0.00    +0.068 C 
ATOM      8  C   UNL     1      34.106 -23.791 -14.624  0.00  0.00    +0.010 C 
ATOM      9  C   UNL     1      33.316 -23.954 -13.475  0.00  0.00    +0.054 C 
ATOM     10  C   UNL     1      34.131 -23.121 -17.032  0.00  0.00    +0.066 C 
ATOM     11  C   UNL     1      32.011 -23.003 -15.912  0.00  0.00    +0.253 C 
ATOM     12  C   UNL     1      35.475 -24.097 -14.524  0.00  0.00    +0.007 C 
ATOM     13  C   UNL     1      31.867 -23.652 -13.500  0.00  0.00    +0.252 C 
ATOM     14  C   UNL     1      33.878 -24.405 -12.269  0.00  0.00    +0.005 C 
ATOM     15  C   UNL     1      36.033 -24.547 -13.323  0.00  0.00    +0.035 C 
ATOM     16  C   UNL     1      35.235 -24.701 -12.197  0.00  0.00    +0.007 C 
ATOM     17  H   UNL     1      30.385 -23.008 -14.715  0.00  0.00    +0.158 HD
ENDBRANCH   1  10
BRANCH   1  21
ATOM     18  C   UNL     1      35.156 -19.791 -20.829  0.00  0.00    -0.043 C 
ATOM     19  C   UNL     1      36.026 -20.607 -20.104  0.00  0.00    -0.005 C 
ATOM     20  C   UNL     1      33.777 -19.939 -20.682  0.00  0.00    -0.005 C 
ATOM     21  C   UNL     1      34.137 -21.716 -19.085  0.00  0.00    +0.048 C 
ATOM     22  C   UNL     1      35.516 -21.568 -19.232  0.00  0.00    +0.014 C 
ATOM     23  C   UNL     1      33.267 -20.901 -19.811  0.00  0.00    +0.014 C 
BRANCH  18  24
ATOM     24  C   UNL     1      35.701 -18.763 -21.761  0.00  0.00    -0.050 C 
BRANCH  24  25
ATOM     25  N   UNL     1      34.684 -18.224 -22.650  0.00  0.00    +0.390 N 
ATOM     26  C   UNL     1      35.047 -16.912 -23.185  0.00  0.00    -0.077 C 
ATOM     27  C   UNL     1      34.466 -19.066 -23.826  0.00  0.00    -0.077 C 
ATOM     28  C   UNL     1      34.076 -16.734 -24.343  0.00  0.00    -0.025 C 
ATOM     29  C   UNL     1      33.692 -18.150 -24.762  0.00  0.00    -0.025 C 
ATOM     30  H   UNL     1      33.848 -18.172 -22.066  0.00  0.00    -0.079 HD
ENDBRANCH  24  25
ENDBRANCH  18  24
ENDBRANCH   1  21
TORSDOF 4
ENDMDL
MODEL 3
REMARK VINA RESULT:     -11.3      1.366      1.829
REMARK  Name = 24808489
REMARK  4 active torsions:
REMARK  status: ('A' for Active; 'I' for Inactive)
REMARK    1  A    between atoms: N_1  and  C_10
REMARK    2  A    between atoms: N_1  and  C_21
REMARK    3  A    between atoms: C_18  and  C_24
REMARK    4  A    between atoms: C_24  and  N_25
REMARK                            x       y       z     vdW  Elec       q    Type
REMARK                         _______ _______ _______ _____ _____    ______ ____
ROOT
ATOM      1  N   UNL     1      35.453 -21.944 -18.714  0.00  0.00    -0.311 N 
ATOM      2  H   UNL     1      36.274 -22.474 -18.599  0.00  0.00    +0.152 HD
ENDROOT
BRANCH   1  10
ATOM      3 BR   UNL     1      29.129 -23.169 -16.171  0.00  0.00    -0.049 Br
ATOM      4  O   UNL     1      36.877 -22.629 -16.727  0.00  0.00    -0.270 OA
ATOM      5  O   UNL     1      35.012 -24.165 -12.825  0.00  0.00    -0.270 OA
ATOM      6  N   UNL     1      35.905 -23.391 -14.795  0.00  0.00    -0.248 N 
ATOM      7  C   UNL     1      34.481 -22.757 -16.654  0.00  0.00    +0.068 C 
ATOM      8  C   UNL     1      33.300 -23.113 -15.838  0.00  0.00    +0.010 C 
ATOM      9  C   UNL     1      33.488 -23.593 -14.531  0.00  0.00    +0.054 C 
ATOM     10  C   UNL     1      34.422 -22.288 -17.913  0.00  0.00    +0.066 C 
ATOM     11  C   UNL     1      35.861 -22.908 -16.095  0.00  0.00    +0.253 C 
ATOM     12  C   UNL     1      31.979 -22.995 -16.306  0.00  0.00    +0.007 C 
ATOM     13  C   UNL     1      34.847 -23.746 -13.966  0.00  0.00    +0.252 C 
ATOM     14  C   UNL     1      32.392 -23.943 -13.725  0.00  0.00    +0.005 C 
ATOM     15  C   UNL     1      30.889 -23.343 -15.503  0.00  0.00    +0.035 C 
ATOM     16  C   UNL     1      31.095 -23.816 -14.213  0.00  0.00    +0.007 C 
ATOM     17  H   UNL     1      36.805 -23.499 -14.410  0.00  0.00    +0.158 HD
ENDBRANCH   1  10
BRANCH   1  21
ATOM     18  C   UNL     1      35.633 -18.924 -21.624  0.00  0.00    -0.043 C 
ATOM     19  C   UNL     1      36.778 -19.270 -20.907  0.00  0.00    -0.005 C 
ATOM     20  C   UNL     1      34.428 -19.580 -21.374  0.00  0.00    -0.005 C 
ATOM     21  C   UNL     1      35.513 -20.930 -19.690  0.00  0.00    +0.048 C 
ATOM     22  C   UNL     1      36.718 -20.274 -19.940  0.00  0.00    +0.014 C 
ATOM     23  C   UNL     1      34.368 -20.584 -20.407  0.00  0.00    +0.014 C 
BRANCH  18  24
ATOM     24  C   UNL     1      35.697 -17.851 -22.657  0.00  0.00    -0.050 C 
BRANCH  24  25
ATOM     25  N   UNL     1      34.785 -16.753 -22.375  0.00  0.00    +0.390 N 
ATOM     26  C   UNL     1      34.962 -16.211 -21.028  0.00  0.00    -0.077 C 
ATOM     27  C   UNL     1      34.986 -15.615 -23.272  0.00  0.00    -0.077 C 
ATOM     28  C   UNL     1      34.223 -14.883 -21.094  0.00  0.00    -0.025 C 
ATOM     29  C   UNL     1      34.236 -14.492 -22.569  0.00  0.00    -0.025 C 
ATOM     30  H   UNL     1      33.859 -17.165 -22.494  0.00  0.00    -0.079 HD
ENDBRANCH  24  25
ENDBRANCH  18  24
ENDBRANCH   1  21
TORSDOF 4
ENDMDL
MODEL 4
REMARK VINA RESULT:     -10.8      4.147      9.860
REMARK  Name = 24808489
REMARK  4 active torsions:
REMARK  status: ('A' for Active; 'I' for Inactive)
REMARK    1  A    between atoms: N_1  and  C_10
REMARK    2  A    between atoms: N_1  and  C_21
REMARK    3  A    between atoms: C_18  and  C_24
REMARK    4  A    between atoms: C_24  and  N_25
REMARK                            x       y       z     vdW  Elec       q    Type
REMARK                         _______ _______ _______ _____ _____    ______ ____
ROOT
ATOM      1  N   UNL     1      35.707 -18.600 -21.030  0.00  0.00    -0.311 N 
ATOM      2  H   UNL     1      36.614 -18.691 -21.401  0.00  0.00    +0.152 HD
ENDROOT
BRANCH   1  10
ATOM      3 BR   UNL     1      32.694 -12.423 -20.174  0.00  0.00    -0.049 Br
ATOM      4  O   UNL     1      35.675 -18.769 -23.562  0.00  0.00    -0.270 OA
ATOM      5  O   UNL     1      33.906 -15.448 -26.190  0.00  0.00    -0.270 OA
ATOM      6  N   UNL     1      34.782 -17.086 -24.838  0.00  0.00    -0.248 N 
ATOM      7  C   UNL     1      34.779 -16.855 -22.424  0.00  0.00    +0.068 C 
ATOM      8  C   UNL     1      34.122 -15.539 -22.576  0.00  0.00    +0.010 C 
ATOM      9  C   UNL     1      33.826 -15.064 -23.864  0.00  0.00    +0.054 C 
ATOM     10  C   UNL     1      35.108 -17.409 -21.243  0.00  0.00    +0.066 C 
ATOM     11  C   UNL     1      35.128 -17.671 -23.629  0.00  0.00    +0.253 C 
ATOM     12  C   UNL     1      33.770 -14.725 -21.484  0.00  0.00    +0.007 C 
ATOM     13  C   UNL     1      34.165 -15.862 -25.064  0.00  0.00    +0.252 C 
ATOM     14  C   UNL     1      33.203 -13.819 -24.050  0.00  0.00    +0.005 C 
ATOM     15  C   UNL     1      33.150 -13.486 -21.670  0.00  0.00    +0.035 C 
ATOM     16  C   UNL     1      32.866 -13.034 -22.952  0.00  0.00    +0.007 C 
ATOM     17  H   UNL     1      35.004 -17.608 -25.644  0.00  0.00    +0.158 HD
ENDBRANCH   1  10
BRANCH   1  21
ATOM     18  C   UNL     1      34.227 -21.963 -19.000  0.00  0.00    -0.043 C 
ATOM     19  C   UNL     1      35.596 -21.698 -19.005  0.00  0.00    -0.005 C 
ATOM     20  C   UNL     1      33.349 -21.111 -19.670  0.00  0.00    -0.005 C 
ATOM     21  C   UNL     1      35.210 -19.729 -20.349  0.00  0.00    +0.048 C 
ATOM     22  C   UNL     1      36.088 -20.581 -19.680  0.00  0.00    +0.014 C 
ATOM     23  C   UNL     1      33.841 -19.994 -20.345  0.00  0.00    +0.014 C 
BRANCH  18  24
ATOM     24  C   UNL     1      33.701 -23.158 -18.279  0.00  0.00    -0.050 C 
BRANCH  24  25
ATOM     25  N   UNL     1      33.348 -22.862 -16.898  0.00  0.00    +0.390 N 
ATOM     26  C   UNL     1      31.939 -23.132 -16.613  0.00  0.00    -0.077 C 
ATOM     27  C   UNL     1      34.093 -23.682 -15.943  0.00  0.00    -0.077 C 
ATOM     28  C   UNL     1      31.893 -23.136 -15.092  0.00  0.00    -0.025 C 
ATOM     29  C   UNL     1      33.310 -23.495 -14.652  0.00  0.00    -0.025 C 
ATOM     30  H   UNL     1      33.568 -21.872 -16.794  0.00  0.00    -0.079 HD
ENDBRANCH  24  25
ENDBRANCH  18  24
ENDBRANCH   1  21
TORSDOF 4
ENDMDL
MODEL 5
REMARK VINA RESULT:     -10.7      2.746      3.469
REMARK  Name = 24808489
REMARK  4 active torsions:
REMARK  status: ('A' for Active; 'I' for Inactive)
REMARK    1  A    between atoms: N_1  and  C_10
REMARK    2  A    between atoms: N_1  and  C_21
REMARK    3  A    between atoms: C_18  and  C_24
REMARK    4  A    between atoms: C_24  and  N_25
REMARK                            x       y       z     vdW  Elec       q    Type
REMARK                         _______ _______ _______ _____ _____    ______ ____
ROOT
ATOM      1  N   UNL     1      35.155 -21.947 -19.693  0.00  0.00    -0.311 N 
ATOM      2  H   UNL     1      34.951 -22.675 -20.322  0.00  0.00    +0.152 HD
ENDROOT
BRANCH   1  10
ATOM      3 BR   UNL     1      37.460 -23.584 -13.370  0.00  0.00    -0.049 Br
ATOM      4  O   UNL     1      32.652 -22.177 -19.332  0.00  0.00    -0.270 OA
ATOM      5  O   UNL     1      30.891 -23.404 -15.276  0.00  0.00    -0.270 OA
ATOM      6  N   UNL     1      31.814 -22.792 -17.289  0.00  0.00    -0.248 N 
ATOM      7  C   UNL     1      34.216 -22.591 -17.558  0.00  0.00    +0.068 C 
ATOM      8  C   UNL     1      34.383 -22.976 -16.140  0.00  0.00    +0.010 C 
ATOM      9  C   UNL     1      33.243 -23.253 -15.366  0.00  0.00    +0.054 C 
ATOM     10  C   UNL     1      35.232 -22.305 -18.393  0.00  0.00    +0.066 C 
ATOM     11  C   UNL     1      32.850 -22.494 -18.162  0.00  0.00    +0.253 C 
ATOM     12  C   UNL     1      35.638 -23.084 -15.516  0.00  0.00    +0.007 C 
ATOM     13  C   UNL     1      31.887 -23.162 -15.951  0.00  0.00    +0.252 C 
ATOM     14  C   UNL     1      33.359 -23.622 -14.016  0.00  0.00    +0.005 C 
ATOM     15  C   UNL     1      35.752 -23.452 -14.172  0.00  0.00    +0.035 C 
ATOM     16  C   UNL     1      34.614 -23.721 -13.422  0.00  0.00    +0.007 C 
ATOM     17  H   UNL     1      30.906 -22.733 -17.667  0.00  0.00    +0.158 HD
ENDBRANCH   1  10
BRANCH   1  21
ATOM     18  C   UNL     1      35.671 -18.152 -21.412  0.00  0.00    -0.043 C 
ATOM     19  C   UNL     1      36.731 -18.766 -20.746  0.00  0.00    -0.005 C 
ATOM     20  C   UNL     1      34.439 -18.799 -21.507  0.00  0.00    -0.005 C 
ATOM     21  C   UNL     1      35.327 -20.673 -20.269  0.00  0.00    +0.048 C 
ATOM     22  C   UNL     1      36.559 -20.027 -20.174  0.00  0.00    +0.014 C 
ATOM     23  C   UNL     1      34.266 -20.059 -20.936  0.00  0.00    +0.014 C 
BRANCH  18  24
ATOM     24  C   UNL     1      35.855 -16.804 -22.022  0.00  0.00    -0.050 C 
BRANCH  24  25
ATOM     25  N   UNL     1      34.695 -16.381 -22.794  0.00  0.00    +0.390 N 
ATOM     26  C   UNL     1      34.427 -14.949 -22.659  0.00  0.00    -0.077 C 
ATOM     27  C   UNL     1      34.868 -16.602 -24.229  0.00  0.00    -0.077 C 
ATOM     28  C   UNL     1      33.470 -14.672 -23.809  0.00  0.00    -0.025 C 
ATOM     29  C   UNL     1      33.758 -15.760 -24.839  0.00  0.00    -0.025 C 
ATOM     30  H   UNL     1      33.930 -16.942 -22.417  0.00  0.00    -0.079 HD
ENDBRANCH  24  25
ENDBRANCH  18  24
ENDBRANCH   1  21
TORSDOF 4
ENDMDL
MODEL 6
REMARK VINA RESULT:     -10.2      7.878     11.392
REMARK  Name = 24808489
REMARK  4 active torsions:
REMARK  status: ('A' for Active; 'I' for Inactive)
REMARK    1  A    between atoms: N_1  and  C_10
REMARK    2  A    between atoms: N_1  and  C_21
REMARK    3  A    between atoms: C_18  and  C_24
REMARK    4  A    between atoms: C_24  and  N_25
REMARK                            x       y       z     vdW  Elec       q    Type
REMARK                         _______ _______ _______ _____ _____    ______ ____
ROOT
ATOM      1  N   UNL     1      34.396 -13.126 -24.047  0.00  0.00    -0.311 N 
ATOM      2  H   UNL     1      34.779 -12.864 -24.914  0.00  0.00    +0.152 HD
ENDROOT
BRANCH   1  10
ATOM      3 BR   UNL     1      36.949 -18.740 -20.895  0.00  0.00    -0.049 Br
ATOM      4  O   UNL     1      32.704 -14.212 -25.597  0.00  0.00    -0.270 OA
ATOM      5  O   UNL     1      32.087 -18.758 -25.708  0.00  0.00    -0.270 OA
ATOM      6  N   UNL     1      32.427 -16.488 -25.621  0.00  0.00    -0.248 N 
ATOM      7  C   UNL     1      34.061 -15.521 -24.112  0.00  0.00    +0.068 C 
ATOM      8  C   UNL     1      34.389 -16.882 -23.635  0.00  0.00    +0.010 C 
ATOM      9  C   UNL     1      33.712 -17.984 -24.184  0.00  0.00    +0.054 C 
ATOM     10  C   UNL     1      34.644 -14.396 -23.660  0.00  0.00    +0.066 C 
ATOM     11  C   UNL     1      33.018 -15.318 -25.165  0.00  0.00    +0.253 C 
ATOM     12  C   UNL     1      35.358 -17.137 -22.648  0.00  0.00    +0.007 C 
ATOM     13  C   UNL     1      32.679 -17.797 -25.227  0.00  0.00    +0.252 C 
ATOM     14  C   UNL     1      33.995 -19.292 -23.758  0.00  0.00    +0.005 C 
ATOM     15  C   UNL     1      35.639 -18.440 -22.225  0.00  0.00    +0.035 C 
ATOM     16  C   UNL     1      34.958 -19.516 -22.779  0.00  0.00    +0.007 C 
ATOM     17  H   UNL     1      31.736 -16.376 -26.314  0.00  0.00    +0.158 HD
ENDBRANCH   1  10
BRANCH   1  21
ATOM     18  C   UNL     1      32.211 -10.147 -22.053  0.00  0.00    -0.043 C 
ATOM     19  C   UNL     1      33.095  -9.799 -23.075  0.00  0.00    -0.005 C 
ATOM     20  C   UNL     1      32.053 -11.486 -21.695  0.00  0.00    -0.005 C 
ATOM     21  C   UNL     1      33.663 -12.127 -23.378  0.00  0.00    +0.048 C 
ATOM     22  C   UNL     1      33.821 -10.789 -23.736  0.00  0.00    +0.014 C 
ATOM     23  C   UNL     1      32.779 -12.476 -22.356  0.00  0.00    +0.014 C 
BRANCH  18  24
ATOM     24  C   UNL     1      31.435  -9.089 -21.345  0.00  0.00    -0.050 C 
BRANCH  24  25
ATOM     25  N   UNL     1      31.717  -7.757 -21.859  0.00  0.00    +0.390 N 
ATOM     26  C   UNL     1      30.637  -7.244 -22.702  0.00  0.00    -0.077 C 
ATOM     27  C   UNL     1      31.870  -6.767 -20.793  0.00  0.00    -0.077 C 
ATOM     28  C   UNL     1      30.951  -5.757 -22.792  0.00  0.00    -0.025 C 
ATOM     29  C   UNL     1      31.763  -5.445 -21.539  0.00  0.00    -0.025 C 
ATOM     30  H   UNL     1      32.581  -7.874 -22.389  0.00  0.00    -0.079 HD
ENDBRANCH  24  25
ENDBRANCH  18  24
ENDBRANCH   1  21
TORSDOF 4
ENDMDL
MODEL 7
REMARK VINA RESULT:     -10.0      7.863     12.429
REMARK  Name = 24808489
REMARK  4 active torsions:
REMARK  status: ('A' for Active; 'I' for Inactive)
REMARK    1  A    between atoms: N_1  and  C_10
REMARK    2  A    between atoms: N_1  and  C_21
REMARK    3  A    between atoms: C_18  and  C_24
REMARK    4  A    between atoms: C_24  and  N_25
REMARK                            x       y       z     vdW  Elec       q    Type
REMARK                         _______ _______ _______ _____ _____    ______ ____
ROOT
ATOM      1  N   UNL     1      32.317 -12.840 -22.733  0.00  0.00    -0.311 N 
ATOM      2  H   UNL     1      31.356 -13.043 -22.687  0.00  0.00    +0.152 HD
ENDROOT
BRANCH   1  10
ATOM      3 BR   UNL     1      34.675  -6.614 -24.642  0.00  0.00    -0.049 Br
ATOM      4  O   UNL     1      31.338 -12.272 -20.461  0.00  0.00    -0.270 OA
ATOM      5  O   UNL     1      31.487  -8.015 -18.753  0.00  0.00    -0.270 OA
ATOM      6  N   UNL     1      31.433 -10.132 -19.645  0.00  0.00    -0.248 N 
ATOM      7  C   UNL     1      32.389 -10.599 -21.825  0.00  0.00    +0.068 C 
ATOM      8  C   UNL     1      32.770  -9.174 -21.936  0.00  0.00    +0.010 C 
ATOM      9  C   UNL     1      32.459  -8.297 -20.883  0.00  0.00    +0.054 C 
ATOM     10  C   UNL     1      32.635 -11.527 -22.766  0.00  0.00    +0.066 C 
ATOM     11  C   UNL     1      31.679 -11.101 -20.606  0.00  0.00    +0.253 C 
ATOM     12  C   UNL     1      33.437  -8.643 -23.054  0.00  0.00    +0.007 C 
ATOM     13  C   UNL     1      31.758  -8.781 -19.673  0.00  0.00    +0.252 C 
ATOM     14  C   UNL     1      32.803  -6.937 -20.951  0.00  0.00    +0.005 C 
ATOM     15  C   UNL     1      33.779  -7.288 -23.120  0.00  0.00    +0.035 C 
ATOM     16  C   UNL     1      33.463  -6.436 -22.069  0.00  0.00    +0.007 C 
ATOM     17  H   UNL     1      30.965 -10.442 -18.835  0.00  0.00    +0.158 HD
ENDBRANCH   1  10
BRANCH   1  21
ATOM     18  C   UNL     1      34.874 -16.169 -22.797  0.00  0.00    -0.043 C 
ATOM     19  C   UNL     1      34.639 -15.493 -21.600  0.00  0.00    -0.005 C 
ATOM     20  C   UNL     1      34.260 -15.739 -23.973  0.00  0.00    -0.005 C 
ATOM     21  C   UNL     1      33.176 -13.956 -22.755  0.00  0.00    +0.048 C 
ATOM     22  C   UNL     1      33.790 -14.387 -21.579  0.00  0.00    +0.014 C 
ATOM     23  C   UNL     1      33.411 -14.632 -23.953  0.00  0.00    +0.014 C 
BRANCH  18  24
ATOM     24  C   UNL     1      35.783 -17.351 -22.819  0.00  0.00    -0.050 C 
BRANCH  24  25
ATOM     25  N   UNL     1      35.675 -18.156 -21.612  0.00  0.00    +0.390 N 
ATOM     26  C   UNL     1      34.726 -19.259 -21.759  0.00  0.00    -0.077 C 
ATOM     27  C   UNL     1      36.942 -18.791 -21.250  0.00  0.00    -0.077 C 
ATOM     28  C   UNL     1      35.061 -20.157 -20.577  0.00  0.00    -0.025 C 
ATOM     29  C   UNL     1      36.516 -19.848 -20.241  0.00  0.00    -0.025 C 
ATOM     30  H   UNL     1      35.371 -17.493 -20.899  0.00  0.00    -0.079 HD
ENDBRANCH  24  25
ENDBRANCH  18  24
ENDBRANCH   1  21
TORSDOF 4
ENDMDL
MODEL 8
REMARK VINA RESULT:      -9.8      9.863     14.980
REMARK  Name = 24808489
REMARK  4 active torsions:
REMARK  status: ('A' for Active; 'I' for Inactive)
REMARK    1  A    between atoms: N_1  and  C_10
REMARK    2  A    between atoms: N_1  and  C_21
REMARK    3  A    between atoms: C_18  and  C_24
REMARK    4  A    between atoms: C_24  and  N_25
REMARK                            x       y       z     vdW  Elec       q    Type
REMARK                         _______ _______ _______ _____ _____    ______ ____
ROOT
ATOM      1  N   UNL     1      33.474 -10.050 -22.710  0.00  0.00    -0.311 N 
ATOM      2  H   UNL     1      33.544 -10.076 -21.729  0.00  0.00    +0.152 HD
ENDROOT
BRANCH   1  10
ATOM      3 BR   UNL     1      34.333  -4.507 -26.772  0.00  0.00    -0.049 Br
ATOM      4  O   UNL     1      31.814  -9.122 -21.029  0.00  0.00    -0.270 OA
ATOM      5  O   UNL     1      30.269  -4.808 -21.277  0.00  0.00    -0.270 OA
ATOM      6  N   UNL     1      31.067  -6.960 -21.189  0.00  0.00    -0.248 N 
ATOM      7  C   UNL     1      32.651  -7.779 -22.833  0.00  0.00    +0.068 C 
ATOM      8  C   UNL     1      32.617  -6.454 -23.490  0.00  0.00    +0.010 C 
ATOM      9  C   UNL     1      31.801  -5.443 -22.953  0.00  0.00    +0.054 C 
ATOM     10  C   UNL     1      33.393  -8.817 -23.257  0.00  0.00    +0.066 C 
ATOM     11  C   UNL     1      31.826  -8.041 -21.613  0.00  0.00    +0.253 C 
ATOM     12  C   UNL     1      33.368  -6.145 -24.638  0.00  0.00    +0.007 C 
ATOM     13  C   UNL     1      30.981  -5.690 -21.746  0.00  0.00    +0.252 C 
ATOM     14  C   UNL     1      31.741  -4.172 -23.547  0.00  0.00    +0.005 C 
ATOM     15  C   UNL     1      33.307  -4.879 -25.228  0.00  0.00    +0.035 C 
ATOM     16  C   UNL     1      32.494  -3.894 -24.684  0.00  0.00    +0.007 C 
ATOM     17  H   UNL     1      30.516  -7.114 -20.388  0.00  0.00    +0.158 HD
ENDBRANCH   1  10
BRANCH   1  21
ATOM     18  C   UNL     1      33.470 -13.784 -24.630  0.00  0.00    -0.043 C 
ATOM     19  C   UNL     1      33.857 -12.640 -25.329  0.00  0.00    -0.005 C 
ATOM     20  C   UNL     1      33.084 -13.687 -23.293  0.00  0.00    -0.005 C 
ATOM     21  C   UNL     1      33.472 -11.303 -23.354  0.00  0.00    +0.048 C 
ATOM     22  C   UNL     1      33.858 -11.400 -24.691  0.00  0.00    +0.014 C 
ATOM     23  C   UNL     1      33.085 -12.446 -22.655  0.00  0.00    +0.014 C 
BRANCH  18  24
ATOM     24  C   UNL     1      33.469 -15.109 -25.313  0.00  0.00    -0.050 C 
BRANCH  24  25
ATOM     25  N   UNL     1      33.684 -16.211 -24.386  0.00  0.00    +0.390 N 
ATOM     26  C   UNL     1      33.374 -17.510 -24.982  0.00  0.00    -0.077 C 
ATOM     27  C   UNL     1      35.078 -16.314 -23.956  0.00  0.00    -0.077 C 
ATOM     28  C   UNL     1      34.024 -18.492 -24.018  0.00  0.00    -0.025 C 
ATOM     29  C   UNL     1      35.143 -17.704 -23.342  0.00  0.00    -0.025 C 
ATOM     30  H   UNL     1      33.065 -16.000 -23.604  0.00  0.00    -0.079 HD
ENDBRANCH  24  25
ENDBRANCH  18  24
ENDBRANCH   1  21
TORSDOF 4
ENDMDL
MODEL 9
REMARK VINA RESULT:      -9.7     11.697     16.829
REMARK  Name = 24808489
REMARK  4 active torsions:
REMARK  status: ('A' for Active; 'I' for Inactive)
REMARK    1  A    between atoms: N_1  and  C_10
REMARK    2  A    between atoms: N_1  and  C_21
REMARK    3  A    between atoms: C_18  and  C_24
REMARK    4  A    between atoms: C_24  and  N_25
REMARK                            x       y       z     vdW  Elec       q    Type
REMARK                         _______ _______ _______ _____ _____    ______ ____
ROOT
ATOM      1  N   UNL     1      32.280  -7.603 -21.812  0.00  0.00    -0.311 N 
ATOM      2  H   UNL     1      32.045  -7.217 -20.938  0.00  0.00    +0.152 HD
ENDROOT
BRANCH   1  10
ATOM      3 BR   UNL     1      34.914  -4.418 -27.370  0.00  0.00    -0.049 Br
ATOM      4  O   UNL     1      30.616  -5.851 -21.036  0.00  0.00    -0.270 OA
ATOM      5  O   UNL     1      30.079  -1.869 -23.255  0.00  0.00    -0.270 OA
ATOM      6  N   UNL     1      30.379  -3.874 -22.174  0.00  0.00    -0.248 N 
ATOM      7  C   UNL     1      31.988  -5.503 -22.975  0.00  0.00    +0.068 C 
ATOM      8  C   UNL     1      32.337  -4.579 -24.077  0.00  0.00    +0.010 C 
ATOM      9  C   UNL     1      31.682  -3.339 -24.166  0.00  0.00    +0.054 C 
ATOM     10  C   UNL     1      32.549  -6.711 -22.790  0.00  0.00    +0.066 C 
ATOM     11  C   UNL     1      30.947  -5.123 -21.969  0.00  0.00    +0.253 C 
ATOM     12  C   UNL     1      33.305  -4.878 -25.052  0.00  0.00    +0.007 C 
ATOM     13  C   UNL     1      30.651  -2.952 -23.177  0.00  0.00    +0.252 C 
ATOM     14  C   UNL     1      31.985  -2.435 -25.197  0.00  0.00    +0.005 C 
ATOM     15  C   UNL     1      33.606  -3.976 -26.078  0.00  0.00    +0.035 C 
ATOM     16  C   UNL     1      32.947  -2.756 -26.150  0.00  0.00    +0.007 C 
ATOM     17  H   UNL     1      29.690  -3.606 -21.523  0.00  0.00    +0.158 HD
ENDBRANCH   1  10
BRANCH   1  21
ATOM     18  C   UNL     1      32.315 -11.797 -21.997  0.00  0.00    -0.043 C 
ATOM     19  C   UNL     1      33.034 -11.051 -22.932  0.00  0.00    -0.005 C 
ATOM     20  C   UNL     1      31.585 -11.149 -21.001  0.00  0.00    -0.005 C 
ATOM     21  C   UNL     1      32.291  -9.010 -21.874  0.00  0.00    +0.048 C 
ATOM     22  C   UNL     1      33.021  -9.658 -22.870  0.00  0.00    +0.014 C 
ATOM     23  C   UNL     1      31.573  -9.756 -20.939  0.00  0.00    +0.014 C 
BRANCH  18  24
ATOM     24  C   UNL     1      32.328 -13.287 -22.063  0.00  0.00    -0.050 C 
BRANCH  24  25
ATOM     25  N   UNL     1      33.450 -13.798 -22.836  0.00  0.00    +0.390 N 
ATOM     26  C   UNL     1      34.203 -14.825 -22.116  0.00  0.00    -0.077 C 
ATOM     27  C   UNL     1      33.025 -14.441 -24.079  0.00  0.00    -0.077 C 
ATOM     28  C   UNL     1      35.038 -15.469 -23.213  0.00  0.00    -0.025 C 
ATOM     29  C   UNL     1      34.265 -15.214 -24.503  0.00  0.00    -0.025 C 
ATOM     30  H   UNL     1      34.022 -12.973 -23.017  0.00  0.00    -0.079 HD
ENDBRANCH  24  25
ENDBRANCH  18  24
ENDBRANCH   1  21
TORSDOF 4
ENDMDL
