MODEL 1
REMARK VINA RESULT:     -11.5      0.000      0.000
REMARK  Name = 11998575
REMARK  7 active torsions:
REMARK  status: ('A' for Active; 'I' for Inactive)
REMARK    1  A    between atoms: C_6  and  C_18
REMARK    2  A    between atoms: C_14  and  O_22
REMARK    3  A    between atoms: C_15  and  O_16
REMARK    4  A    between atoms: C_18  and  O_20
REMARK    5  A    between atoms: O_22  and  C_23
REMARK    6  A    between atoms: C_23  and  C_24
REMARK    7  A    between atoms: C_29  and  O_30
REMARK                            x       y       z     vdW  Elec       q    Type
REMARK                         _______ _______ _______ _____ _____    ______ ____
ROOT
ATOM      1  O   UNL     1      37.435 -22.050 -17.228  0.00  0.00    -0.421 OA
ATOM      2  O   UNL     1      38.718 -22.728 -15.469  0.00  0.00    -0.244 OA
ATOM      3  C   UNL     1      35.136 -23.101 -15.959  0.00  0.00    +0.009 A 
ATOM      4  C   UNL     1      35.025 -22.449 -17.270  0.00  0.00    +0.038 A 
ATOM      5  C   UNL     1      36.395 -23.198 -15.341  0.00  0.00    +0.076 A 
ATOM      6  C   UNL     1      35.436 -24.343 -13.432  0.00  0.00    +0.004 C 
ATOM      7  C   UNL     1      36.181 -21.942 -17.867  0.00  0.00    +0.152 A 
ATOM      8  C   UNL     1      36.543 -23.814 -14.087  0.00  0.00    +0.004 C 
ATOM      9  C   UNL     1      34.034 -23.646 -15.271  0.00  0.00    +0.000 C 
ATOM     10  C   UNL     1      33.828 -22.292 -17.987  0.00  0.00    +0.043 C 
ATOM     11  C   UNL     1      34.183 -24.259 -14.023  0.00  0.00    -0.002 C 
ATOM     12  C   UNL     1      37.612 -22.654 -15.990  0.00  0.00    +0.346 A 
ATOM     13  C   UNL     1      36.179 -21.306 -19.112  0.00  0.00    +0.078 C 
ATOM     14  C   UNL     1      34.979 -21.166 -19.797  0.00  0.00    +0.176 C 
ATOM     15  C   UNL     1      33.804 -21.658 -19.236  0.00  0.00    +0.173 C 
ENDROOT
BRANCH  15  16
ATOM     16  O   UNL     1      32.618 -21.529 -19.896  0.00  0.00    -0.468 OA
ATOM     17  C   UNL     1      32.253 -20.217 -20.319  0.00  0.00    +0.253 C 
ENDBRANCH  15  16
BRANCH   6  18
ATOM     18  C   UNL     1      35.594 -24.997 -12.102  0.00  0.00    +0.133 C 
ATOM     19  C   UNL     1      36.613 -24.283 -11.207  0.00  0.00    +0.037 C 
BRANCH  18  20
ATOM     20  O   UNL     1      34.335 -25.032 -11.419  0.00  0.00    -0.380 OA
ATOM     21  H   UNL     1      33.640 -24.698 -12.008  0.00  0.00    +0.211 HD
ENDBRANCH  18  20
ENDBRANCH   6  18
BRANCH  14  22
ATOM     22  O   UNL     1      34.965 -20.550 -21.011  0.00  0.00    -0.467 OA
BRANCH  22  23
ATOM     23  C   UNL     1      35.627 -19.289 -21.107  0.00  0.00    +0.232 C 
BRANCH  23  24
ATOM     24  C   UNL     1      35.127 -18.565 -22.323  0.00  0.00    +0.021 C 
ATOM     25  C   UNL     1      35.363 -17.202 -22.458  0.00  0.00    +0.002 C 
ATOM     26  C   UNL     1      34.428 -19.265 -23.302  0.00  0.00    +0.002 C 
ATOM     27  C   UNL     1      34.898 -16.529 -23.589  0.00  0.00    +0.037 C 
ATOM     28  C   UNL     1      33.963 -18.592 -24.431  0.00  0.00    +0.037 C 
ATOM     29  C   UNL     1      34.198 -17.224 -24.574  0.00  0.00    +0.139 C 
BRANCH  29  30
ATOM     30  O   UNL     1      33.744 -16.568 -25.677  0.00  0.00    -0.471 OA
ATOM     31  C   UNL     1      33.508 -15.167 -25.548  0.00  0.00    +0.252 C 
ENDBRANCH  29  30
ENDBRANCH  23  24
ENDBRANCH  22  23
ENDBRANCH  14  22
TORSDOF 7
ENDMDL
MODEL 2
REMARK VINA RESULT:     -11.5      2.982      9.033
REMARK  Name = 11998575
REMARK  7 active torsions:
REMARK  status: ('A' for Active; 'I' for Inactive)
REMARK    1  A    between atoms: C_6  and  C_18
REMARK    2  A    between atoms: C_14  and  O_22
REMARK    3  A    between atoms: C_15  and  O_16
REMARK    4  A    between atoms: C_18  and  O_20
REMARK    5  A    between atoms: O_22  and  C_23
REMARK    6  A    between atoms: C_23  and  C_24
REMARK    7  A    between atoms: C_29  and  O_30
REMARK                            x       y       z     vdW  Elec       q    Type
REMARK                         _______ _______ _______ _____ _____    ______ ____
ROOT
ATOM      1  O   UNL     1      32.703 -22.168 -18.478  0.00  0.00    -0.421 OA
ATOM      2  O   UNL     1      32.188 -20.985 -20.358  0.00  0.00    -0.244 OA
ATOM      3  C   UNL     1      35.407 -21.374 -18.716  0.00  0.00    +0.009 A 
ATOM      4  C   UNL     1      34.984 -22.240 -17.608  0.00  0.00    +0.038 A 
ATOM      5  C   UNL     1      34.455 -20.943 -19.657  0.00  0.00    +0.076 A 
ATOM      6  C   UNL     1      36.138 -19.702 -20.882  0.00  0.00    +0.004 C 
ATOM      7  C   UNL     1      33.641 -22.612 -17.522  0.00  0.00    +0.152 A 
ATOM      8  C   UNL     1      34.819 -20.114 -20.730  0.00  0.00    +0.004 C 
ATOM      9  C   UNL     1      36.735 -20.940 -18.895  0.00  0.00    +0.000 C 
ATOM     10  C   UNL     1      35.839 -22.734 -16.609  0.00  0.00    +0.043 C 
ATOM     11  C   UNL     1      37.096 -20.115 -19.965  0.00  0.00    -0.002 C 
ATOM     12  C   UNL     1      33.033 -21.349 -19.550  0.00  0.00    +0.346 A 
ATOM     13  C   UNL     1      33.143 -23.433 -16.507  0.00  0.00    +0.078 C 
ATOM     14  C   UNL     1      34.012 -23.908 -15.532  0.00  0.00    +0.176 C 
ATOM     15  C   UNL     1      35.359 -23.560 -15.583  0.00  0.00    +0.173 C 
ENDROOT
BRANCH  15  16
ATOM     16  O   UNL     1      36.225 -24.017 -14.635  0.00  0.00    -0.468 OA
ATOM     17  C   UNL     1      36.516 -23.141 -13.549  0.00  0.00    +0.253 C 
ENDBRANCH  15  16
BRANCH   6  18
ATOM     18  C   UNL     1      36.523 -18.823 -22.022  0.00  0.00    +0.133 C 
ATOM     19  C   UNL     1      35.644 -17.573 -22.130  0.00  0.00    +0.037 C 
BRANCH  18  20
ATOM     20  O   UNL     1      37.888 -18.408 -21.883  0.00  0.00    -0.380 OA
ATOM     21  H   UNL     1      37.940 -17.683 -21.241  0.00  0.00    +0.211 HD
ENDBRANCH  18  20
ENDBRANCH   6  18
BRANCH  14  22
ATOM     22  O   UNL     1      33.538 -24.710 -14.540  0.00  0.00    -0.467 OA
BRANCH  22  23
ATOM     23  C   UNL     1      32.727 -24.094 -13.540  0.00  0.00    +0.232 C 
BRANCH  23  24
ATOM     24  C   UNL     1      31.320 -23.984 -14.051  0.00  0.00    +0.021 C 
ATOM     25  C   UNL     1      30.581 -25.137 -14.285  0.00  0.00    +0.002 C 
ATOM     26  C   UNL     1      30.770 -22.728 -14.287  0.00  0.00    +0.002 C 
ATOM     27  C   UNL     1      29.273 -25.035 -14.761  0.00  0.00    +0.037 C 
ATOM     28  C   UNL     1      29.462 -22.626 -14.762  0.00  0.00    +0.037 C 
ATOM     29  C   UNL     1      28.714 -23.779 -14.999  0.00  0.00    +0.139 C 
BRANCH  29  30
ATOM     30  O   UNL     1      27.438 -23.679 -15.462  0.00  0.00    -0.471 OA
ATOM     31  C   UNL     1      26.918 -22.365 -15.656  0.00  0.00    +0.252 C 
ENDBRANCH  29  30
ENDBRANCH  23  24
ENDBRANCH  22  23
ENDBRANCH  14  22
TORSDOF 7
ENDMDL
MODEL 3
REMARK VINA RESULT:     -10.8      1.533     10.003
REMARK  Name = 11998575
REMARK  7 active torsions:
REMARK  status: ('A' for Active; 'I' for Inactive)
REMARK    1  A    between atoms: C_6  and  C_18
REMARK    2  A    between atoms: C_14  and  O_22
REMARK    3  A    between atoms: C_15  and  O_16
REMARK    4  A    between atoms: C_18  and  O_20
REMARK    5  A    between atoms: O_22  and  C_23
REMARK    6  A    between atoms: C_23  and  C_24
REMARK    7  A    between atoms: C_29  and  O_30
REMARK                            x       y       z     vdW  Elec       q    Type
REMARK                         _______ _______ _______ _____ _____    ______ ____
ROOT
ATOM      1  O   UNL     1      37.250 -19.877 -19.604  0.00  0.00    -0.421 OA
ATOM      2  O   UNL     1      38.182 -18.307 -20.969  0.00  0.00    -0.244 OA
ATOM      3  C   UNL     1      34.893 -19.839 -21.166  0.00  0.00    +0.009 A 
ATOM      4  C   UNL     1      34.992 -20.721 -19.997  0.00  0.00    +0.038 A 
ATOM      5  C   UNL     1      35.979 -19.013 -21.501  0.00  0.00    +0.076 A 
ATOM      6  C   UNL     1      34.783 -18.108 -23.404  0.00  0.00    +0.004 C 
ATOM      7  C   UNL     1      36.171 -20.714 -19.249  0.00  0.00    +0.152 A 
ATOM      8  C   UNL     1      35.925 -18.155 -22.612  0.00  0.00    +0.004 C 
ATOM      9  C   UNL     1      33.750 -19.769 -21.987  0.00  0.00    +0.000 C 
ATOM     10  C   UNL     1      33.977 -21.589 -19.562  0.00  0.00    +0.043 C 
ATOM     11  C   UNL     1      33.696 -18.914 -23.093  0.00  0.00    -0.002 C 
ATOM     12  C   UNL     1      37.224 -19.018 -20.695  0.00  0.00    +0.346 A 
ATOM     13  C   UNL     1      36.360 -21.516 -18.120  0.00  0.00    +0.078 C 
ATOM     14  C   UNL     1      35.338 -22.364 -17.713  0.00  0.00    +0.176 C 
ATOM     15  C   UNL     1      34.147 -22.401 -18.432  0.00  0.00    +0.173 C 
ENDROOT
BRANCH  15  16
ATOM     16  O   UNL     1      33.134 -23.228 -18.046  0.00  0.00    -0.468 OA
ATOM     17  C   UNL     1      32.297 -22.773 -16.985  0.00  0.00    +0.253 C 
ENDBRANCH  15  16
BRANCH   6  18
ATOM     18  C   UNL     1      34.725 -17.196 -24.582  0.00  0.00    +0.133 C 
ATOM     19  C   UNL     1      33.290 -16.880 -25.017  0.00  0.00    +0.037 C 
BRANCH  18  20
ATOM     20  O   UNL     1      35.390 -15.963 -24.281  0.00  0.00    -0.380 OA
ATOM     21  H   UNL     1      35.697 -15.553 -25.105  0.00  0.00    +0.211 HD
ENDBRANCH  18  20
ENDBRANCH   6  18
BRANCH  14  22
ATOM     22  O   UNL     1      35.512 -23.149 -16.614  0.00  0.00    -0.467 OA
BRANCH  22  23
ATOM     23  C   UNL     1      36.706 -22.952 -15.858  0.00  0.00    +0.232 C 
BRANCH  23  24
ATOM     24  C   UNL     1      36.546 -23.600 -14.513  0.00  0.00    +0.021 C 
ATOM     25  C   UNL     1      37.621 -24.266 -13.938  0.00  0.00    +0.002 C 
ATOM     26  C   UNL     1      35.322 -23.529 -13.857  0.00  0.00    +0.002 C 
ATOM     27  C   UNL     1      37.472 -24.868 -12.688  0.00  0.00    +0.037 C 
ATOM     28  C   UNL     1      35.172 -24.131 -12.607  0.00  0.00    +0.037 C 
ATOM     29  C   UNL     1      36.248 -24.800 -12.023  0.00  0.00    +0.139 C 
BRANCH  29  30
ATOM     30  O   UNL     1      36.102 -25.387 -10.804  0.00  0.00    -0.471 OA
ATOM     31  C   UNL     1      35.514 -24.600  -9.770  0.00  0.00    +0.252 C 
ENDBRANCH  29  30
ENDBRANCH  23  24
ENDBRANCH  22  23
ENDBRANCH  14  22
TORSDOF 7
ENDMDL
MODEL 4
REMARK VINA RESULT:     -10.6      2.137      9.433
REMARK  Name = 11998575
REMARK  7 active torsions:
REMARK  status: ('A' for Active; 'I' for Inactive)
REMARK    1  A    between atoms: C_6  and  C_18
REMARK    2  A    between atoms: C_14  and  O_22
REMARK    3  A    between atoms: C_15  and  O_16
REMARK    4  A    between atoms: C_18  and  O_20
REMARK    5  A    between atoms: O_22  and  C_23
REMARK    6  A    between atoms: C_23  and  C_24
REMARK    7  A    between atoms: C_29  and  O_30
REMARK                            x       y       z     vdW  Elec       q    Type
REMARK                         _______ _______ _______ _____ _____    ______ ____
ROOT
ATOM      1  O   UNL     1      36.059 -22.348 -17.596  0.00  0.00    -0.421 OA
ATOM      2  O   UNL     1      37.362 -21.288 -19.138  0.00  0.00    -0.244 OA
ATOM      3  C   UNL     1      33.737 -21.465 -18.948  0.00  0.00    +0.009 A 
ATOM      4  C   UNL     1      33.621 -22.286 -17.736  0.00  0.00    +0.038 A 
ATOM      5  C   UNL     1      35.012 -21.122 -19.430  0.00  0.00    +0.076 A 
ATOM      6  C   UNL     1      34.049 -19.886 -21.278  0.00  0.00    +0.004 C 
ATOM      7  C   UNL     1      34.789 -22.704 -17.095  0.00  0.00    +0.152 A 
ATOM      8  C   UNL     1      35.166 -20.339 -20.586  0.00  0.00    +0.004 C 
ATOM      9  C   UNL     1      32.625 -20.991 -19.670  0.00  0.00    +0.000 C 
ATOM     10  C   UNL     1      32.408 -22.692 -17.158  0.00  0.00    +0.043 C 
ATOM     11  C   UNL     1      32.779 -20.211 -20.821  0.00  0.00    -0.002 C 
ATOM     12  C   UNL     1      36.242 -21.575 -18.735  0.00  0.00    +0.346 A 
ATOM     13  C   UNL     1      34.783 -23.486 -15.936  0.00  0.00    +0.078 C 
ATOM     14  C   UNL     1      33.566 -23.871 -15.387  0.00  0.00    +0.176 C 
ATOM     15  C   UNL     1      32.380 -23.475 -15.997  0.00  0.00    +0.173 C 
ENDROOT
BRANCH  15  16
ATOM     16  O   UNL     1      31.178 -23.845 -15.470  0.00  0.00    -0.468 OA
ATOM     17  C   UNL     1      30.602 -22.975 -14.499  0.00  0.00    +0.253 C 
ENDBRANCH  15  16
BRANCH   6  18
ATOM     18  C   UNL     1      34.213 -19.054 -22.504  0.00  0.00    +0.133 C 
ATOM     19  C   UNL     1      35.064 -17.803 -22.262  0.00  0.00    +0.037 C 
BRANCH  18  20
ATOM     20  O   UNL     1      34.825 -19.827 -23.543  0.00  0.00    -0.380 OA
ATOM     21  H   UNL     1      35.216 -19.231 -24.201  0.00  0.00    +0.211 HD
ENDBRANCH  18  20
ENDBRANCH   6  18
BRANCH  14  22
ATOM     22  O   UNL     1      33.548 -24.632 -14.258  0.00  0.00    -0.467 OA
BRANCH  22  23
ATOM     23  C   UNL     1      34.235 -24.117 -13.118  0.00  0.00    +0.232 C 
BRANCH  23  24
ATOM     24  C   UNL     1      35.629 -24.673 -13.094  0.00  0.00    +0.021 C 
ATOM     25  C   UNL     1      36.639 -23.973 -12.445  0.00  0.00    +0.002 C 
ATOM     26  C   UNL     1      35.898 -25.884 -13.725  0.00  0.00    +0.002 C 
ATOM     27  C   UNL     1      37.935 -24.490 -12.424  0.00  0.00    +0.037 C 
ATOM     28  C   UNL     1      37.193 -26.400 -13.704  0.00  0.00    +0.037 C 
ATOM     29  C   UNL     1      38.211 -25.703 -13.053  0.00  0.00    +0.139 C 
BRANCH  29  30
ATOM     30  O   UNL     1      39.475 -26.207 -13.032  0.00  0.00    -0.471 OA
ATOM     31  C   UNL     1      40.296 -25.952 -14.171  0.00  0.00    +0.252 C 
ENDBRANCH  29  30
ENDBRANCH  23  24
ENDBRANCH  22  23
ENDBRANCH  14  22
TORSDOF 7
ENDMDL
MODEL 5
REMARK VINA RESULT:     -10.6      2.255      9.476
REMARK  Name = 11998575
REMARK  7 active torsions:
REMARK  status: ('A' for Active; 'I' for Inactive)
REMARK    1  A    between atoms: C_6  and  C_18
REMARK    2  A    between atoms: C_14  and  O_22
REMARK    3  A    between atoms: C_15  and  O_16
REMARK    4  A    between atoms: C_18  and  O_20
REMARK    5  A    between atoms: O_22  and  C_23
REMARK    6  A    between atoms: C_23  and  C_24
REMARK    7  A    between atoms: C_29  and  O_30
REMARK                            x       y       z     vdW  Elec       q    Type
REMARK                         _______ _______ _______ _____ _____    ______ ____
ROOT
ATOM      1  O   UNL     1      32.944 -21.401 -19.502  0.00  0.00    -0.421 OA
ATOM      2  O   UNL     1      31.859 -20.334 -21.199  0.00  0.00    -0.244 OA
ATOM      3  C   UNL     1      35.371 -20.174 -20.278  0.00  0.00    +0.009 A 
ATOM      4  C   UNL     1      35.338 -21.090 -19.131  0.00  0.00    +0.038 A 
ATOM      5  C   UNL     1      34.185 -19.913 -20.987  0.00  0.00    +0.076 A 
ATOM      6  C   UNL     1      35.347 -18.421 -22.502  0.00  0.00    +0.004 C 
ATOM      7  C   UNL     1      34.123 -21.678 -18.776  0.00  0.00    +0.152 A 
ATOM      8  C   UNL     1      34.174 -19.043 -22.089  0.00  0.00    +0.004 C 
ATOM      9  C   UNL     1      36.543 -19.529 -20.720  0.00  0.00    +0.000 C 
ATOM     10  C   UNL     1      36.453 -21.429 -18.347  0.00  0.00    +0.043 C 
ATOM     11  C   UNL     1      36.531 -18.663 -21.818  0.00  0.00    -0.002 C 
ATOM     12  C   UNL     1      32.903 -20.547 -20.596  0.00  0.00    +0.346 A 
ATOM     13  C   UNL     1      33.990 -22.562 -17.702  0.00  0.00    +0.078 C 
ATOM     14  C   UNL     1      35.111 -22.880 -16.945  0.00  0.00    +0.176 C 
ATOM     15  C   UNL     1      36.341 -22.314 -17.266  0.00  0.00    +0.173 C 
ENDROOT
BRANCH  15  16
ATOM     16  O   UNL     1      37.450 -22.616 -16.533  0.00  0.00    -0.468 OA
ATOM     17  C   UNL     1      37.713 -21.801 -15.393  0.00  0.00    +0.253 C 
ENDBRANCH  15  16
BRANCH   6  18
ATOM     18  C   UNL     1      35.335 -17.499 -23.673  0.00  0.00    +0.133 C 
ATOM     19  C   UNL     1      34.000 -17.515 -24.426  0.00  0.00    +0.037 C 
BRANCH  18  20
ATOM     20  O   UNL     1      35.598 -16.157 -23.245  0.00  0.00    -0.380 OA
ATOM     21  H   UNL     1      35.457 -16.091 -22.287  0.00  0.00    +0.211 HD
ENDBRANCH  18  20
ENDBRANCH   6  18
BRANCH  14  22
ATOM     22  O   UNL     1      34.993 -23.741 -15.897  0.00  0.00    -0.467 OA
BRANCH  22  23
ATOM     23  C   UNL     1      34.457 -23.217 -14.683  0.00  0.00    +0.232 C 
BRANCH  23  24
ATOM     24  C   UNL     1      33.024 -23.643 -14.557  0.00  0.00    +0.021 C 
ATOM     25  C   UNL     1      32.031 -22.923 -15.211  0.00  0.00    +0.002 C 
ATOM     26  C   UNL     1      32.701 -24.755 -13.785  0.00  0.00    +0.002 C 
ATOM     27  C   UNL     1      30.698 -23.320 -15.093  0.00  0.00    +0.037 C 
ATOM     28  C   UNL     1      31.369 -25.151 -13.667  0.00  0.00    +0.037 C 
ATOM     29  C   UNL     1      30.368 -24.434 -14.321  0.00  0.00    +0.139 C 
BRANCH  29  30
ATOM     30  O   UNL     1      29.068 -24.820 -14.207  0.00  0.00    -0.471 OA
ATOM     31  C   UNL     1      28.211 -24.553 -15.315  0.00  0.00    +0.252 C 
ENDBRANCH  29  30
ENDBRANCH  23  24
ENDBRANCH  22  23
ENDBRANCH  14  22
TORSDOF 7
ENDMDL
MODEL 6
REMARK VINA RESULT:     -10.5      1.761      2.461
REMARK  Name = 11998575
REMARK  7 active torsions:
REMARK  status: ('A' for Active; 'I' for Inactive)
REMARK    1  A    between atoms: C_6  and  C_18
REMARK    2  A    between atoms: C_14  and  O_22
REMARK    3  A    between atoms: C_15  and  O_16
REMARK    4  A    between atoms: C_18  and  O_20
REMARK    5  A    between atoms: O_22  and  C_23
REMARK    6  A    between atoms: C_23  and  C_24
REMARK    7  A    between atoms: C_29  and  O_30
REMARK                            x       y       z     vdW  Elec       q    Type
REMARK                         _______ _______ _______ _____ _____    ______ ____
ROOT
ATOM      1  O   UNL     1      36.159 -22.834 -16.480  0.00  0.00    -0.421 OA
ATOM      2  O   UNL     1      36.185 -23.959 -14.496  0.00  0.00    -0.244 OA
ATOM      3  C   UNL     1      33.336 -22.987 -16.531  0.00  0.00    +0.009 A 
ATOM      4  C   UNL     1      34.062 -22.322 -17.621  0.00  0.00    +0.038 A 
ATOM      5  C   UNL     1      34.057 -23.547 -15.463  0.00  0.00    +0.076 A 
ATOM      6  C   UNL     1      32.014 -24.286 -14.391  0.00  0.00    +0.004 C 
ATOM      7  C   UNL     1      35.456 -22.265 -17.562  0.00  0.00    +0.152 A 
ATOM      8  C   UNL     1      33.401 -24.191 -14.402  0.00  0.00    +0.004 C 
ATOM      9  C   UNL     1      31.932 -23.099 -16.493  0.00  0.00    +0.000 C 
ATOM     10  C   UNL     1      33.456 -21.726 -18.739  0.00  0.00    +0.043 C 
ATOM     11  C   UNL     1      31.279 -23.741 -15.436  0.00  0.00    -0.002 C 
ATOM     12  C   UNL     1      35.538 -23.478 -15.418  0.00  0.00    +0.346 A 
ATOM     13  C   UNL     1      36.235 -21.656 -18.550  0.00  0.00    +0.078 C 
ATOM     14  C   UNL     1      35.607 -21.076 -19.645  0.00  0.00    +0.176 C 
ATOM     15  C   UNL     1      34.219 -21.111 -19.740  0.00  0.00    +0.173 C 
ENDROOT
BRANCH  15  16
ATOM     16  O   UNL     1      33.588 -20.547 -20.809  0.00  0.00    -0.468 OA
ATOM     17  C   UNL     1      32.220 -20.185 -20.634  0.00  0.00    +0.253 C 
ENDBRANCH  15  16
BRANCH   6  18
ATOM     18  C   UNL     1      31.317 -24.972 -13.265  0.00  0.00    +0.133 C 
ATOM     19  C   UNL     1      30.583 -23.995 -12.340  0.00  0.00    +0.037 C 
BRANCH  18  20
ATOM     20  O   UNL     1      30.367 -25.914 -13.777  0.00  0.00    -0.380 OA
ATOM     21  H   UNL     1      29.944 -25.548 -14.569  0.00  0.00    +0.211 HD
ENDBRANCH  18  20
ENDBRANCH   6  18
BRANCH  14  22
ATOM     22  O   UNL     1      36.356 -20.481 -20.613  0.00  0.00    -0.467 OA
BRANCH  22  23
ATOM     23  C   UNL     1      36.415 -19.055 -20.604  0.00  0.00    +0.232 C 
BRANCH  23  24
ATOM     24  C   UNL     1      35.716 -18.529 -21.824  0.00  0.00    +0.021 C 
ATOM     25  C   UNL     1      35.358 -19.403 -22.843  0.00  0.00    +0.002 C 
ATOM     26  C   UNL     1      35.434 -17.170 -21.923  0.00  0.00    +0.002 C 
ATOM     27  C   UNL     1      34.708 -18.913 -23.977  0.00  0.00    +0.037 C 
ATOM     28  C   UNL     1      34.784 -16.681 -23.056  0.00  0.00    +0.037 C 
ATOM     29  C   UNL     1      34.422 -17.552 -24.083  0.00  0.00    +0.139 C 
BRANCH  29  30
ATOM     30  O   UNL     1      33.788 -17.075 -25.188  0.00  0.00    -0.471 OA
ATOM     31  C   UNL     1      33.624 -15.661 -25.284  0.00  0.00    +0.252 C 
ENDBRANCH  29  30
ENDBRANCH  23  24
ENDBRANCH  22  23
ENDBRANCH  14  22
TORSDOF 7
ENDMDL
MODEL 7
REMARK VINA RESULT:     -10.5      7.488     14.712
REMARK  Name = 11998575
REMARK  7 active torsions:
REMARK  status: ('A' for Active; 'I' for Inactive)
REMARK    1  A    between atoms: C_6  and  C_18
REMARK    2  A    between atoms: C_14  and  O_22
REMARK    3  A    between atoms: C_15  and  O_16
REMARK    4  A    between atoms: C_18  and  O_20
REMARK    5  A    between atoms: O_22  and  C_23
REMARK    6  A    between atoms: C_23  and  C_24
REMARK    7  A    between atoms: C_29  and  O_30
REMARK                            x       y       z     vdW  Elec       q    Type
REMARK                         _______ _______ _______ _____ _____    ______ ____
ROOT
ATOM      1  O   UNL     1      34.658  -8.187 -24.040  0.00  0.00    -0.421 OA
ATOM      2  O   UNL     1      35.059  -6.007 -24.575  0.00  0.00    -0.244 OA
ATOM      3  C   UNL     1      32.240  -7.435 -22.781  0.00  0.00    +0.009 A 
ATOM      4  C   UNL     1      32.651  -8.844 -22.813  0.00  0.00    +0.038 A 
ATOM      5  C   UNL     1      33.059  -6.464 -23.381  0.00  0.00    +0.076 A 
ATOM      6  C   UNL     1      31.520  -4.697 -22.764  0.00  0.00    +0.004 C 
ATOM      7  C   UNL     1      33.851  -9.179 -23.444  0.00  0.00    +0.152 A 
ATOM      8  C   UNL     1      32.701  -5.105 -23.373  0.00  0.00    +0.004 C 
ATOM      9  C   UNL     1      31.050  -6.991 -22.172  0.00  0.00    +0.000 C 
ATOM     10  C   UNL     1      31.921  -9.904 -22.250  0.00  0.00    +0.043 C 
ATOM     11  C   UNL     1      30.695  -5.638 -22.164  0.00  0.00    -0.002 C 
ATOM     12  C   UNL     1      34.331  -6.837 -24.046  0.00  0.00    +0.346 A 
ATOM     13  C   UNL     1      34.328 -10.490 -23.525  0.00  0.00    +0.078 C 
ATOM     14  C   UNL     1      33.584 -11.517 -22.958  0.00  0.00    +0.176 C 
ATOM     15  C   UNL     1      32.382 -11.225 -22.321  0.00  0.00    +0.173 C 
ENDROOT
BRANCH  15  16
ATOM     16  O   UNL     1      31.640 -12.221 -21.759  0.00  0.00    -0.468 OA
ATOM     17  C   UNL     1      31.942 -12.570 -20.410  0.00  0.00    +0.253 C 
ENDBRANCH  15  16
BRANCH   6  18
ATOM     18  C   UNL     1      31.141  -3.255 -22.754  0.00  0.00    +0.133 C 
ATOM     19  C   UNL     1      30.745  -2.736 -24.140  0.00  0.00    +0.037 C 
BRANCH  18  20
ATOM     20  O   UNL     1      30.043  -3.042 -21.858  0.00  0.00    -0.380 OA
ATOM     21  H   UNL     1      29.721  -2.133 -21.954  0.00  0.00    +0.211 HD
ENDBRANCH  18  20
ENDBRANCH   6  18
BRANCH  14  22
ATOM     22  O   UNL     1      34.040 -12.798 -23.031  0.00  0.00    -0.467 OA
BRANCH  22  23
ATOM     23  C   UNL     1      33.689 -13.547 -24.194  0.00  0.00    +0.232 C 
BRANCH  23  24
ATOM     24  C   UNL     1      34.013 -14.994 -23.960  0.00  0.00    +0.021 C 
ATOM     25  C   UNL     1      34.687 -15.370 -22.805  0.00  0.00    +0.002 C 
ATOM     26  C   UNL     1      33.638 -15.944 -24.904  0.00  0.00    +0.002 C 
ATOM     27  C   UNL     1      34.990 -16.716 -22.588  0.00  0.00    +0.037 C 
ATOM     28  C   UNL     1      33.940 -17.289 -24.688  0.00  0.00    +0.037 C 
ATOM     29  C   UNL     1      34.616 -17.674 -23.530  0.00  0.00    +0.139 C 
BRANCH  29  30
ATOM     30  O   UNL     1      34.911 -18.986 -23.319  0.00  0.00    -0.471 OA
ATOM     31  C   UNL     1      34.874 -19.451 -21.971  0.00  0.00    +0.252 C 
ENDBRANCH  29  30
ENDBRANCH  23  24
ENDBRANCH  22  23
ENDBRANCH  14  22
TORSDOF 7
ENDMDL
MODEL 8
REMARK VINA RESULT:     -10.2      6.005     12.833
REMARK  Name = 11998575
REMARK  7 active torsions:
REMARK  status: ('A' for Active; 'I' for Inactive)
REMARK    1  A    between atoms: C_6  and  C_18
REMARK    2  A    between atoms: C_14  and  O_22
REMARK    3  A    between atoms: C_15  and  O_16
REMARK    4  A    between atoms: C_18  and  O_20
REMARK    5  A    between atoms: O_22  and  C_23
REMARK    6  A    between atoms: C_23  and  C_24
REMARK    7  A    between atoms: C_29  and  O_30
REMARK                            x       y       z     vdW  Elec       q    Type
REMARK                         _______ _______ _______ _____ _____    ______ ____
ROOT
ATOM      1  O   UNL     1      31.910 -11.827 -20.688  0.00  0.00    -0.421 OA
ATOM      2  O   UNL     1      31.163 -10.312 -19.157  0.00  0.00    -0.244 OA
ATOM      3  C   UNL     1      32.560  -9.720 -22.459  0.00  0.00    +0.009 A 
ATOM      4  C   UNL     1      32.805 -11.115 -22.846  0.00  0.00    +0.038 A 
ATOM      5  C   UNL     1      32.000  -9.442 -21.200  0.00  0.00    +0.076 A 
ATOM      6  C   UNL     1      32.056  -7.058 -21.634  0.00  0.00    +0.004 C 
ATOM      7  C   UNL     1      32.472 -12.130 -21.947  0.00  0.00    +0.152 A 
ATOM      8  C   UNL     1      31.751  -8.121 -20.792  0.00  0.00    +0.004 C 
ATOM      9  C   UNL     1      32.859  -8.623 -23.290  0.00  0.00    +0.000 C 
ATOM     10  C   UNL     1      33.358 -11.519 -24.073  0.00  0.00    +0.043 C 
ATOM     11  C   UNL     1      32.610  -7.308 -22.883  0.00  0.00    -0.002 C 
ATOM     12  C   UNL     1      31.652 -10.532 -20.258  0.00  0.00    +0.346 A 
ATOM     13  C   UNL     1      32.665 -13.486 -22.224  0.00  0.00    +0.078 C 
ATOM     14  C   UNL     1      33.214 -13.855 -23.446  0.00  0.00    +0.176 C 
ATOM     15  C   UNL     1      33.559 -12.874 -24.370  0.00  0.00    +0.173 C 
ENDROOT
BRANCH  15  16
ATOM     16  O   UNL     1      34.098 -13.220 -25.573  0.00  0.00    -0.468 OA
ATOM     17  C   UNL     1      33.279 -13.035 -26.725  0.00  0.00    +0.253 C 
ENDBRANCH  15  16
BRANCH   6  18
ATOM     18  C   UNL     1      31.790  -5.657 -21.201  0.00  0.00    +0.133 C 
ATOM     19  C   UNL     1      30.301  -5.298 -21.239  0.00  0.00    +0.037 C 
BRANCH  18  20
ATOM     20  O   UNL     1      32.272  -5.457 -19.866  0.00  0.00    -0.380 OA
ATOM     21  H   UNL     1      32.316  -4.506 -19.679  0.00  0.00    +0.211 HD
ENDBRANCH  18  20
ENDBRANCH   6  18
BRANCH  14  22
ATOM     22  O   UNL     1      33.405 -15.174 -23.727  0.00  0.00    -0.467 OA
BRANCH  22  23
ATOM     23  C   UNL     1      34.752 -15.645 -23.741  0.00  0.00    +0.232 C 
BRANCH  23  24
ATOM     24  C   UNL     1      34.837 -16.907 -22.932  0.00  0.00    +0.021 C 
ATOM     25  C   UNL     1      34.529 -18.126 -23.523  0.00  0.00    +0.002 C 
ATOM     26  C   UNL     1      35.222 -16.843 -21.596  0.00  0.00    +0.002 C 
ATOM     27  C   UNL     1      34.608 -19.298 -22.771  0.00  0.00    +0.037 C 
ATOM     28  C   UNL     1      35.301 -18.015 -20.844  0.00  0.00    +0.037 C 
ATOM     29  C   UNL     1      34.994 -19.242 -21.431  0.00  0.00    +0.139 C 
BRANCH  29  30
ATOM     30  O   UNL     1      35.071 -20.386 -20.697  0.00  0.00    -0.471 OA
ATOM     31  C   UNL     1      33.904 -20.775 -19.977  0.00  0.00    +0.252 C 
ENDBRANCH  29  30
ENDBRANCH  23  24
ENDBRANCH  22  23
ENDBRANCH  14  22
TORSDOF 7
ENDMDL
MODEL 9
REMARK VINA RESULT:     -10.1      1.885      9.948
REMARK  Name = 11998575
REMARK  7 active torsions:
REMARK  status: ('A' for Active; 'I' for Inactive)
REMARK    1  A    between atoms: C_6  and  C_18
REMARK    2  A    between atoms: C_14  and  O_22
REMARK    3  A    between atoms: C_15  and  O_16
REMARK    4  A    between atoms: C_18  and  O_20
REMARK    5  A    between atoms: O_22  and  C_23
REMARK    6  A    between atoms: C_23  and  C_24
REMARK    7  A    between atoms: C_29  and  O_30
REMARK                            x       y       z     vdW  Elec       q    Type
REMARK                         _______ _______ _______ _____ _____    ______ ____
ROOT
ATOM      1  O   UNL     1      32.604 -21.443 -19.617  0.00  0.00    -0.421 OA
ATOM      2  O   UNL     1      31.670 -20.282 -21.343  0.00  0.00    -0.244 OA
ATOM      3  C   UNL     1      35.121 -20.294 -20.204  0.00  0.00    +0.009 A 
ATOM      4  C   UNL     1      34.981 -21.242 -19.091  0.00  0.00    +0.038 A 
ATOM      5  C   UNL     1      33.993 -19.964 -20.975  0.00  0.00    +0.076 A 
ATOM      6  C   UNL     1      35.305 -18.476 -22.367  0.00  0.00    +0.004 C 
ATOM      7  C   UNL     1      33.723 -21.790 -18.830  0.00  0.00    +0.152 A 
ATOM      8  C   UNL     1      34.085 -19.062 -22.047  0.00  0.00    +0.004 C 
ATOM      9  C   UNL     1      36.343 -19.685 -20.551  0.00  0.00    +0.000 C 
ATOM     10  C   UNL     1      36.030 -21.650 -18.251  0.00  0.00    +0.043 C 
ATOM     11  C   UNL     1      36.433 -18.788 -21.620  0.00  0.00    -0.002 C 
ATOM     12  C   UNL     1      32.665 -20.556 -20.684  0.00  0.00    +0.346 A 
ATOM     13  C   UNL     1      33.489 -22.700 -17.795  0.00  0.00    +0.078 C 
ATOM     14  C   UNL     1      34.547 -23.085 -16.981  0.00  0.00    +0.176 C 
ATOM     15  C   UNL     1      35.816 -22.562 -17.209  0.00  0.00    +0.173 C 
ENDROOT
BRANCH  15  16
ATOM     16  O   UNL     1      36.865 -22.930 -16.419  0.00  0.00    -0.468 OA
ATOM     17  C   UNL     1      37.858 -21.941 -16.161  0.00  0.00    +0.253 C 
ENDBRANCH  15  16
BRANCH   6  18
ATOM     18  C   UNL     1      35.402 -17.520 -23.506  0.00  0.00    +0.133 C 
ATOM     19  C   UNL     1      34.147 -17.516 -24.386  0.00  0.00    +0.037 C 
BRANCH  18  20
ATOM     20  O   UNL     1      35.616 -16.191 -23.015  0.00  0.00    -0.380 OA
ATOM     21  H   UNL     1      34.873 -15.934 -22.446  0.00  0.00    +0.211 HD
ENDBRANCH  18  20
ENDBRANCH   6  18
BRANCH  14  22
ATOM     22  O   UNL     1      34.331 -23.972 -15.971  0.00  0.00    -0.467 OA
BRANCH  22  23
ATOM     23  C   UNL     1      34.619 -23.529 -14.646  0.00  0.00    +0.232 C 
BRANCH  23  24
ATOM     24  C   UNL     1      35.841 -24.245 -14.146  0.00  0.00    +0.021 C 
ATOM     25  C   UNL     1      36.649 -23.642 -13.190  0.00  0.00    +0.002 C 
ATOM     26  C   UNL     1      36.154 -25.504 -14.648  0.00  0.00    +0.002 C 
ATOM     27  C   UNL     1      37.785 -24.307 -12.726  0.00  0.00    +0.037 C 
ATOM     28  C   UNL     1      37.289 -26.169 -14.184  0.00  0.00    +0.037 C 
ATOM     29  C   UNL     1      38.104 -25.570 -13.224  0.00  0.00    +0.139 C 
BRANCH  29  30
ATOM     30  O   UNL     1      39.212 -26.219 -12.771  0.00  0.00    -0.471 OA
ATOM     31  C   UNL     1      40.359 -26.215 -13.619  0.00  0.00    +0.252 C 
ENDBRANCH  29  30
ENDBRANCH  23  24
ENDBRANCH  22  23
ENDBRANCH  14  22
TORSDOF 7
ENDMDL
