MODEL 1
REMARK VINA RESULT:     -12.6      0.000      0.000
REMARK  Name = 11952989
REMARK  5 active torsions:
REMARK  status: ('A' for Active; 'I' for Inactive)
REMARK    1  A    between atoms: C_4  and  C_21
REMARK    2  A    between atoms: C_6  and  C_11
REMARK    3  A    between atoms: C_24  and  C_27
REMARK    4  A    between atoms: C_27  and  C_29
REMARK    5  A    between atoms: C_29  and  O_30
REMARK                            x       y       z     vdW  Elec       q    Type
REMARK                         _______ _______ _______ _____ _____    ______ ____
ROOT
ATOM      1  N   UNL     1      33.612 -14.546 -25.874  0.00  0.00    -0.297 N 
ATOM      2  N   UNL     1      34.584 -16.716 -25.489  0.00  0.00    -0.229 NA
ATOM      3  C   UNL     1      33.799 -15.185 -23.743  0.00  0.00    +0.033 C 
ATOM      4  C   UNL     1      33.210 -13.893 -23.785  0.00  0.00    +0.017 C 
ATOM      5  C   UNL     1      34.037 -15.563 -25.061  0.00  0.00    +0.132 C 
ATOM      6  C   UNL     1      34.735 -17.300 -23.124  0.00  0.00    +0.019 C 
ATOM      7  C   UNL     1      34.164 -16.091 -22.734  0.00  0.00    +0.004 C 
ATOM      8  C   UNL     1      33.108 -13.526 -25.109  0.00  0.00    +0.063 C 
ATOM      9  C   UNL     1      34.916 -17.551 -24.477  0.00  0.00    +0.100 C 
ATOM     10  H   UNL     1      33.660 -14.547 -26.858  0.00  0.00    +0.154 HD
ENDROOT
BRANCH   6  11
ATOM     11  C   UNL     1      35.134 -18.277 -22.134  0.00  0.00    +0.001 C 
ATOM     12  C   UNL     1      34.541 -20.043 -20.569  0.00  0.00    +0.000 C 
ATOM     13  C   UNL     1      34.172 -19.090 -21.532  0.00  0.00    +0.000 C 
ATOM     14  C   UNL     1      35.905 -20.174 -20.212  0.00  0.00    +0.000 C 
ATOM     15  C   UNL     1      36.474 -18.406 -21.783  0.00  0.00    +0.000 C 
ATOM     16  C   UNL     1      36.859 -19.348 -20.829  0.00  0.00    +0.000 C 
ATOM     17  C   UNL     1      33.588 -20.869 -19.952  0.00  0.00    +0.000 C 
ATOM     18  C   UNL     1      36.274 -21.128 -19.249  0.00  0.00    +0.000 C 
ATOM     19  C   UNL     1      33.974 -21.811 -18.997  0.00  0.00    +0.000 C 
ATOM     20  C   UNL     1      35.314 -21.940 -18.646  0.00  0.00    +0.000 C 
ENDBRANCH   6  11
BRANCH   4  21
ATOM     21  C   UNL     1      32.771 -13.044 -22.715  0.00  0.00    +0.001 C 
ATOM     22  C   UNL     1      32.705 -11.663 -22.901  0.00  0.00    -0.000 C 
ATOM     23  C   UNL     1      32.409 -13.599 -21.487  0.00  0.00    -0.000 C 
ATOM     24  C   UNL     1      31.915 -11.394 -20.634  0.00  0.00    -0.011 C 
ATOM     25  C   UNL     1      32.277 -10.839 -21.861  0.00  0.00    -0.004 C 
ATOM     26  C   UNL     1      31.982 -12.775 -20.446  0.00  0.00    -0.004 C 
BRANCH  24  27
ATOM     27  C   UNL     1      31.456 -10.511 -19.522  0.00  0.00    +0.136 C 
BRANCH  27  29
ATOM     28  O   UNL     1      31.440  -8.232 -20.381  0.00  0.00    -0.250 OA
ATOM     29  C   UNL     1      31.936  -9.079 -19.650  0.00  0.00    +0.318 C 
BRANCH  29  30
ATOM     30  O   UNL     1      33.003  -8.829 -18.846  0.00  0.00    -0.480 OA
ATOM     31  H   UNL     1      32.887  -8.774 -17.917  0.00  0.00    +0.295 HD
ENDBRANCH  29  30
ENDBRANCH  27  29
ENDBRANCH  24  27
ENDBRANCH   4  21
TORSDOF 5
ENDMDL
MODEL 2
REMARK VINA RESULT:     -12.5      7.274     10.991
REMARK  Name = 11952989
REMARK  5 active torsions:
REMARK  status: ('A' for Active; 'I' for Inactive)
REMARK    1  A    between atoms: C_4  and  C_21
REMARK    2  A    between atoms: C_6  and  C_11
REMARK    3  A    between atoms: C_24  and  C_27
REMARK    4  A    between atoms: C_27  and  C_29
REMARK    5  A    between atoms: C_29  and  O_30
REMARK                            x       y       z     vdW  Elec       q    Type
REMARK                         _______ _______ _______ _____ _____    ______ ____
ROOT
ATOM      1  N   UNL     1      32.685 -25.256 -13.455  0.00  0.00    -0.297 N 
ATOM      2  N   UNL     1      34.694 -24.624 -14.624  0.00  0.00    -0.229 NA
ATOM      3  C   UNL     1      32.434 -23.838 -15.161  0.00  0.00    +0.033 C 
ATOM      4  C   UNL     1      31.160 -24.099 -14.590  0.00  0.00    +0.017 C 
ATOM      5  C   UNL     1      33.363 -24.574 -14.430  0.00  0.00    +0.132 C 
ATOM      6  C   UNL     1      34.291 -23.073 -16.466  0.00  0.00    +0.019 C 
ATOM      7  C   UNL     1      32.920 -23.056 -16.222  0.00  0.00    +0.004 C 
ATOM      8  C   UNL     1      31.346 -24.975 -13.542  0.00  0.00    +0.063 C 
ATOM      9  C   UNL     1      35.106 -23.853 -15.657  0.00  0.00    +0.100 C 
ATOM     10  H   UNL     1      33.096 -25.856 -12.791  0.00  0.00    +0.154 HD
ENDROOT
BRANCH   6  11
ATOM     11  C   UNL     1      34.855 -22.290 -17.544  0.00  0.00    +0.001 C 
ATOM     12  C   UNL     1      34.549 -20.964 -19.560  0.00  0.00    +0.000 C 
ATOM     13  C   UNL     1      34.018 -21.726 -18.507  0.00  0.00    +0.000 C 
ATOM     14  C   UNL     1      35.950 -20.771 -19.637  0.00  0.00    +0.000 C 
ATOM     15  C   UNL     1      36.232 -22.101 -17.620  0.00  0.00    +0.000 C 
ATOM     16  C   UNL     1      36.777 -21.347 -18.659  0.00  0.00    +0.000 C 
ATOM     17  C   UNL     1      33.722 -20.388 -20.538  0.00  0.00    +0.000 C 
ATOM     18  C   UNL     1      36.480 -20.009 -20.690  0.00  0.00    +0.000 C 
ATOM     19  C   UNL     1      34.268 -19.634 -21.578  0.00  0.00    +0.000 C 
ATOM     20  C   UNL     1      35.644 -19.445 -21.654  0.00  0.00    +0.000 C 
ENDBRANCH   6  11
BRANCH   4  21
ATOM     21  C   UNL     1      29.866 -23.602 -14.957  0.00  0.00    +0.001 C 
ATOM     22  C   UNL     1      29.319 -22.510 -14.281  0.00  0.00    -0.000 C 
ATOM     23  C   UNL     1      29.151 -24.208 -15.991  0.00  0.00    -0.000 C 
ATOM     24  C   UNL     1      27.348 -22.634 -15.673  0.00  0.00    -0.011 C 
ATOM     25  C   UNL     1      28.061 -22.027 -14.639  0.00  0.00    -0.004 C 
ATOM     26  C   UNL     1      27.893 -23.725 -16.349  0.00  0.00    -0.004 C 
BRANCH  24  27
ATOM     27  C   UNL     1      26.003 -22.114 -16.056  0.00  0.00    +0.136 C 
BRANCH  27  29
ATOM     28  O   UNL     1      25.936 -22.082 -18.490  0.00  0.00    -0.250 OA
ATOM     29  C   UNL     1      25.972 -21.473 -17.429  0.00  0.00    +0.318 C 
BRANCH  29  30
ATOM     30  O   UNL     1      25.988 -20.116 -17.355  0.00  0.00    -0.480 OA
ATOM     31  H   UNL     1      25.294 -19.618 -17.742  0.00  0.00    +0.295 HD
ENDBRANCH  29  30
ENDBRANCH  27  29
ENDBRANCH  24  27
ENDBRANCH   4  21
TORSDOF 5
ENDMDL
MODEL 3
REMARK VINA RESULT:     -12.0      7.379     12.271
REMARK  Name = 11952989
REMARK  5 active torsions:
REMARK  status: ('A' for Active; 'I' for Inactive)
REMARK    1  A    between atoms: C_4  and  C_21
REMARK    2  A    between atoms: C_6  and  C_11
REMARK    3  A    between atoms: C_24  and  C_27
REMARK    4  A    between atoms: C_27  and  C_29
REMARK    5  A    between atoms: C_29  and  O_30
REMARK                            x       y       z     vdW  Elec       q    Type
REMARK                         _______ _______ _______ _____ _____    ______ ____
ROOT
ATOM      1  N   UNL     1      31.978 -24.174 -15.107  0.00  0.00    -0.297 N 
ATOM      2  N   UNL     1      31.758 -22.776 -17.056  0.00  0.00    -0.229 NA
ATOM      3  C   UNL     1      33.880 -23.480 -16.048  0.00  0.00    +0.033 C 
ATOM      4  C   UNL     1      34.192 -24.288 -14.922  0.00  0.00    +0.017 C 
ATOM      5  C   UNL     1      32.491 -23.430 -16.136  0.00  0.00    +0.132 C 
ATOM      6  C   UNL     1      33.904 -22.084 -17.993  0.00  0.00    +0.019 C 
ATOM      7  C   UNL     1      34.615 -22.779 -17.018  0.00  0.00    +0.004 C 
ATOM      8  C   UNL     1      33.002 -24.700 -14.363  0.00  0.00    +0.063 C 
ATOM      9  C   UNL     1      32.517 -22.118 -17.964  0.00  0.00    +0.100 C 
ATOM     10  H   UNL     1      31.018 -24.311 -14.929  0.00  0.00    +0.154 HD
ENDROOT
BRANCH   6  11
ATOM     11  C   UNL     1      34.601 -21.341 -19.020  0.00  0.00    +0.001 C 
ATOM     12  C   UNL     1      34.539 -19.972 -21.030  0.00  0.00    +0.000 C 
ATOM     13  C   UNL     1      33.879 -20.697 -20.026  0.00  0.00    +0.000 C 
ATOM     14  C   UNL     1      35.953 -19.897 -21.014  0.00  0.00    +0.000 C 
ATOM     15  C   UNL     1      35.991 -21.268 -19.004  0.00  0.00    +0.000 C 
ATOM     16  C   UNL     1      36.664 -20.551 -19.994  0.00  0.00    +0.000 C 
ATOM     17  C   UNL     1      33.829 -19.318 -22.051  0.00  0.00    +0.000 C 
ATOM     18  C   UNL     1      36.614 -19.172 -22.019  0.00  0.00    +0.000 C 
ATOM     19  C   UNL     1      34.503 -18.602 -23.040  0.00  0.00    +0.000 C 
ATOM     20  C   UNL     1      35.892 -18.529 -23.025  0.00  0.00    +0.000 C 
ENDBRANCH   6  11
BRANCH   4  21
ATOM     21  C   UNL     1      35.467 -24.663 -14.382  0.00  0.00    +0.001 C 
ATOM     22  C   UNL     1      36.030 -25.896 -14.713  0.00  0.00    -0.000 C 
ATOM     23  C   UNL     1      36.146 -23.795 -13.525  0.00  0.00    -0.000 C 
ATOM     24  C   UNL     1      37.947 -25.392 -13.332  0.00  0.00    -0.011 C 
ATOM     25  C   UNL     1      37.269 -26.260 -14.187  0.00  0.00    -0.004 C 
ATOM     26  C   UNL     1      37.385 -24.160 -13.000  0.00  0.00    -0.004 C 
BRANCH  24  27
ATOM     27  C   UNL     1      39.274 -25.782 -12.773  0.00  0.00    +0.136 C 
BRANCH  27  29
ATOM     28  O   UNL     1      40.878 -26.836 -14.272  0.00  0.00    -0.250 OA
ATOM     29  C   UNL     1      40.380 -25.819 -13.809  0.00  0.00    +0.318 C 
BRANCH  29  30
ATOM     30  O   UNL     1      40.768 -24.570 -14.180  0.00  0.00    -0.480 OA
ATOM     31  H   UNL     1      40.853 -24.356 -15.088  0.00  0.00    +0.295 HD
ENDBRANCH  29  30
ENDBRANCH  27  29
ENDBRANCH  24  27
ENDBRANCH   4  21
TORSDOF 5
ENDMDL
MODEL 4
REMARK VINA RESULT:     -11.6      6.841     10.779
REMARK  Name = 11952989
REMARK  5 active torsions:
REMARK  status: ('A' for Active; 'I' for Inactive)
REMARK    1  A    between atoms: C_4  and  C_21
REMARK    2  A    between atoms: C_6  and  C_11
REMARK    3  A    between atoms: C_24  and  C_27
REMARK    4  A    between atoms: C_27  and  C_29
REMARK    5  A    between atoms: C_29  and  O_30
REMARK                            x       y       z     vdW  Elec       q    Type
REMARK                         _______ _______ _______ _____ _____    ______ ____
ROOT
ATOM      1  N   UNL     1      35.947 -24.272 -14.214  0.00  0.00    -0.297 N 
ATOM      2  N   UNL     1      37.356 -23.141 -15.807  0.00  0.00    -0.229 NA
ATOM      3  C   UNL     1      34.904 -23.107 -15.808  0.00  0.00    +0.033 C 
ATOM      4  C   UNL     1      33.930 -23.703 -14.963  0.00  0.00    +0.017 C 
ATOM      5  C   UNL     1      36.151 -23.481 -15.314  0.00  0.00    +0.132 C 
ATOM      6  C   UNL     1      36.102 -21.904 -17.497  0.00  0.00    +0.019 C 
ATOM      7  C   UNL     1      34.880 -22.285 -16.946  0.00  0.00    +0.004 C 
ATOM      8  C   UNL     1      34.602 -24.413 -13.991  0.00  0.00    +0.063 C 
ATOM      9  C   UNL     1      37.274 -22.350 -16.902  0.00  0.00    +0.100 C 
ATOM     10  H   UNL     1      36.658 -24.677 -13.666  0.00  0.00    +0.154 HD
ENDROOT
BRANCH   6  11
ATOM     11  C   UNL     1      36.147 -21.059 -18.670  0.00  0.00    +0.001 C 
ATOM     12  C   UNL     1      35.059 -20.149 -20.647  0.00  0.00    +0.000 C 
ATOM     13  C   UNL     1      35.032 -20.965 -19.504  0.00  0.00    +0.000 C 
ATOM     14  C   UNL     1      36.233 -19.418 -20.948  0.00  0.00    +0.000 C 
ATOM     15  C   UNL     1      37.301 -20.340 -18.966  0.00  0.00    +0.000 C 
ATOM     16  C   UNL     1      37.346 -19.524 -20.097  0.00  0.00    +0.000 C 
ATOM     17  C   UNL     1      33.946 -20.043 -21.498  0.00  0.00    +0.000 C 
ATOM     18  C   UNL     1      36.260 -18.602 -22.091  0.00  0.00    +0.000 C 
ATOM     19  C   UNL     1      33.992 -19.227 -22.629  0.00  0.00    +0.000 C 
ATOM     20  C   UNL     1      35.146 -18.508 -22.926  0.00  0.00    +0.000 C 
ENDBRANCH   6  11
BRANCH   4  21
ATOM     21  C   UNL     1      32.499 -23.642 -15.021  0.00  0.00    +0.001 C 
ATOM     22  C   UNL     1      31.736 -24.073 -13.934  0.00  0.00    -0.000 C 
ATOM     23  C   UNL     1      31.865 -23.151 -16.164  0.00  0.00    -0.000 C 
ATOM     24  C   UNL     1      29.712 -23.523 -15.134  0.00  0.00    -0.011 C 
ATOM     25  C   UNL     1      30.344 -24.014 -13.991  0.00  0.00    -0.004 C 
ATOM     26  C   UNL     1      30.473 -23.092 -16.220  0.00  0.00    -0.004 C 
BRANCH  24  27
ATOM     27  C   UNL     1      28.223 -23.457 -15.192  0.00  0.00    +0.136 C 
BRANCH  27  29
ATOM     28  O   UNL     1      27.457 -21.691 -16.683  0.00  0.00    -0.250 OA
ATOM     29  C   UNL     1      27.694 -22.876 -16.488  0.00  0.00    +0.318 C 
BRANCH  29  30
ATOM     30  O   UNL     1      27.507 -23.834 -17.434  0.00  0.00    -0.480 OA
ATOM     31  H   UNL     1      26.662 -24.226 -17.542  0.00  0.00    +0.295 HD
ENDBRANCH  29  30
ENDBRANCH  27  29
ENDBRANCH  24  27
ENDBRANCH   4  21
TORSDOF 5
ENDMDL
MODEL 5
REMARK VINA RESULT:     -11.3      5.283     10.926
REMARK  Name = 11952989
REMARK  5 active torsions:
REMARK  status: ('A' for Active; 'I' for Inactive)
REMARK    1  A    between atoms: C_4  and  C_21
REMARK    2  A    between atoms: C_6  and  C_11
REMARK    3  A    between atoms: C_24  and  C_27
REMARK    4  A    between atoms: C_27  and  C_29
REMARK    5  A    between atoms: C_29  and  O_30
REMARK                            x       y       z     vdW  Elec       q    Type
REMARK                         _______ _______ _______ _____ _____    ______ ____
ROOT
ATOM      1  N   UNL     1      31.280 -11.225 -19.810  0.00  0.00    -0.297 N 
ATOM      2  N   UNL     1      31.508  -8.886 -20.336  0.00  0.00    -0.229 NA
ATOM      3  C   UNL     1      32.447 -10.732 -21.648  0.00  0.00    +0.033 C 
ATOM      4  C   UNL     1      32.412 -12.144 -21.491  0.00  0.00    +0.017 C 
ATOM      5  C   UNL     1      31.732 -10.190 -20.584  0.00  0.00    +0.132 C 
ATOM      6  C   UNL     1      32.802  -8.475 -22.365  0.00  0.00    +0.019 C 
ATOM      7  C   UNL     1      33.004  -9.837 -22.576  0.00  0.00    +0.004 C 
ATOM      8  C   UNL     1      31.687 -12.417 -20.351  0.00  0.00    +0.063 C 
ATOM      9  C   UNL     1      32.067  -8.070 -21.260  0.00  0.00    +0.100 C 
ATOM     10  H   UNL     1      30.743 -11.129 -18.989  0.00  0.00    +0.154 HD
ENDROOT
BRANCH   6  11
ATOM     11  C   UNL     1      33.351  -7.501 -23.283  0.00  0.00    +0.001 C 
ATOM     12  C   UNL     1      33.086  -5.469 -24.594  0.00  0.00    +0.000 C 
ATOM     13  C   UNL     1      32.570  -6.424 -23.703  0.00  0.00    +0.000 C 
ATOM     14  C   UNL     1      34.413  -5.609 -25.066  0.00  0.00    +0.000 C 
ATOM     15  C   UNL     1      34.655  -7.639 -23.746  0.00  0.00    +0.000 C 
ATOM     16  C   UNL     1      35.185  -6.700 -24.632  0.00  0.00    +0.000 C 
ATOM     17  C   UNL     1      32.314  -4.378 -25.028  0.00  0.00    +0.000 C 
ATOM     18  C   UNL     1      34.929  -4.654 -25.957  0.00  0.00    +0.000 C 
ATOM     19  C   UNL     1      32.845  -3.440 -25.914  0.00  0.00    +0.000 C 
ATOM     20  C   UNL     1      34.149  -3.577 -26.378  0.00  0.00    +0.000 C 
ENDBRANCH   6  11
BRANCH   4  21
ATOM     21  C   UNL     1      32.988 -13.176 -22.302  0.00  0.00    +0.001 C 
ATOM     22  C   UNL     1      33.856 -14.110 -21.733  0.00  0.00    -0.000 C 
ATOM     23  C   UNL     1      32.682 -13.250 -23.662  0.00  0.00    -0.000 C 
ATOM     24  C   UNL     1      34.108 -15.186 -23.882  0.00  0.00    -0.011 C 
ATOM     25  C   UNL     1      34.415 -15.114 -22.523  0.00  0.00    -0.004 C 
ATOM     26  C   UNL     1      33.241 -14.254 -24.451  0.00  0.00    -0.004 C 
BRANCH  24  27
ATOM     27  C   UNL     1      34.705 -16.262 -24.725  0.00  0.00    +0.136 C 
BRANCH  27  29
ATOM     28  O   UNL     1      34.428 -18.536 -23.897  0.00  0.00    -0.250 OA
ATOM     29  C   UNL     1      34.015 -17.603 -24.573  0.00  0.00    +0.318 C 
BRANCH  29  30
ATOM     30  O   UNL     1      32.858 -17.660 -25.284  0.00  0.00    -0.480 OA
ATOM     31  H   UNL     1      32.775 -18.265 -25.996  0.00  0.00    +0.295 HD
ENDBRANCH  29  30
ENDBRANCH  27  29
ENDBRANCH  24  27
ENDBRANCH   4  21
TORSDOF 5
ENDMDL
MODEL 6
REMARK VINA RESULT:     -10.8      6.647     10.486
REMARK  Name = 11952989
REMARK  5 active torsions:
REMARK  status: ('A' for Active; 'I' for Inactive)
REMARK    1  A    between atoms: C_4  and  C_21
REMARK    2  A    between atoms: C_6  and  C_11
REMARK    3  A    between atoms: C_24  and  C_27
REMARK    4  A    between atoms: C_27  and  C_29
REMARK    5  A    between atoms: C_29  and  O_30
REMARK                            x       y       z     vdW  Elec       q    Type
REMARK                         _______ _______ _______ _____ _____    ______ ____
ROOT
ATOM      1  N   UNL     1      30.819 -23.119 -16.112  0.00  0.00    -0.297 N 
ATOM      2  N   UNL     1      31.955 -24.303 -14.349  0.00  0.00    -0.229 NA
ATOM      3  C   UNL     1      33.048 -23.164 -16.225  0.00  0.00    +0.033 C 
ATOM      4  C   UNL     1      32.547 -22.430 -17.333  0.00  0.00    +0.017 C 
ATOM      5  C   UNL     1      31.946 -23.579 -15.483  0.00  0.00    +0.132 C 
ATOM      6  C   UNL     1      34.385 -24.282 -14.582  0.00  0.00    +0.019 C 
ATOM      7  C   UNL     1      34.319 -23.531 -15.754  0.00  0.00    +0.004 C 
ATOM      8  C   UNL     1      31.172 -22.419 -17.237  0.00  0.00    +0.063 C 
ATOM      9  C   UNL     1      33.204 -24.628 -13.941  0.00  0.00    +0.100 C 
ATOM     10  H   UNL     1      29.895 -23.267 -15.803  0.00  0.00    +0.154 HD
ENDROOT
BRANCH   6  11
ATOM     11  C   UNL     1      35.663 -24.693 -14.044  0.00  0.00    +0.001 C 
ATOM     12  C   UNL     1      38.047 -25.071 -14.349  0.00  0.00    +0.000 C 
ATOM     13  C   UNL     1      36.799 -24.675 -14.855  0.00  0.00    +0.000 C 
ATOM     14  C   UNL     1      38.146 -25.491 -13.000  0.00  0.00    +0.000 C 
ATOM     15  C   UNL     1      35.760 -25.107 -12.719  0.00  0.00    +0.000 C 
ATOM     16  C   UNL     1      36.992 -25.503 -12.199  0.00  0.00    +0.000 C 
ATOM     17  C   UNL     1      39.201 -25.059 -15.150  0.00  0.00    +0.000 C 
ATOM     18  C   UNL     1      39.394 -25.887 -12.494  0.00  0.00    +0.000 C 
ATOM     19  C   UNL     1      40.433 -25.456 -14.629  0.00  0.00    +0.000 C 
ATOM     20  C   UNL     1      40.530 -25.870 -13.304  0.00  0.00    +0.000 C 
ENDBRANCH   6  11
BRANCH   4  21
ATOM     21  C   UNL     1      33.249 -21.785 -18.404  0.00  0.00    +0.001 C 
ATOM     22  C   UNL     1      32.552 -20.996 -19.321  0.00  0.00    -0.000 C 
ATOM     23  C   UNL     1      34.629 -21.943 -18.532  0.00  0.00    -0.000 C 
ATOM     24  C   UNL     1      34.614 -20.527 -20.488  0.00  0.00    -0.011 C 
ATOM     25  C   UNL     1      33.234 -20.368 -20.362  0.00  0.00    -0.004 C 
ATOM     26  C   UNL     1      35.312 -21.315 -19.573  0.00  0.00    -0.004 C 
BRANCH  24  27
ATOM     27  C   UNL     1      35.344 -19.853 -21.601  0.00  0.00    +0.136 C 
BRANCH  27  29
ATOM     28  O   UNL     1      37.491 -18.769 -21.224  0.00  0.00    -0.250 OA
ATOM     29  C   UNL     1      36.271 -18.749 -21.134  0.00  0.00    +0.318 C 
BRANCH  29  30
ATOM     30  O   UNL     1      35.586 -17.707 -20.593  0.00  0.00    -0.480 OA
ATOM     31  H   UNL     1      35.858 -16.827 -20.767  0.00  0.00    +0.295 HD
ENDBRANCH  29  30
ENDBRANCH  27  29
ENDBRANCH  24  27
ENDBRANCH   4  21
TORSDOF 5
ENDMDL
MODEL 7
REMARK VINA RESULT:     -10.8      5.001      7.695
REMARK  Name = 11952989
REMARK  5 active torsions:
REMARK  status: ('A' for Active; 'I' for Inactive)
REMARK    1  A    between atoms: C_4  and  C_21
REMARK    2  A    between atoms: C_6  and  C_11
REMARK    3  A    between atoms: C_24  and  C_27
REMARK    4  A    between atoms: C_27  and  C_29
REMARK    5  A    between atoms: C_29  and  O_30
REMARK                            x       y       z     vdW  Elec       q    Type
REMARK                         _______ _______ _______ _____ _____    ______ ____
ROOT
ATOM      1  N   UNL     1      31.580  -7.678 -20.546  0.00  0.00    -0.297 N 
ATOM      2  N   UNL     1      31.561 -10.085 -20.459  0.00  0.00    -0.229 NA
ATOM      3  C   UNL     1      32.609  -8.738 -22.219  0.00  0.00    +0.033 C 
ATOM      4  C   UNL     1      32.717  -7.337 -22.428  0.00  0.00    +0.017 C 
ATOM      5  C   UNL     1      31.896  -8.917 -21.038  0.00  0.00    +0.132 C 
ATOM      6  C   UNL     1      32.716 -11.127 -22.341  0.00  0.00    +0.019 C 
ATOM      7  C   UNL     1      33.037  -9.892 -22.897  0.00  0.00    +0.004 C 
ATOM      8  C   UNL     1      32.074  -6.711 -21.382  0.00  0.00    +0.063 C 
ATOM      9  C   UNL     1      31.997 -11.162 -21.154  0.00  0.00    +0.100 C 
ATOM     10  H   UNL     1      31.075  -7.508 -19.717  0.00  0.00    +0.154 HD
ENDROOT
BRANCH   6  11
ATOM     11  C   UNL     1      33.126 -12.354 -22.989  0.00  0.00    +0.001 C 
ATOM     12  C   UNL     1      34.072 -14.591 -22.847  0.00  0.00    +0.000 C 
ATOM     13  C   UNL     1      33.669 -13.394 -22.234  0.00  0.00    +0.000 C 
ATOM     14  C   UNL     1      33.923 -14.735 -24.248  0.00  0.00    +0.000 C 
ATOM     15  C   UNL     1      32.980 -12.495 -24.366  0.00  0.00    +0.000 C 
ATOM     16  C   UNL     1      33.375 -13.677 -24.993  0.00  0.00    +0.000 C 
ATOM     17  C   UNL     1      34.621 -15.648 -22.102  0.00  0.00    +0.000 C 
ATOM     18  C   UNL     1      34.327 -15.932 -24.861  0.00  0.00    +0.000 C 
ATOM     19  C   UNL     1      35.016 -16.830 -22.730  0.00  0.00    +0.000 C 
ATOM     20  C   UNL     1      34.870 -16.972 -24.106  0.00  0.00    +0.000 C 
ENDBRANCH   6  11
BRANCH   4  21
ATOM     21  C   UNL     1      33.350  -6.609 -23.489  0.00  0.00    +0.001 C 
ATOM     22  C   UNL     1      34.731  -6.694 -23.668  0.00  0.00    -0.000 C 
ATOM     23  C   UNL     1      32.585  -5.815 -24.345  0.00  0.00    -0.000 C 
ATOM     24  C   UNL     1      34.580  -5.193 -25.555  0.00  0.00    -0.011 C 
ATOM     25  C   UNL     1      35.346  -5.986 -24.700  0.00  0.00    -0.004 C 
ATOM     26  C   UNL     1      33.200  -5.107 -25.377  0.00  0.00    -0.004 C 
BRANCH  24  27
ATOM     27  C   UNL     1      35.239  -4.438 -26.661  0.00  0.00    +0.136 C 
BRANCH  27  29
ATOM     28  O   UNL     1      34.436  -2.148 -26.463  0.00  0.00    -0.250 OA
ATOM     29  C   UNL     1      34.475  -3.200 -27.086  0.00  0.00    +0.318 C 
BRANCH  29  30
ATOM     30  O   UNL     1      33.821  -3.387 -28.263  0.00  0.00    -0.480 OA
ATOM     31  H   UNL     1      32.964  -3.768 -28.268  0.00  0.00    +0.295 HD
ENDBRANCH  29  30
ENDBRANCH  27  29
ENDBRANCH  24  27
ENDBRANCH   4  21
TORSDOF 5
ENDMDL
MODEL 8
REMARK VINA RESULT:     -10.7      5.739     11.494
REMARK  Name = 11952989
REMARK  5 active torsions:
REMARK  status: ('A' for Active; 'I' for Inactive)
REMARK    1  A    between atoms: C_4  and  C_21
REMARK    2  A    between atoms: C_6  and  C_11
REMARK    3  A    between atoms: C_24  and  C_27
REMARK    4  A    between atoms: C_27  and  C_29
REMARK    5  A    between atoms: C_29  and  O_30
REMARK                            x       y       z     vdW  Elec       q    Type
REMARK                         _______ _______ _______ _____ _____    ______ ____
ROOT
ATOM      1  N   UNL     1      31.547  -9.405 -19.643  0.00  0.00    -0.297 N 
ATOM      2  N   UNL     1      31.721  -7.101 -20.322  0.00  0.00    -0.229 NA
ATOM      3  C   UNL     1      32.342  -9.035 -21.696  0.00  0.00    +0.033 C 
ATOM      4  C   UNL     1      32.306 -10.436 -21.463  0.00  0.00    +0.017 C 
ATOM      5  C   UNL     1      31.862  -8.421 -20.542  0.00  0.00    +0.132 C 
ATOM      6  C   UNL     1      32.602  -6.826 -22.582  0.00  0.00    +0.019 C 
ATOM      7  C   UNL     1      32.727  -8.201 -22.759  0.00  0.00    +0.004 C 
ATOM      8  C   UNL     1      31.812 -10.633 -20.191  0.00  0.00    +0.063 C 
ATOM      9  C   UNL     1      32.106  -6.346 -21.378  0.00  0.00    +0.100 C 
ATOM     10  H   UNL     1      31.184  -9.254 -18.739  0.00  0.00    +0.154 HD
ENDROOT
BRANCH   6  11
ATOM     11  C   UNL     1      32.981  -5.912 -23.638  0.00  0.00    +0.001 C 
ATOM     12  C   UNL     1      34.581  -5.204 -25.329  0.00  0.00    +0.000 C 
ATOM     13  C   UNL     1      34.197  -6.081 -24.302  0.00  0.00    +0.000 C 
ATOM     14  C   UNL     1      33.720  -4.139 -25.687  0.00  0.00    +0.000 C 
ATOM     15  C   UNL     1      32.134  -4.866 -23.991  0.00  0.00    +0.000 C 
ATOM     16  C   UNL     1      32.500  -3.984 -25.009  0.00  0.00    +0.000 C 
ATOM     17  C   UNL     1      35.801  -5.359 -26.007  0.00  0.00    +0.000 C 
ATOM     18  C   UNL     1      34.104  -3.262 -26.714  0.00  0.00    +0.000 C 
ATOM     19  C   UNL     1      36.166  -4.476 -27.025  0.00  0.00    +0.000 C 
ATOM     20  C   UNL     1      35.319  -3.430 -27.378  0.00  0.00    +0.000 C 
ENDBRANCH   6  11
BRANCH   4  21
ATOM     21  C   UNL     1      32.688 -11.522 -22.317  0.00  0.00    +0.001 C 
ATOM     22  C   UNL     1      33.420 -11.273 -23.480  0.00  0.00    -0.000 C 
ATOM     23  C   UNL     1      32.330 -12.830 -21.988  0.00  0.00    -0.000 C 
ATOM     24  C   UNL     1      33.433 -13.637 -23.979  0.00  0.00    -0.011 C 
ATOM     25  C   UNL     1      33.792 -12.330 -24.310  0.00  0.00    -0.004 C 
ATOM     26  C   UNL     1      32.702 -13.887 -22.818  0.00  0.00    -0.004 C 
BRANCH  24  27
ATOM     27  C   UNL     1      33.834 -14.767 -24.867  0.00  0.00    +0.136 C 
BRANCH  27  29
ATOM     28  O   UNL     1      33.955 -17.060 -24.056  0.00  0.00    -0.250 OA
ATOM     29  C   UNL     1      34.439 -15.938 -24.119  0.00  0.00    +0.318 C 
BRANCH  29  30
ATOM     30  O   UNL     1      35.607 -15.601 -23.511  0.00  0.00    -0.480 OA
ATOM     31  H   UNL     1      35.978 -16.168 -22.862  0.00  0.00    +0.295 HD
ENDBRANCH  29  30
ENDBRANCH  27  29
ENDBRANCH  24  27
ENDBRANCH   4  21
TORSDOF 5
ENDMDL
MODEL 9
REMARK VINA RESULT:     -10.4      3.601      8.723
REMARK  Name = 11952989
REMARK  5 active torsions:
REMARK  status: ('A' for Active; 'I' for Inactive)
REMARK    1  A    between atoms: C_4  and  C_21
REMARK    2  A    between atoms: C_6  and  C_11
REMARK    3  A    between atoms: C_24  and  C_27
REMARK    4  A    between atoms: C_27  and  C_29
REMARK    5  A    between atoms: C_29  and  O_30
REMARK                            x       y       z     vdW  Elec       q    Type
REMARK                         _______ _______ _______ _____ _____    ______ ____
ROOT
ATOM      1  N   UNL     1      34.177 -16.106 -25.938  0.00  0.00    -0.297 N 
ATOM      2  N   UNL     1      33.307 -13.906 -25.487  0.00  0.00    -0.229 NA
ATOM      3  C   UNL     1      33.901 -15.572 -23.788  0.00  0.00    +0.033 C 
ATOM      4  C   UNL     1      34.417 -16.892 -23.870  0.00  0.00    +0.017 C 
ATOM      5  C   UNL     1      33.763 -15.110 -25.094  0.00  0.00    +0.132 C 
ATOM      6  C   UNL     1      33.051 -13.440 -23.104  0.00  0.00    +0.019 C 
ATOM      7  C   UNL     1      33.530 -14.700 -22.752  0.00  0.00    +0.004 C 
ATOM      8  C   UNL     1      34.577 -17.194 -25.206  0.00  0.00    +0.063 C 
ATOM      9  C   UNL     1      32.965 -13.108 -24.449  0.00  0.00    +0.100 C 
ATOM     10  H   UNL     1      34.186 -16.050 -26.922  0.00  0.00    +0.154 HD
ENDROOT
BRANCH   6  11
ATOM     11  C   UNL     1      32.651 -12.495 -22.084  0.00  0.00    +0.001 C 
ATOM     12  C   UNL     1      32.304 -10.194 -21.373  0.00  0.00    +0.000 C 
ATOM     13  C   UNL     1      32.688 -11.126 -22.351  0.00  0.00    +0.000 C 
ATOM     14  C   UNL     1      31.876 -10.659 -20.105  0.00  0.00    +0.000 C 
ATOM     15  C   UNL     1      32.232 -12.951 -20.838  0.00  0.00    +0.000 C 
ATOM     16  C   UNL     1      31.846 -12.041 -19.855  0.00  0.00    +0.000 C 
ATOM     17  C   UNL     1      32.334  -8.813 -21.624  0.00  0.00    +0.000 C 
ATOM     18  C   UNL     1      31.492  -9.727 -19.127  0.00  0.00    +0.000 C 
ATOM     19  C   UNL     1      31.949  -7.903 -20.639  0.00  0.00    +0.000 C 
ATOM     20  C   UNL     1      31.529  -8.358 -19.393  0.00  0.00    +0.000 C 
ENDBRANCH   6  11
BRANCH   4  21
ATOM     21  C   UNL     1      34.744 -17.821 -22.828  0.00  0.00    +0.001 C 
ATOM     22  C   UNL     1      34.211 -19.111 -22.848  0.00  0.00    -0.000 C 
ATOM     23  C   UNL     1      35.596 -17.437 -21.792  0.00  0.00    -0.000 C 
ATOM     24  C   UNL     1      35.382 -19.629 -20.799  0.00  0.00    -0.011 C 
ATOM     25  C   UNL     1      34.530 -20.013 -21.834  0.00  0.00    -0.004 C 
ATOM     26  C   UNL     1      35.915 -18.340 -20.778  0.00  0.00    -0.004 C 
BRANCH  24  27
ATOM     27  C   UNL     1      35.724 -20.596 -19.716  0.00  0.00    +0.136 C 
BRANCH  27  29
ATOM     28  O   UNL     1      33.431 -21.140 -19.102  0.00  0.00    -0.250 OA
ATOM     29  C   UNL     1      34.575 -21.508 -19.335  0.00  0.00    +0.318 C 
BRANCH  29  30
ATOM     30  O   UNL     1      34.958 -22.811 -19.280  0.00  0.00    -0.480 OA
ATOM     31  H   UNL     1      34.383 -23.482 -19.590  0.00  0.00    +0.295 HD
ENDBRANCH  29  30
ENDBRANCH  27  29
ENDBRANCH  24  27
ENDBRANCH   4  21
TORSDOF 5
ENDMDL
