MODEL 1
REMARK VINA RESULT:     -11.8      0.000      0.000
REMARK  Name = 154000
REMARK  7 active torsions:
REMARK  status: ('A' for Active; 'I' for Inactive)
REMARK    1  A    between atoms: O_1  and  C_5
REMARK    2  A    between atoms: O_1  and  C_17
REMARK    3  A    between atoms: C_2  and  C_8
REMARK    4  A    between atoms: C_8  and  C_13
REMARK    5  A    between atoms: C_17  and  C_18
REMARK    6  A    between atoms: C_18  and  C_21
REMARK    7  A    between atoms: C_23  and  C_25
REMARK                            x       y       z     vdW  Elec       q    Type
REMARK                         _______ _______ _______ _____ _____    ______ ____
ROOT
ATOM      1  O   UNL     1      33.998 -14.882 -21.884  0.00  0.00    -0.475 OA
ENDROOT
BRANCH   1   5
ATOM      2  C   UNL     1      31.933 -11.312 -21.602  0.00  0.00    -0.021 C 
ATOM      3  C   UNL     1      31.764 -12.276 -20.619  0.00  0.00    -0.001 C 
ATOM      4  C   UNL     1      32.781 -11.525 -22.678  0.00  0.00    -0.001 C 
ATOM      5  C   UNL     1      33.317 -13.707 -21.791  0.00  0.00    +0.139 C 
ATOM      6  C   UNL     1      32.461 -13.480 -20.713  0.00  0.00    +0.037 C 
ATOM      7  C   UNL     1      33.478 -12.730 -22.773  0.00  0.00    +0.037 C 
BRANCH   2   8
ATOM      8  C   UNL     1      31.179 -10.010 -21.500  0.00  0.00    +0.047 C 
BRANCH   8  13
ATOM      9  O   UNL     1      31.452  -6.581 -21.590  0.00  0.00    -0.346 OA
ATOM     10  O   UNL     1      32.533  -8.772 -19.093  0.00  0.00    -0.272 OA
ATOM     11  O   UNL     1      31.349  -7.771 -23.552  0.00  0.00    -0.247 OA
ATOM     12  N   UNL     1      31.806  -6.891 -20.260  0.00  0.00    -0.144 N 
ATOM     13  C   UNL     1      32.111  -8.814 -21.483  0.00  0.00    +0.184 C 
ATOM     14  C   UNL     1      32.190  -8.202 -20.117  0.00  0.00    +0.264 C 
ATOM     15  C   UNL     1      31.596  -7.702 -22.359  0.00  0.00    +0.348 C 
ATOM     16  H   UNL     1      31.780  -6.242 -19.520  0.00  0.00    +0.196 HD
ENDBRANCH   8  13
ENDBRANCH   2   8
ENDBRANCH   1   5
BRANCH   1  17
ATOM     17  C   UNL     1      34.413 -15.290 -23.188  0.00  0.00    +0.213 C 
BRANCH  17  18
ATOM     18  C   UNL     1      35.513 -16.341 -23.073  0.00  0.00    +0.105 C 
BRANCH  18  21
ATOM     19  O   UNL     1      34.013 -19.631 -22.573  0.00  0.00    -0.449 OA
ATOM     20  N   UNL     1      35.278 -18.158 -21.412  0.00  0.00    -0.373 NA
ATOM     21  C   UNL     1      34.994 -17.685 -22.650  0.00  0.00    +0.134 C 
ATOM     22  C   UNL     1      34.237 -18.547 -23.367  0.00  0.00    +0.216 C 
ATOM     23  C   UNL     1      34.667 -19.322 -21.420  0.00  0.00    +0.277 C 
ATOM     24  C   UNL     1      33.648 -18.570 -24.711  0.00  0.00    +0.055 C 
BRANCH  23  25
ATOM     25  C   UNL     1      34.592 -20.318 -20.387  0.00  0.00    +0.066 C 
ATOM     26  C   UNL     1      33.348 -20.760 -19.925  0.00  0.00    +0.006 C 
ATOM     27  C   UNL     1      35.761 -20.850 -19.838  0.00  0.00    +0.006 C 
ATOM     28  C   UNL     1      33.276 -21.725 -18.921  0.00  0.00    +0.000 C 
ATOM     29  C   UNL     1      35.689 -21.816 -18.834  0.00  0.00    +0.000 C 
ATOM     30  C   UNL     1      34.446 -22.254 -18.376  0.00  0.00    +0.000 C 
ENDBRANCH  23  25
ENDBRANCH  18  21
ENDBRANCH  17  18
ENDBRANCH   1  17
TORSDOF 7
ENDMDL
MODEL 2
REMARK VINA RESULT:     -11.5      6.008      9.969
REMARK  Name = 154000
REMARK  7 active torsions:
REMARK  status: ('A' for Active; 'I' for Inactive)
REMARK    1  A    between atoms: O_1  and  C_5
REMARK    2  A    between atoms: O_1  and  C_17
REMARK    3  A    between atoms: C_2  and  C_8
REMARK    4  A    between atoms: C_8  and  C_13
REMARK    5  A    between atoms: C_17  and  C_18
REMARK    6  A    between atoms: C_18  and  C_21
REMARK    7  A    between atoms: C_23  and  C_25
REMARK                            x       y       z     vdW  Elec       q    Type
REMARK                         _______ _______ _______ _____ _____    ______ ____
ROOT
ATOM      1  O   UNL     1      36.086 -22.891 -16.993  0.00  0.00    -0.475 OA
ENDROOT
BRANCH   1   5
ATOM      2  C   UNL     1      34.531 -20.650 -20.099  0.00  0.00    -0.021 C 
ATOM      3  C   UNL     1      33.673 -21.377 -19.287  0.00  0.00    -0.001 C 
ATOM      4  C   UNL     1      35.901 -20.662 -19.887  0.00  0.00    -0.001 C 
ATOM      5  C   UNL     1      35.573 -22.154 -18.015  0.00  0.00    +0.139 C 
ATOM      6  C   UNL     1      34.197 -22.134 -18.239  0.00  0.00    +0.037 C 
ATOM      7  C   UNL     1      36.425 -21.418 -18.839  0.00  0.00    +0.037 C 
BRANCH   2   8
ATOM      8  C   UNL     1      33.964 -19.834 -21.233  0.00  0.00    +0.047 C 
BRANCH   8  13
ATOM      9  O   UNL     1      34.699 -17.706 -23.835  0.00  0.00    -0.346 OA
ATOM     10  O   UNL     1      35.250 -17.217 -20.420  0.00  0.00    -0.272 OA
ATOM     11  O   UNL     1      34.615 -19.972 -24.201  0.00  0.00    -0.247 OA
ATOM     12  N   UNL     1      34.888 -16.891 -22.699  0.00  0.00    -0.144 N 
ATOM     13  C   UNL     1      35.042 -19.069 -21.976  0.00  0.00    +0.184 C 
ATOM     14  C   UNL     1      35.079 -17.631 -21.556  0.00  0.00    +0.264 C 
ATOM     15  C   UNL     1      34.761 -19.017 -23.455  0.00  0.00    +0.348 C 
ATOM     16  H   UNL     1      34.883 -15.907 -22.722  0.00  0.00    +0.196 HD
ENDBRANCH   8  13
ENDBRANCH   2   8
ENDBRANCH   1   5
BRANCH   1  17
ATOM     17  C   UNL     1      36.118 -22.280 -15.703  0.00  0.00    +0.213 C 
BRANCH  17  18
ATOM     18  C   UNL     1      36.135 -23.357 -14.623  0.00  0.00    +0.105 C 
BRANCH  18  21
ATOM     19  O   UNL     1      33.054 -24.394 -12.965  0.00  0.00    -0.449 OA
ATOM     20  N   UNL     1      33.701 -23.596 -14.980  0.00  0.00    -0.373 NA
ATOM     21  C   UNL     1      34.761 -23.728 -14.147  0.00  0.00    +0.134 C 
ATOM     22  C   UNL     1      34.402 -24.204 -12.932  0.00  0.00    +0.216 C 
ATOM     23  C   UNL     1      32.708 -24.009 -14.224  0.00  0.00    +0.277 C 
ATOM     24  C   UNL     1      35.093 -24.537 -11.682  0.00  0.00    +0.055 C 
BRANCH  23  25
ATOM     25  C   UNL     1      31.308 -24.110 -14.532  0.00  0.00    +0.066 C 
ATOM     26  C   UNL     1      30.542 -25.147 -13.993  0.00  0.00    +0.006 C 
ATOM     27  C   UNL     1      30.705 -23.172 -15.375  0.00  0.00    +0.006 C 
ATOM     28  C   UNL     1      29.184 -25.245 -14.295  0.00  0.00    +0.000 C 
ATOM     29  C   UNL     1      29.347 -23.270 -15.676  0.00  0.00    +0.000 C 
ATOM     30  C   UNL     1      28.586 -24.307 -15.136  0.00  0.00    +0.000 C 
ENDBRANCH  23  25
ENDBRANCH  18  21
ENDBRANCH  17  18
ENDBRANCH   1  17
TORSDOF 7
ENDMDL
MODEL 3
REMARK VINA RESULT:     -11.4      2.029     10.610
REMARK  Name = 154000
REMARK  7 active torsions:
REMARK  status: ('A' for Active; 'I' for Inactive)
REMARK    1  A    between atoms: O_1  and  C_5
REMARK    2  A    between atoms: O_1  and  C_17
REMARK    3  A    between atoms: C_2  and  C_8
REMARK    4  A    between atoms: C_8  and  C_13
REMARK    5  A    between atoms: C_17  and  C_18
REMARK    6  A    between atoms: C_18  and  C_21
REMARK    7  A    between atoms: C_23  and  C_25
REMARK                            x       y       z     vdW  Elec       q    Type
REMARK                         _______ _______ _______ _____ _____    ______ ____
ROOT
ATOM      1  O   UNL     1      33.784 -14.489 -24.961  0.00  0.00    -0.475 OA
ENDROOT
BRANCH   1   5
ATOM      2  C   UNL     1      34.675 -18.092 -23.141  0.00  0.00    -0.021 C 
ATOM      3  C   UNL     1      35.021 -16.906 -22.509  0.00  0.00    -0.001 C 
ATOM      4  C   UNL     1      34.037 -18.090 -24.372  0.00  0.00    -0.001 C 
ATOM      5  C   UNL     1      34.078 -15.675 -24.361  0.00  0.00    +0.139 C 
ATOM      6  C   UNL     1      34.720 -15.690 -23.123  0.00  0.00    +0.037 C 
ATOM      7  C   UNL     1      33.736 -16.874 -24.985  0.00  0.00    +0.037 C 
BRANCH   2   8
ATOM      8  C   UNL     1      35.001 -19.406 -22.477  0.00  0.00    +0.047 C 
BRANCH   8  13
ATOM      9  O   UNL     1      35.133 -21.030 -19.447  0.00  0.00    -0.346 OA
ATOM     10  O   UNL     1      37.515 -18.908 -20.867  0.00  0.00    -0.272 OA
ATOM     11  O   UNL     1      33.098 -20.497 -20.370  0.00  0.00    -0.247 OA
ATOM     12  N   UNL     1      36.450 -20.550 -19.604  0.00  0.00    -0.144 N 
ATOM     13  C   UNL     1      35.117 -19.268 -20.972  0.00  0.00    +0.184 C 
ATOM     14  C   UNL     1      36.520 -19.516 -20.507  0.00  0.00    +0.264 C 
ATOM     15  C   UNL     1      34.299 -20.313 -20.258  0.00  0.00    +0.348 C 
ATOM     16  H   UNL     1      37.228 -20.913 -19.122  0.00  0.00    +0.196 HD
ENDBRANCH   8  13
ENDBRANCH   2   8
ENDBRANCH   1   5
BRANCH   1  17
ATOM     17  C   UNL     1      32.971 -13.573 -24.226  0.00  0.00    +0.213 C 
BRANCH  17  18
ATOM     18  C   UNL     1      33.824 -12.407 -23.734  0.00  0.00    +0.105 C 
BRANCH  18  21
ATOM     19  O   UNL     1      31.835 -10.550 -21.302  0.00  0.00    -0.449 OA
ATOM     20  N   UNL     1      33.027 -10.134 -23.178  0.00  0.00    -0.373 NA
ATOM     21  C   UNL     1      33.059 -11.451 -22.865  0.00  0.00    +0.134 C 
ATOM     22  C   UNL     1      32.353 -11.729 -21.745  0.00  0.00    +0.216 C 
ATOM     23  C   UNL     1      32.283  -9.643 -22.213  0.00  0.00    +0.277 C 
ATOM     24  C   UNL     1      32.044 -12.931 -20.961  0.00  0.00    +0.055 C 
BRANCH  23  25
ATOM     25  C   UNL     1      31.873  -8.286 -21.977  0.00  0.00    +0.066 C 
ATOM     26  C   UNL     1      32.263  -7.626 -20.807  0.00  0.00    +0.006 C 
ATOM     27  C   UNL     1      31.080  -7.619 -22.914  0.00  0.00    +0.006 C 
ATOM     28  C   UNL     1      31.863  -6.310 -20.579  0.00  0.00    +0.000 C 
ATOM     29  C   UNL     1      30.681  -6.302 -22.686  0.00  0.00    +0.000 C 
ATOM     30  C   UNL     1      31.072  -5.647 -21.518  0.00  0.00    +0.000 C 
ENDBRANCH  23  25
ENDBRANCH  18  21
ENDBRANCH  17  18
ENDBRANCH   1  17
TORSDOF 7
ENDMDL
MODEL 4
REMARK VINA RESULT:     -11.4      3.315     10.676
REMARK  Name = 154000
REMARK  7 active torsions:
REMARK  status: ('A' for Active; 'I' for Inactive)
REMARK    1  A    between atoms: O_1  and  C_5
REMARK    2  A    between atoms: O_1  and  C_17
REMARK    3  A    between atoms: C_2  and  C_8
REMARK    4  A    between atoms: C_8  and  C_13
REMARK    5  A    between atoms: C_17  and  C_18
REMARK    6  A    between atoms: C_18  and  C_21
REMARK    7  A    between atoms: C_23  and  C_25
REMARK                            x       y       z     vdW  Elec       q    Type
REMARK                         _______ _______ _______ _____ _____    ______ ____
ROOT
ATOM      1  O   UNL     1      35.927 -18.812 -21.355  0.00  0.00    -0.475 OA
ENDROOT
BRANCH   1   5
ATOM      2  C   UNL     1      34.193 -21.855 -19.160  0.00  0.00    -0.021 C 
ATOM      3  C   UNL     1      35.573 -21.713 -19.156  0.00  0.00    -0.001 C 
ATOM      4  C   UNL     1      33.385 -20.995 -19.888  0.00  0.00    -0.001 C 
ATOM      5  C   UNL     1      35.357 -19.814 -20.632  0.00  0.00    +0.139 C 
ATOM      6  C   UNL     1      36.158 -20.687 -19.896  0.00  0.00    +0.037 C 
ATOM      7  C   UNL     1      33.971 -19.969 -20.629  0.00  0.00    +0.037 C 
BRANCH   2   8
ATOM      8  C   UNL     1      33.561 -22.967 -18.361  0.00  0.00    +0.047 C 
BRANCH   8  13
ATOM      9  O   UNL     1      32.143 -23.789 -15.335  0.00  0.00    -0.346 OA
ATOM     10  O   UNL     1      35.523 -23.330 -16.085  0.00  0.00    -0.272 OA
ATOM     11  O   UNL     1      30.927 -22.604 -16.882  0.00  0.00    -0.247 OA
ATOM     12  N   UNL     1      33.518 -24.002 -15.106  0.00  0.00    -0.144 N 
ATOM     13  C   UNL     1      33.365 -22.580 -16.907  0.00  0.00    +0.184 C 
ATOM     14  C   UNL     1      34.304 -23.330 -16.012  0.00  0.00    +0.264 C 
ATOM     15  C   UNL     1      31.995 -22.963 -16.414  0.00  0.00    +0.348 C 
ATOM     16  H   UNL     1      33.873 -24.566 -14.382  0.00  0.00    +0.196 HD
ENDBRANCH   8  13
ENDBRANCH   2   8
ENDBRANCH   1   5
BRANCH   1  17
ATOM     17  C   UNL     1      35.251 -17.554 -21.366  0.00  0.00    +0.213 C 
BRANCH  17  18
ATOM     18  C   UNL     1      35.356 -16.925 -22.753  0.00  0.00    +0.105 C 
BRANCH  18  21
ATOM     19  O   UNL     1      33.119 -14.210 -23.723  0.00  0.00    -0.449 OA
ATOM     20  N   UNL     1      34.180 -14.940 -21.864  0.00  0.00    -0.373 NA
ATOM     21  C   UNL     1      34.451 -15.739 -22.924  0.00  0.00    +0.134 C 
ATOM     22  C   UNL     1      33.828 -15.325 -24.051  0.00  0.00    +0.216 C 
ATOM     23  C   UNL     1      33.381 -14.043 -22.398  0.00  0.00    +0.277 C 
ATOM     24  C   UNL     1      33.754 -15.778 -25.445  0.00  0.00    +0.055 C 
BRANCH  23  25
ATOM     25  C   UNL     1      32.741 -12.912 -21.785  0.00  0.00    +0.066 C 
ATOM     26  C   UNL     1      32.617 -11.708 -22.486  0.00  0.00    +0.006 C 
ATOM     27  C   UNL     1      32.242 -13.008 -20.484  0.00  0.00    +0.006 C 
ATOM     28  C   UNL     1      31.998 -10.610 -21.889  0.00  0.00    +0.000 C 
ATOM     29  C   UNL     1      31.622 -11.910 -19.887  0.00  0.00    +0.000 C 
ATOM     30  C   UNL     1      31.500 -10.711 -20.589  0.00  0.00    +0.000 C 
ENDBRANCH  23  25
ENDBRANCH  18  21
ENDBRANCH  17  18
ENDBRANCH   1  17
TORSDOF 7
ENDMDL
MODEL 5
REMARK VINA RESULT:     -11.3      0.925      2.143
REMARK  Name = 154000
REMARK  7 active torsions:
REMARK  status: ('A' for Active; 'I' for Inactive)
REMARK    1  A    between atoms: O_1  and  C_5
REMARK    2  A    between atoms: O_1  and  C_17
REMARK    3  A    between atoms: C_2  and  C_8
REMARK    4  A    between atoms: C_8  and  C_13
REMARK    5  A    between atoms: C_17  and  C_18
REMARK    6  A    between atoms: C_18  and  C_21
REMARK    7  A    between atoms: C_23  and  C_25
REMARK                            x       y       z     vdW  Elec       q    Type
REMARK                         _______ _______ _______ _____ _____    ______ ____
ROOT
ATOM      1  O   UNL     1      33.257 -14.262 -22.765  0.00  0.00    -0.475 OA
ENDROOT
BRANCH   1   5
ATOM      2  C   UNL     1      32.928 -10.143 -22.660  0.00  0.00    -0.021 C 
ATOM      3  C   UNL     1      33.790 -10.734 -23.573  0.00  0.00    -0.001 C 
ATOM      4  C   UNL     1      32.176 -10.908 -21.782  0.00  0.00    -0.001 C 
ATOM      5  C   UNL     1      33.149 -12.906 -22.731  0.00  0.00    +0.139 C 
ATOM      6  C   UNL     1      33.901 -12.124 -23.609  0.00  0.00    +0.037 C 
ATOM      7  C   UNL     1      32.288 -12.298 -21.818  0.00  0.00    +0.037 C 
BRANCH   2   8
ATOM      8  C   UNL     1      32.810  -8.640 -22.621  0.00  0.00    +0.047 C 
BRANCH   8  13
ATOM      9  O   UNL     1      31.637  -6.195 -20.503  0.00  0.00    -0.346 OA
ATOM     10  O   UNL     1      30.190  -7.374 -23.456  0.00  0.00    -0.272 OA
ATOM     11  O   UNL     1      32.989  -7.862 -19.685  0.00  0.00    -0.247 OA
ATOM     12  N   UNL     1      30.804  -6.058 -21.633  0.00  0.00    -0.144 N 
ATOM     13  C   UNL     1      31.681  -8.183 -21.718  0.00  0.00    +0.184 C 
ATOM     14  C   UNL     1      30.795  -7.192 -22.410  0.00  0.00    +0.264 C 
ATOM     15  C   UNL     1      32.202  -7.439 -20.516  0.00  0.00    +0.348 C 
ATOM     16  H   UNL     1      30.290  -5.245 -21.841  0.00  0.00    +0.196 HD
ENDBRANCH   8  13
ENDBRANCH   2   8
ENDBRANCH   1   5
BRANCH   1  17
ATOM     17  C   UNL     1      34.350 -14.845 -22.055  0.00  0.00    +0.213 C 
BRANCH  17  18
ATOM     18  C   UNL     1      35.098 -15.814 -22.966  0.00  0.00    +0.105 C 
BRANCH  18  21
ATOM     19  O   UNL     1      34.203 -19.345 -22.744  0.00  0.00    -0.449 OA
ATOM     20  N   UNL     1      35.087 -17.741 -21.417  0.00  0.00    -0.373 NA
ATOM     21  C   UNL     1      34.808 -17.253 -22.650  0.00  0.00    +0.134 C 
ATOM     22  C   UNL     1      34.278 -18.192 -23.466  0.00  0.00    +0.216 C 
ATOM     23  C   UNL     1      34.705 -18.993 -21.529  0.00  0.00    +0.277 C 
ATOM     24  C   UNL     1      33.800 -18.240 -24.852  0.00  0.00    +0.055 C 
BRANCH  23  25
ATOM     25  C   UNL     1      34.743 -20.048 -20.554  0.00  0.00    +0.066 C 
ATOM     26  C   UNL     1      35.968 -20.515 -20.068  0.00  0.00    +0.006 C 
ATOM     27  C   UNL     1      33.554 -20.616 -20.087  0.00  0.00    +0.006 C 
ATOM     28  C   UNL     1      36.003 -21.540 -19.124  0.00  0.00    +0.000 C 
ATOM     29  C   UNL     1      33.589 -21.641 -19.141  0.00  0.00    +0.000 C 
ATOM     30  C   UNL     1      34.814 -22.103 -18.660  0.00  0.00    +0.000 C 
ENDBRANCH  23  25
ENDBRANCH  18  21
ENDBRANCH  17  18
ENDBRANCH   1  17
TORSDOF 7
ENDMDL
MODEL 6
REMARK VINA RESULT:     -11.3      4.300      7.344
REMARK  Name = 154000
REMARK  7 active torsions:
REMARK  status: ('A' for Active; 'I' for Inactive)
REMARK    1  A    between atoms: O_1  and  C_5
REMARK    2  A    between atoms: O_1  and  C_17
REMARK    3  A    between atoms: C_2  and  C_8
REMARK    4  A    between atoms: C_8  and  C_13
REMARK    5  A    between atoms: C_17  and  C_18
REMARK    6  A    between atoms: C_18  and  C_21
REMARK    7  A    between atoms: C_23  and  C_25
REMARK                            x       y       z     vdW  Elec       q    Type
REMARK                         _______ _______ _______ _____ _____    ______ ____
ROOT
ATOM      1  O   UNL     1      35.349 -20.086 -20.021  0.00  0.00    -0.475 OA
ENDROOT
BRANCH   1   5
ATOM      2  C   UNL     1      34.989 -17.412 -23.153  0.00  0.00    -0.021 C 
ATOM      3  C   UNL     1      34.580 -18.726 -23.329  0.00  0.00    -0.001 C 
ATOM      4  C   UNL     1      35.517 -16.980 -21.946  0.00  0.00    -0.001 C 
ATOM      5  C   UNL     1      35.231 -19.206 -21.053  0.00  0.00    +0.139 C 
ATOM      6  C   UNL     1      34.701 -19.628 -22.273  0.00  0.00    +0.037 C 
ATOM      7  C   UNL     1      35.639 -17.882 -20.890  0.00  0.00    +0.037 C 
BRANCH   2   8
ATOM      8  C   UNL     1      34.859 -16.437 -24.296  0.00  0.00    +0.047 C 
BRANCH   8  13
ATOM      9  O   UNL     1      33.287 -13.443 -24.936  0.00  0.00    -0.346 OA
ATOM     10  O   UNL     1      32.484 -16.613 -26.164  0.00  0.00    -0.272 OA
ATOM     11  O   UNL     1      34.424 -13.738 -22.962  0.00  0.00    -0.247 OA
ATOM     12  N   UNL     1      32.713 -14.311 -25.888  0.00  0.00    -0.144 N 
ATOM     13  C   UNL     1      33.569 -15.643 -24.221  0.00  0.00    +0.184 C 
ATOM     14  C   UNL     1      32.857 -15.632 -25.540  0.00  0.00    +0.264 C 
ATOM     15  C   UNL     1      33.832 -14.189 -23.928  0.00  0.00    +0.348 C 
ATOM     16  H   UNL     1      32.261 -14.004 -26.707  0.00  0.00    +0.196 HD
ENDBRANCH   8  13
ENDBRANCH   2   8
ENDBRANCH   1   5
BRANCH   1  17
ATOM     17  C   UNL     1      34.230 -20.931 -19.756  0.00  0.00    +0.213 C 
BRANCH  17  18
ATOM     18  C   UNL     1      34.716 -22.309 -19.318  0.00  0.00    +0.105 C 
BRANCH  18  21
ATOM     19  O   UNL     1      34.535 -22.887 -15.719  0.00  0.00    -0.449 OA
ATOM     20  N   UNL     1      33.168 -22.996 -17.517  0.00  0.00    -0.373 NA
ATOM     21  C   UNL     1      34.414 -22.604 -17.877  0.00  0.00    +0.134 C 
ATOM     22  C   UNL     1      35.254 -22.529 -16.820  0.00  0.00    +0.216 C 
ATOM     23  C   UNL     1      33.298 -23.152 -16.219  0.00  0.00    +0.277 C 
ATOM     24  C   UNL     1      36.663 -22.176 -16.612  0.00  0.00    +0.055 C 
BRANCH  23  25
ATOM     25  C   UNL     1      32.321 -23.561 -15.248  0.00  0.00    +0.066 C 
ATOM     26  C   UNL     1      32.711 -24.284 -14.117  0.00  0.00    +0.006 C 
ATOM     27  C   UNL     1      30.973 -23.240 -15.429  0.00  0.00    +0.006 C 
ATOM     28  C   UNL     1      31.762 -24.682 -13.176  0.00  0.00    +0.000 C 
ATOM     29  C   UNL     1      30.023 -23.637 -14.488  0.00  0.00    +0.000 C 
ATOM     30  C   UNL     1      30.417 -24.358 -13.361  0.00  0.00    +0.000 C 
ENDBRANCH  23  25
ENDBRANCH  18  21
ENDBRANCH  17  18
ENDBRANCH   1  17
TORSDOF 7
ENDMDL
MODEL 7
REMARK VINA RESULT:     -11.2      4.722     12.072
REMARK  Name = 154000
REMARK  7 active torsions:
REMARK  status: ('A' for Active; 'I' for Inactive)
REMARK    1  A    between atoms: O_1  and  C_5
REMARK    2  A    between atoms: O_1  and  C_17
REMARK    3  A    between atoms: C_2  and  C_8
REMARK    4  A    between atoms: C_8  and  C_13
REMARK    5  A    between atoms: C_17  and  C_18
REMARK    6  A    between atoms: C_18  and  C_21
REMARK    7  A    between atoms: C_23  and  C_25
REMARK                            x       y       z     vdW  Elec       q    Type
REMARK                         _______ _______ _______ _____ _____    ______ ____
ROOT
ATOM      1  O   UNL     1      35.339 -21.393 -20.140  0.00  0.00    -0.475 OA
ENDROOT
BRANCH   1   5
ATOM      2  C   UNL     1      35.383 -22.746 -16.234  0.00  0.00    -0.021 C 
ATOM      3  C   UNL     1      36.519 -22.148 -16.760  0.00  0.00    -0.001 C 
ATOM      4  C   UNL     1      34.234 -22.899 -16.995  0.00  0.00    -0.001 C 
ATOM      5  C   UNL     1      35.355 -21.839 -18.854  0.00  0.00    +0.139 C 
ATOM      6  C   UNL     1      36.504 -21.692 -18.078  0.00  0.00    +0.037 C 
ATOM      7  C   UNL     1      34.220 -22.442 -18.313  0.00  0.00    +0.037 C 
BRANCH   2   8
ATOM      8  C   UNL     1      35.399 -23.241 -14.810  0.00  0.00    +0.047 C 
BRANCH   8  13
ATOM      9  O   UNL     1      37.102 -25.124 -12.487  0.00  0.00    -0.346 OA
ATOM     10  O   UNL     1      35.609 -26.190 -15.459  0.00  0.00    -0.272 OA
ATOM     11  O   UNL     1      37.582 -22.890 -12.720  0.00  0.00    -0.247 OA
ATOM     12  N   UNL     1      36.509 -26.103 -13.312  0.00  0.00    -0.144 N 
ATOM     13  C   UNL     1      36.576 -24.160 -14.542  0.00  0.00    +0.184 C 
ATOM     14  C   UNL     1      36.155 -25.599 -14.541  0.00  0.00    +0.264 C 
ATOM     15  C   UNL     1      37.147 -23.939 -13.166  0.00  0.00    +0.348 C 
ATOM     16  H   UNL     1      36.367 -27.038 -13.039  0.00  0.00    +0.196 HD
ENDBRANCH   8  13
ENDBRANCH   2   8
ENDBRANCH   1   5
BRANCH   1  17
ATOM     17  C   UNL     1      34.793 -20.095 -20.371  0.00  0.00    +0.213 C 
BRANCH  17  18
ATOM     18  C   UNL     1      35.838 -19.207 -21.040  0.00  0.00    +0.105 C 
BRANCH  18  21
ATOM     19  O   UNL     1      34.399 -17.625 -23.998  0.00  0.00    -0.449 OA
ATOM     20  N   UNL     1      35.127 -17.018 -21.944  0.00  0.00    -0.373 NA
ATOM     21  C   UNL     1      35.263 -18.353 -22.134  0.00  0.00    +0.134 C 
ATOM     22  C   UNL     1      34.835 -18.745 -23.355  0.00  0.00    +0.216 C 
ATOM     23  C   UNL     1      34.607 -16.634 -23.089  0.00  0.00    +0.277 C 
ATOM     24  C   UNL     1      34.744 -20.013 -24.087  0.00  0.00    +0.055 C 
BRANCH  23  25
ATOM     25  C   UNL     1      34.224 -15.318 -23.520  0.00  0.00    +0.066 C 
ATOM     26  C   UNL     1      34.387 -14.222 -22.667  0.00  0.00    +0.006 C 
ATOM     27  C   UNL     1      33.683 -15.126 -24.794  0.00  0.00    +0.006 C 
ATOM     28  C   UNL     1      34.013 -12.946 -23.086  0.00  0.00    +0.000 C 
ATOM     29  C   UNL     1      33.309 -13.850 -25.213  0.00  0.00    +0.000 C 
ATOM     30  C   UNL     1      33.474 -12.759 -24.359  0.00  0.00    +0.000 C 
ENDBRANCH  23  25
ENDBRANCH  18  21
ENDBRANCH  17  18
ENDBRANCH   1  17
TORSDOF 7
ENDMDL
MODEL 8
REMARK VINA RESULT:     -11.1      2.499     10.851
REMARK  Name = 154000
REMARK  7 active torsions:
REMARK  status: ('A' for Active; 'I' for Inactive)
REMARK    1  A    between atoms: O_1  and  C_5
REMARK    2  A    between atoms: O_1  and  C_17
REMARK    3  A    between atoms: C_2  and  C_8
REMARK    4  A    between atoms: C_8  and  C_13
REMARK    5  A    between atoms: C_17  and  C_18
REMARK    6  A    between atoms: C_18  and  C_21
REMARK    7  A    between atoms: C_23  and  C_25
REMARK                            x       y       z     vdW  Elec       q    Type
REMARK                         _______ _______ _______ _____ _____    ______ ____
ROOT
ATOM      1  O   UNL     1      34.952 -15.307 -23.522  0.00  0.00    -0.475 OA
ENDROOT
BRANCH   1   5
ATOM      2  C   UNL     1      34.997 -19.121 -21.928  0.00  0.00    -0.021 C 
ATOM      3  C   UNL     1      34.638 -18.942 -23.256  0.00  0.00    -0.001 C 
ATOM      4  C   UNL     1      35.340 -18.044 -21.125  0.00  0.00    -0.001 C 
ATOM      5  C   UNL     1      34.967 -16.563 -22.998  0.00  0.00    +0.139 C 
ATOM      6  C   UNL     1      34.623 -17.656 -23.794  0.00  0.00    +0.037 C 
ATOM      7  C   UNL     1      35.325 -16.757 -21.664  0.00  0.00    +0.037 C 
BRANCH   2   8
ATOM      8  C   UNL     1      35.012 -20.512 -21.346  0.00  0.00    +0.047 C 
BRANCH   8  13
ATOM      9  O   UNL     1      32.935 -22.077 -19.093  0.00  0.00    -0.346 OA
ATOM     10  O   UNL     1      36.389 -21.605 -18.883  0.00  0.00    -0.272 OA
ATOM     11  O   UNL     1      32.099 -20.441 -20.471  0.00  0.00    -0.247 OA
ATOM     12  N   UNL     1      34.221 -22.418 -18.625  0.00  0.00    -0.144 N 
ATOM     13  C   UNL     1      34.474 -20.540 -19.928  0.00  0.00    +0.184 C 
ATOM     14  C   UNL     1      35.188 -21.561 -19.094  0.00  0.00    +0.264 C 
ATOM     15  C   UNL     1      33.032 -20.974 -19.894  0.00  0.00    +0.348 C 
ATOM     16  H   UNL     1      34.405 -23.182 -18.031  0.00  0.00    +0.196 HD
ENDBRANCH   8  13
ENDBRANCH   2   8
ENDBRANCH   1   5
BRANCH   1  17
ATOM     17  C   UNL     1      34.472 -14.258 -22.681  0.00  0.00    +0.213 C 
BRANCH  17  18
ATOM     18  C   UNL     1      33.215 -13.644 -23.290  0.00  0.00    +0.105 C 
BRANCH  18  21
ATOM     19  O   UNL     1      32.375 -10.415 -21.811  0.00  0.00    -0.449 OA
ATOM     20  N   UNL     1      33.530 -11.209 -23.586  0.00  0.00    -0.373 NA
ATOM     21  C   UNL     1      32.995 -12.222 -22.862  0.00  0.00    +0.134 C 
ATOM     22  C   UNL     1      32.298 -11.775 -21.792  0.00  0.00    +0.216 C 
ATOM     23  C   UNL     1      33.127 -10.154 -22.914  0.00  0.00    +0.277 C 
ATOM     24  C   UNL     1      31.533 -12.386 -20.699  0.00  0.00    +0.055 C 
BRANCH  23  25
ATOM     25  C   UNL     1      33.369  -8.761 -23.174  0.00  0.00    +0.066 C 
ATOM     26  C   UNL     1      32.317  -7.842 -23.120  0.00  0.00    +0.006 C 
ATOM     27  C   UNL     1      34.657  -8.318 -23.485  0.00  0.00    +0.006 C 
ATOM     28  C   UNL     1      32.553  -6.491 -23.374  0.00  0.00    +0.000 C 
ATOM     29  C   UNL     1      34.893  -6.967 -23.739  0.00  0.00    +0.000 C 
ATOM     30  C   UNL     1      33.841  -6.053 -23.684  0.00  0.00    +0.000 C 
ENDBRANCH  23  25
ENDBRANCH  18  21
ENDBRANCH  17  18
ENDBRANCH   1  17
TORSDOF 7
ENDMDL
MODEL 9
REMARK VINA RESULT:     -11.1      5.724     10.068
REMARK  Name = 154000
REMARK  7 active torsions:
REMARK  status: ('A' for Active; 'I' for Inactive)
REMARK    1  A    between atoms: O_1  and  C_5
REMARK    2  A    between atoms: O_1  and  C_17
REMARK    3  A    between atoms: C_2  and  C_8
REMARK    4  A    between atoms: C_8  and  C_13
REMARK    5  A    between atoms: C_17  and  C_18
REMARK    6  A    between atoms: C_18  and  C_21
REMARK    7  A    between atoms: C_23  and  C_25
REMARK                            x       y       z     vdW  Elec       q    Type
REMARK                         _______ _______ _______ _____ _____    ______ ____
ROOT
ATOM      1  O   UNL     1      33.078 -23.160 -17.677  0.00  0.00    -0.475 OA
ENDROOT
BRANCH   1   5
ATOM      2  C   UNL     1      34.999 -20.503 -20.195  0.00  0.00    -0.021 C 
ATOM      3  C   UNL     1      33.613 -20.523 -20.156  0.00  0.00    -0.001 C 
ATOM      4  C   UNL     1      35.752 -21.358 -19.405  0.00  0.00    -0.001 C 
ATOM      5  C   UNL     1      33.710 -22.285 -18.507  0.00  0.00    +0.139 C 
ATOM      6  C   UNL     1      32.964 -21.419 -19.307  0.00  0.00    +0.037 C 
ATOM      7  C   UNL     1      35.104 -22.255 -18.556  0.00  0.00    +0.037 C 
BRANCH   2   8
ATOM      8  C   UNL     1      35.700 -19.534 -21.115  0.00  0.00    +0.047 C 
BRANCH   8  13
ATOM      9  O   UNL     1      35.237 -16.464 -22.597  0.00  0.00    -0.346 OA
ATOM     10  O   UNL     1      34.746 -19.631 -23.985  0.00  0.00    -0.272 OA
ATOM     11  O   UNL     1      35.041 -16.673 -20.318  0.00  0.00    -0.247 OA
ATOM     12  N   UNL     1      35.149 -17.356 -23.687  0.00  0.00    -0.144 N 
ATOM     13  C   UNL     1      34.726 -18.590 -21.792  0.00  0.00    +0.184 C 
ATOM     14  C   UNL     1      34.866 -18.639 -23.284  0.00  0.00    +0.264 C 
ATOM     15  C   UNL     1      35.013 -17.154 -21.439  0.00  0.00    +0.348 C 
ATOM     16  H   UNL     1      35.276 -17.090 -24.626  0.00  0.00    +0.196 HD
ENDBRANCH   8  13
ENDBRANCH   2   8
ENDBRANCH   1   5
BRANCH   1  17
ATOM     17  C   UNL     1      32.180 -22.609 -16.715  0.00  0.00    +0.213 C 
BRANCH  17  18
ATOM     18  C   UNL     1      31.564 -23.730 -15.883  0.00  0.00    +0.105 C 
BRANCH  18  21
ATOM     19  O   UNL     1      32.982 -24.602 -12.634  0.00  0.00    -0.449 OA
ATOM     20  N   UNL     1      33.709 -23.936 -14.670  0.00  0.00    -0.373 NA
ATOM     21  C   UNL     1      32.359 -24.043 -14.647  0.00  0.00    +0.134 C 
ATOM     22  C   UNL     1      31.895 -24.440 -13.440  0.00  0.00    +0.216 C 
ATOM     23  C   UNL     1      34.029 -24.281 -13.443  0.00  0.00    +0.277 C 
ATOM     24  C   UNL     1      30.580 -24.714 -12.851  0.00  0.00    +0.055 C 
BRANCH  23  25
ATOM     25  C   UNL     1      35.325 -24.370 -12.829  0.00  0.00    +0.066 C 
ATOM     26  C   UNL     1      36.296 -25.227 -13.356  0.00  0.00    +0.006 C 
ATOM     27  C   UNL     1      35.621 -23.603 -11.699  0.00  0.00    +0.006 C 
ATOM     28  C   UNL     1      37.553 -25.315 -12.758  0.00  0.00    +0.000 C 
ATOM     29  C   UNL     1      36.879 -23.690 -11.102  0.00  0.00    +0.000 C 
ATOM     30  C   UNL     1      37.845 -24.546 -11.631  0.00  0.00    +0.000 C 
ENDBRANCH  23  25
ENDBRANCH  18  21
ENDBRANCH  17  18
ENDBRANCH   1  17
TORSDOF 7
ENDMDL
