MODEL 1
REMARK VINA RESULT:     -11.8      0.000      0.000
REMARK  Name = 5327153
REMARK  6 active torsions:
REMARK  status: ('A' for Active; 'I' for Inactive)
REMARK    1  A    between atoms: C_3  and  C_15
REMARK    2  A    between atoms: C_10  and  O_24
REMARK    3  A    between atoms: C_11  and  N_18
REMARK    4  A    between atoms: N_18  and  S_20
REMARK    5  A    between atoms: O_24  and  C_25
REMARK    6  A    between atoms: C_25  and  C_26
REMARK                            x       y       z     vdW  Elec       q    Type
REMARK                         _______ _______ _______ _____ _____    ______ ____
ROOT
ATOM      1  O   UNL     1      37.144 -22.086 -16.103  0.00  0.00    -0.226 OA
ATOM      2  N   UNL     1      35.024 -23.005 -15.790  0.00  0.00    -0.235 N 
ATOM      3  C   UNL     1      35.318 -23.484 -14.439  0.00  0.00    +0.159 C 
ATOM      4  C   UNL     1      34.174 -23.223 -13.464  0.00  0.00    +0.055 C 
ATOM      5  C   UNL     1      33.727 -23.356 -16.387  0.00  0.00    +0.124 C 
ATOM      6  C   UNL     1      32.825 -23.590 -14.024  0.00  0.00    -0.022 C 
ATOM      7  C   UNL     1      32.616 -23.634 -15.410  0.00  0.00    -0.005 C 
ATOM      8  C   UNL     1      31.342 -23.955 -15.902  0.00  0.00    +0.013 C 
ATOM      9  C   UNL     1      31.755 -23.842 -13.152  0.00  0.00    -0.003 C 
ATOM     10  C   UNL     1      36.042 -22.401 -16.547  0.00  0.00    +0.406 C 
ATOM     11  C   UNL     1      30.287 -24.216 -15.028  0.00  0.00    +0.065 C 
ATOM     12  C   UNL     1      30.494 -24.157 -13.653  0.00  0.00    +0.016 C 
ENDROOT
BRANCH   3  15
ATOM     13  O   UNL     1      35.227 -25.636 -15.476  0.00  0.00    -0.273 OA
ATOM     14  N   UNL     1      36.465 -25.378 -13.521  0.00  0.00    -0.301 N 
ATOM     15  C   UNL     1      35.656 -24.943 -14.558  0.00  0.00    +0.241 C 
ATOM     16  C   UNL     1      36.914 -26.746 -13.391  0.00  0.00    +0.111 C 
ATOM     17  H   UNL     1      36.746 -24.726 -12.840  0.00  0.00    +0.150 HD
ENDBRANCH   3  15
BRANCH  11  18
ATOM     18  N   UNL     1      28.996 -24.540 -15.545  0.00  0.00    -0.213 N 
ATOM     19  H   UNL     1      28.621 -25.448 -15.466  0.00  0.00    +0.174 HD
BRANCH  18  20
ATOM     20  S   UNL     1      28.124 -23.259 -16.317  0.00  0.00    +0.091 S 
ATOM     21  O   UNL     1      26.993 -22.821 -15.226  0.00  0.00    -0.050 OA
ATOM     22  O   UNL     1      29.018 -22.130 -16.504  0.00  0.00    -0.050 OA
ATOM     23  O   UNL     1      27.423 -23.822 -17.457  0.00  0.00    -0.050 OA
ENDBRANCH  18  20
ENDBRANCH  11  18
BRANCH  10  24
ATOM     24  O   UNL     1      35.676 -22.203 -17.853  0.00  0.00    -0.430 OA
BRANCH  24  25
ATOM     25  C   UNL     1      36.637 -21.542 -18.683  0.00  0.00    +0.237 C 
BRANCH  25  26
ATOM     26  C   UNL     1      35.915 -20.706 -19.699  0.00  0.00    +0.021 C 
ATOM     27  C   UNL     1      34.543 -20.856 -19.863  0.00  0.00    -0.001 C 
ATOM     28  C   UNL     1      36.625 -19.789 -20.467  0.00  0.00    -0.001 C 
ATOM     29  C   UNL     1      33.871 -20.079 -20.806  0.00  0.00    -0.000 C 
ATOM     30  C   UNL     1      35.953 -19.012 -21.410  0.00  0.00    -0.000 C 
ATOM     31  C   UNL     1      34.576 -19.157 -21.580  0.00  0.00    -0.000 C 
ENDBRANCH  25  26
ENDBRANCH  24  25
ENDBRANCH  10  24
TORSDOF 6
ENDMDL
