MODEL 1
REMARK VINA RESULT:     -11.8      0.000      0.000
REMARK  Name = 9810927
REMARK  6 active torsions:
REMARK  status: ('A' for Active; 'I' for Inactive)
REMARK    1  A    between atoms: N_1  and  C_13
REMARK    2  A    between atoms: C_11  and  O_24
REMARK    3  A    between atoms: C_12  and  O_26
REMARK    4  A    between atoms: C_14  and  C_18
REMARK    5  A    between atoms: C_19  and  C_20
REMARK    6  A    between atoms: N_28  and  C_32
REMARK                            x       y       z     vdW  Elec       q    Type
REMARK                         _______ _______ _______ _____ _____    ______ ____
ROOT
ATOM      1  N   UNL     1      36.170 -23.416 -15.654  0.00  0.00    -0.247 N 
ATOM      2  N   UNL     1      37.253 -21.814 -16.766  0.00  0.00    -0.242 NA
ATOM      3  N   UNL     1      34.174 -23.596 -17.028  0.00  0.00    -0.228 NA
ATOM      4  N   UNL     1      34.242 -22.036 -18.903  0.00  0.00    -0.228 NA
ATOM      5  C   UNL     1      35.370 -23.079 -16.711  0.00  0.00    +0.152 C 
ATOM      6  C   UNL     1      37.288 -22.628 -15.732  0.00  0.00    +0.223 C 
ATOM      7  C   UNL     1      36.060 -22.085 -17.387  0.00  0.00    +0.140 C 
ATOM      8  C   UNL     1      35.453 -21.560 -18.523  0.00  0.00    +0.150 C 
ATOM      9  C   UNL     1      33.686 -23.010 -18.143  0.00  0.00    +0.253 C 
ATOM     10  N   UNL     1      36.082 -20.549 -19.271  0.00  0.00    -0.295 N 
ATOM     11  H   UNL     1      36.957 -20.277 -18.910  0.00  0.00    +0.154 HD
ENDROOT
BRANCH  10  14
ATOM     12 CL   UNL     1      34.510 -17.607 -24.162  0.00  0.00    -0.082 Cl
ATOM     13  F   UNL     1      37.764 -18.657 -20.427  0.00  0.00    -0.203 F 
ATOM     14  C   UNL     1      35.709 -19.847 -20.437  0.00  0.00    +0.077 C 
ATOM     15  C   UNL     1      36.574 -18.905 -20.992  0.00  0.00    +0.154 C 
ATOM     16  C   UNL     1      34.473 -20.097 -21.032  0.00  0.00    +0.018 C 
ATOM     17  C   UNL     1      36.203 -18.212 -22.144  0.00  0.00    +0.042 C 
ATOM     18  C   UNL     1      34.102 -19.404 -22.184  0.00  0.00    +0.013 C 
ATOM     19  C   UNL     1      34.967 -18.462 -22.741  0.00  0.00    +0.060 C 
ENDBRANCH  10  14
BRANCH   1  23
ATOM     20  O   UNL     1      34.475 -24.673 -14.555  0.00  0.00    -0.326 OA
ATOM     21  C   UNL     1      36.353 -24.024 -13.232  0.00  0.00    +0.187 C 
ATOM     22  C   UNL     1      35.070 -23.518 -12.599  0.00  0.00    +0.178 C 
ATOM     23  C   UNL     1      35.894 -24.425 -14.629  0.00  0.00    +0.225 C 
ATOM     24  C   UNL     1      34.025 -24.448 -13.199  0.00  0.00    +0.223 C 
BRANCH  24  28
ATOM     25  O   UNL     1      31.989 -24.023 -14.481  0.00  0.00    -0.421 OA
ATOM     26  N   UNL     1      31.854 -23.432 -12.328  0.00  0.00    -0.109 NA
ATOM     27  N   UNL     1      30.644 -23.136 -12.929  0.00  0.00    -0.112 NA
ATOM     28  C   UNL     1      32.599 -23.943 -13.272  0.00  0.00    +0.255 A 
ATOM     29  C   UNL     1      30.769 -23.498 -14.184  0.00  0.00    +0.225 A 
BRANCH  29  30
ATOM     30  C   UNL     1      29.797 -23.419 -15.282  0.00  0.00    +0.070 C 
ATOM     31  C   UNL     1      29.178 -24.819 -15.643  0.00  0.00    +0.009 C 
ATOM     32  C   UNL     1      30.427 -22.854 -16.608  0.00  0.00    +0.009 C 
ATOM     33  C   UNL     1      28.542 -22.496 -15.027  0.00  0.00    +0.009 C 
ENDBRANCH  29  30
ENDBRANCH  24  28
BRANCH  21  34
ATOM     34  O   UNL     1      36.811 -25.199 -12.567  0.00  0.00    -0.378 OA
ATOM     35  H   UNL     1      36.092 -25.566 -12.028  0.00  0.00    +0.211 HD
ENDBRANCH  21  34
BRANCH  22  36
ATOM     36  O   UNL     1      35.098 -23.589 -11.188  0.00  0.00    -0.379 OA
ATOM     37  H   UNL     1      36.010 -23.474 -10.876  0.00  0.00    +0.211 HD
ENDBRANCH  22  36
ENDBRANCH   1  23
TORSDOF 6
ENDMDL
MODEL 2
REMARK VINA RESULT:     -11.0      2.363      3.187
REMARK  Name = 9810927
REMARK  6 active torsions:
REMARK  status: ('A' for Active; 'I' for Inactive)
REMARK    1  A    between atoms: N_1  and  C_13
REMARK    2  A    between atoms: C_11  and  O_24
REMARK    3  A    between atoms: C_12  and  O_26
REMARK    4  A    between atoms: C_14  and  C_18
REMARK    5  A    between atoms: C_19  and  C_20
REMARK    6  A    between atoms: N_28  and  C_32
REMARK                            x       y       z     vdW  Elec       q    Type
REMARK                         _______ _______ _______ _____ _____    ______ ____
ROOT
ATOM      1  N   UNL     1      35.711 -22.039 -18.353  0.00  0.00    -0.247 N 
ATOM      2  N   UNL     1      36.808 -20.426 -19.436  0.00  0.00    -0.242 NA
ATOM      3  N   UNL     1      33.497 -21.749 -19.312  0.00  0.00    -0.228 NA
ATOM      4  N   UNL     1      33.464 -19.930 -20.938  0.00  0.00    -0.228 NA
ATOM      5  C   UNL     1      34.795 -21.441 -19.174  0.00  0.00    +0.152 C 
ATOM      6  C   UNL     1      36.904 -21.393 -18.547  0.00  0.00    +0.223 C 
ATOM      7  C   UNL     1      35.496 -20.445 -19.836  0.00  0.00    +0.140 C 
ATOM      8  C   UNL     1      34.782 -19.674 -20.748  0.00  0.00    +0.150 C 
ATOM      9  C   UNL     1      32.912 -20.937 -20.218  0.00  0.00    +0.253 C 
ATOM     10  N   UNL     1      35.412 -18.643 -21.465  0.00  0.00    -0.295 N 
ATOM     11  H   UNL     1      36.369 -18.542 -21.253  0.00  0.00    +0.154 HD
ENDROOT
BRANCH  10  14
ATOM     12 CL   UNL     1      33.465 -14.777 -25.505  0.00  0.00    -0.082 Cl
ATOM     13  F   UNL     1      34.508 -19.485 -23.959  0.00  0.00    -0.203 F 
ATOM     14  C   UNL     1      34.947 -17.723 -22.429  0.00  0.00    +0.077 C 
ATOM     15  C   UNL     1      34.501 -18.176 -23.670  0.00  0.00    +0.154 C 
ATOM     16  C   UNL     1      34.937 -16.359 -22.139  0.00  0.00    +0.018 C 
ATOM     17  C   UNL     1      34.042 -17.265 -24.621  0.00  0.00    +0.042 C 
ATOM     18  C   UNL     1      34.479 -15.448 -23.090  0.00  0.00    +0.013 C 
ATOM     19  C   UNL     1      34.031 -15.900 -24.331  0.00  0.00    +0.060 C 
ENDBRANCH  10  14
BRANCH   1  23
ATOM     20  O   UNL     1      34.091 -23.561 -17.506  0.00  0.00    -0.326 OA
ATOM     21  C   UNL     1      35.773 -22.829 -15.978  0.00  0.00    +0.187 C 
ATOM     22  C   UNL     1      34.395 -22.522 -15.422  0.00  0.00    +0.178 C 
ATOM     23  C   UNL     1      35.473 -23.156 -17.436  0.00  0.00    +0.225 C 
ATOM     24  C   UNL     1      33.513 -23.504 -16.181  0.00  0.00    +0.223 C 
BRANCH  24  28
ATOM     25  O   UNL     1      31.166 -23.902 -15.633  0.00  0.00    -0.421 OA
ATOM     26  N   UNL     1      31.498 -22.217 -17.066  0.00  0.00    -0.109 NA
ATOM     27  N   UNL     1      30.137 -22.330 -16.848  0.00  0.00    -0.112 NA
ATOM     28  C   UNL     1      32.049 -23.152 -16.338  0.00  0.00    +0.255 A 
ATOM     29  C   UNL     1      29.991 -23.326 -16.006  0.00  0.00    +0.225 A 
BRANCH  29  30
ATOM     30  C   UNL     1      28.764 -23.887 -15.424  0.00  0.00    +0.070 C 
ATOM     31  C   UNL     1      27.903 -24.677 -16.476  0.00  0.00    +0.009 C 
ATOM     32  C   UNL     1      27.824 -22.782 -14.816  0.00  0.00    +0.009 C 
ATOM     33  C   UNL     1      28.968 -24.914 -14.243  0.00  0.00    +0.009 C 
ENDBRANCH  29  30
ENDBRANCH  24  28
BRANCH  21  34
ATOM     34  O   UNL     1      36.310 -24.002 -15.368  0.00  0.00    -0.378 OA
ATOM     35  H   UNL     1      36.428 -23.846 -14.417  0.00  0.00    +0.211 HD
ENDBRANCH  21  34
BRANCH  22  36
ATOM     36  O   UNL     1      34.321 -22.711 -14.023  0.00  0.00    -0.379 OA
ATOM     37  H   UNL     1      33.440 -22.453 -13.709  0.00  0.00    +0.211 HD
ENDBRANCH  22  36
ENDBRANCH   1  23
TORSDOF 6
ENDMDL
MODEL 3
REMARK VINA RESULT:     -10.9     11.689     15.576
REMARK  Name = 9810927
REMARK  6 active torsions:
REMARK  status: ('A' for Active; 'I' for Inactive)
REMARK    1  A    between atoms: N_1  and  C_13
REMARK    2  A    between atoms: C_11  and  O_24
REMARK    3  A    between atoms: C_12  and  O_26
REMARK    4  A    between atoms: C_14  and  C_18
REMARK    5  A    between atoms: C_19  and  C_20
REMARK    6  A    between atoms: N_28  and  C_32
REMARK                            x       y       z     vdW  Elec       q    Type
REMARK                         _______ _______ _______ _____ _____    ______ ____
ROOT
ATOM      1  N   UNL     1      32.153 -10.139 -21.759  0.00  0.00    -0.247 N 
ATOM      2  N   UNL     1      33.246 -11.168 -23.410  0.00  0.00    -0.242 NA
ATOM      3  N   UNL     1      31.706 -12.039 -20.312  0.00  0.00    -0.228 NA
ATOM      4  N   UNL     1      32.601 -14.104 -21.255  0.00  0.00    -0.228 NA
ATOM      5  C   UNL     1      32.205 -11.462 -21.415  0.00  0.00    +0.152 C 
ATOM      6  C   UNL     1      32.791 -10.014 -22.966  0.00  0.00    +0.223 C 
ATOM      7  C   UNL     1      32.887 -12.080 -22.451  0.00  0.00    +0.140 C 
ATOM      8  C   UNL     1      33.080 -13.454 -22.344  0.00  0.00    +0.150 C 
ATOM      9  C   UNL     1      31.953 -13.367 -20.321  0.00  0.00    +0.253 C 
ATOM     10  N   UNL     1      33.762 -14.164 -23.348  0.00  0.00    -0.295 N 
ATOM     11  H   UNL     1      34.069 -13.597 -24.093  0.00  0.00    +0.154 HD
ENDROOT
BRANCH  10  14
ATOM     12 CL   UNL     1      35.163 -19.881 -23.981  0.00  0.00    -0.082 Cl
ATOM     13  F   UNL     1      32.878 -15.638 -25.537  0.00  0.00    -0.203 F 
ATOM     14  C   UNL     1      34.095 -15.526 -23.501  0.00  0.00    +0.077 C 
ATOM     15  C   UNL     1      33.637 -16.238 -24.609  0.00  0.00    +0.154 C 
ATOM     16  C   UNL     1      34.882 -16.160 -22.541  0.00  0.00    +0.018 C 
ATOM     17  C   UNL     1      33.967 -17.585 -24.758  0.00  0.00    +0.042 C 
ATOM     18  C   UNL     1      35.212 -17.507 -22.689  0.00  0.00    +0.013 C 
ATOM     19  C   UNL     1      34.756 -18.219 -23.797  0.00  0.00    +0.060 C 
ENDBRANCH  10  14
BRANCH   1  23
ATOM     20  O   UNL     1      31.239  -7.945 -21.865  0.00  0.00    -0.326 OA
ATOM     21  C   UNL     1      32.412  -8.520 -19.867  0.00  0.00    +0.187 C 
ATOM     22  C   UNL     1      33.021  -7.278 -20.489  0.00  0.00    +0.178 C 
ATOM     23  C   UNL     1      31.535  -9.055 -20.993  0.00  0.00    +0.225 C 
ATOM     24  C   UNL     1      31.880  -6.755 -21.351  0.00  0.00    +0.223 C 
BRANCH  24  28
ATOM     25  O   UNL     1      31.602  -4.692 -22.631  0.00  0.00    -0.421 OA
ATOM     26  N   UNL     1      33.091  -6.116 -23.503  0.00  0.00    -0.109 NA
ATOM     27  N   UNL     1      33.034  -5.004 -24.322  0.00  0.00    -0.112 NA
ATOM     28  C   UNL     1      32.241  -5.886 -22.537  0.00  0.00    +0.255 A 
ATOM     29  C   UNL     1      32.153  -4.200 -23.775  0.00  0.00    +0.225 A 
BRANCH  29  30
ATOM     30  C   UNL     1      31.695  -2.876 -24.214  0.00  0.00    +0.070 C 
ATOM     31  C   UNL     1      32.564  -2.296 -25.389  0.00  0.00    +0.009 C 
ATOM     32  C   UNL     1      31.735  -1.808 -23.060  0.00  0.00    +0.009 C 
ATOM     33  C   UNL     1      30.214  -2.803 -24.756  0.00  0.00    +0.009 C 
ENDBRANCH  29  30
ENDBRANCH  24  28
BRANCH  21  34
ATOM     34  O   UNL     1      31.560  -8.169 -18.777  0.00  0.00    -0.378 OA
ATOM     35  H   UNL     1      31.762  -7.264 -18.488  0.00  0.00    +0.211 HD
ENDBRANCH  21  34
BRANCH  22  36
ATOM     36  O   UNL     1      33.432  -6.333 -19.522  0.00  0.00    -0.379 OA
ATOM     37  H   UNL     1      32.736  -6.230 -18.853  0.00  0.00    +0.211 HD
ENDBRANCH  22  36
ENDBRANCH   1  23
TORSDOF 6
ENDMDL
MODEL 4
REMARK VINA RESULT:     -10.6      1.584      2.512
REMARK  Name = 9810927
REMARK  6 active torsions:
REMARK  status: ('A' for Active; 'I' for Inactive)
REMARK    1  A    between atoms: N_1  and  C_13
REMARK    2  A    between atoms: C_11  and  O_24
REMARK    3  A    between atoms: C_12  and  O_26
REMARK    4  A    between atoms: C_14  and  C_18
REMARK    5  A    between atoms: C_19  and  C_20
REMARK    6  A    between atoms: N_28  and  C_32
REMARK                            x       y       z     vdW  Elec       q    Type
REMARK                         _______ _______ _______ _____ _____    ______ ____
ROOT
ATOM      1  N   UNL     1      34.760 -22.692 -17.778  0.00  0.00    -0.247 N 
ATOM      2  N   UNL     1      33.276 -21.716 -19.127  0.00  0.00    -0.242 NA
ATOM      3  N   UNL     1      36.794 -21.607 -18.546  0.00  0.00    -0.228 NA
ATOM      4  N   UNL     1      36.331 -20.024 -20.345  0.00  0.00    -0.228 NA
ATOM      5  C   UNL     1      35.472 -21.831 -18.567  0.00  0.00    +0.152 C 
ATOM      6  C   UNL     1      33.447 -22.587 -18.154  0.00  0.00    +0.223 C 
ATOM      7  C   UNL     1      34.533 -21.236 -19.394  0.00  0.00    +0.140 C 
ATOM      8  C   UNL     1      35.005 -20.301 -20.309  0.00  0.00    +0.150 C 
ATOM      9  C   UNL     1      37.132 -20.686 -19.474  0.00  0.00    +0.253 C 
ATOM     10  N   UNL     1      34.123 -19.647 -21.188  0.00  0.00    -0.295 N 
ATOM     11  H   UNL     1      33.183 -19.919 -21.078  0.00  0.00    +0.154 HD
ENDROOT
BRANCH  10  14
ATOM     12 CL   UNL     1      34.930 -15.587 -25.420  0.00  0.00    -0.082 Cl
ATOM     13  F   UNL     1      35.120 -17.117 -20.597  0.00  0.00    -0.203 F 
ATOM     14  C   UNL     1      34.316 -18.678 -22.195  0.00  0.00    +0.077 C 
ATOM     15  C   UNL     1      34.817 -17.419 -21.867  0.00  0.00    +0.154 C 
ATOM     16  C   UNL     1      34.004 -18.982 -23.519  0.00  0.00    +0.018 C 
ATOM     17  C   UNL     1      35.007 -16.463 -22.864  0.00  0.00    +0.042 C 
ATOM     18  C   UNL     1      34.193 -18.026 -24.517  0.00  0.00    +0.013 C 
ATOM     19  C   UNL     1      34.696 -16.767 -24.190  0.00  0.00    +0.060 C 
ENDBRANCH  10  14
BRANCH   1  23
ATOM     20  O   UNL     1      34.206 -24.216 -16.037  0.00  0.00    -0.326 OA
ATOM     21  C   UNL     1      36.120 -22.835 -15.679  0.00  0.00    +0.187 C 
ATOM     22  C   UNL     1      35.125 -22.648 -14.550  0.00  0.00    +0.178 C 
ATOM     23  C   UNL     1      35.291 -23.567 -16.729  0.00  0.00    +0.225 C 
ATOM     24  C   UNL     1      34.308 -23.931 -14.622  0.00  0.00    +0.223 C 
BRANCH  24  28
ATOM     25  O   UNL     1      31.894 -23.773 -14.964  0.00  0.00    -0.421 OA
ATOM     26  N   UNL     1      32.503 -23.968 -12.820  0.00  0.00    -0.109 NA
ATOM     27  N   UNL     1      31.123 -23.888 -12.866  0.00  0.00    -0.112 NA
ATOM     28  C   UNL     1      32.901 -23.897 -14.063  0.00  0.00    +0.255 A 
ATOM     29  C   UNL     1      30.813 -23.774 -14.136  0.00  0.00    +0.225 A 
BRANCH  29  30
ATOM     30  C   UNL     1      29.494 -23.656 -14.770  0.00  0.00    +0.070 C 
ATOM     31  C   UNL     1      28.592 -24.921 -14.526  0.00  0.00    +0.009 C 
ATOM     32  C   UNL     1      29.586 -23.467 -16.329  0.00  0.00    +0.009 C 
ATOM     33  C   UNL     1      28.602 -22.447 -14.286  0.00  0.00    +0.009 C 
ENDBRANCH  29  30
ENDBRANCH  24  28
BRANCH  21  34
ATOM     34  O   UNL     1      37.180 -23.701 -15.277  0.00  0.00    -0.378 OA
ATOM     35  H   UNL     1      37.241 -23.707 -14.308  0.00  0.00    +0.211 HD
ENDBRANCH  21  34
BRANCH  22  36
ATOM     36  O   UNL     1      35.754 -22.489 -13.294  0.00  0.00    -0.379 OA
ATOM     37  H   UNL     1      35.467 -21.654 -12.892  0.00  0.00    +0.211 HD
ENDBRANCH  22  36
ENDBRANCH   1  23
TORSDOF 6
ENDMDL
MODEL 5
REMARK VINA RESULT:     -10.6      6.529      9.184
REMARK  Name = 9810927
REMARK  6 active torsions:
REMARK  status: ('A' for Active; 'I' for Inactive)
REMARK    1  A    between atoms: N_1  and  C_13
REMARK    2  A    between atoms: C_11  and  O_24
REMARK    3  A    between atoms: C_12  and  O_26
REMARK    4  A    between atoms: C_14  and  C_18
REMARK    5  A    between atoms: C_19  and  C_20
REMARK    6  A    between atoms: N_28  and  C_32
REMARK                            x       y       z     vdW  Elec       q    Type
REMARK                         _______ _______ _______ _____ _____    ______ ____
ROOT
ATOM      1  N   UNL     1      34.897 -16.467 -21.997  0.00  0.00    -0.247 N 
ATOM      2  N   UNL     1      34.184 -14.857 -20.627  0.00  0.00    -0.242 NA
ATOM      3  N   UNL     1      34.396 -15.438 -24.141  0.00  0.00    -0.228 NA
ATOM      4  N   UNL     1      33.398 -13.230 -23.855  0.00  0.00    -0.228 NA
ATOM      5  C   UNL     1      34.428 -15.464 -22.800  0.00  0.00    +0.152 C 
ATOM      6  C   UNL     1      34.727 -16.054 -20.701  0.00  0.00    +0.223 C 
ATOM      7  C   UNL     1      33.993 -14.476 -21.931  0.00  0.00    +0.140 C 
ATOM      8  C   UNL     1      33.462 -13.325 -22.504  0.00  0.00    +0.150 C 
ATOM      9  C   UNL     1      33.862 -14.278 -24.578  0.00  0.00    +0.253 C 
ATOM     10  N   UNL     1      32.996 -12.271 -21.699  0.00  0.00    -0.295 N 
ATOM     11  H   UNL     1      33.090 -12.441 -20.733  0.00  0.00    +0.154 HD
ENDROOT
BRANCH  10  14
ATOM     12 CL   UNL     1      30.594  -7.009 -22.961  0.00  0.00    -0.082 Cl
ATOM     13  F   UNL     1      30.566 -11.485 -20.592  0.00  0.00    -0.203 F 
ATOM     14  C   UNL     1      32.422 -11.017 -21.998  0.00  0.00    +0.077 C 
ATOM     15  C   UNL     1      31.203 -10.652 -21.428  0.00  0.00    +0.154 C 
ATOM     16  C   UNL     1      33.076 -10.144 -22.867  0.00  0.00    +0.018 C 
ATOM     17  C   UNL     1      30.638  -9.413 -21.726  0.00  0.00    +0.042 C 
ATOM     18  C   UNL     1      32.511  -8.905 -23.165  0.00  0.00    +0.013 C 
ATOM     19  C   UNL     1      31.292  -8.538 -22.594  0.00  0.00    +0.060 C 
ENDBRANCH  10  14
BRANCH   1  23
ATOM     20  O   UNL     1      34.557 -18.818 -22.126  0.00  0.00    -0.326 OA
ATOM     21  C   UNL     1      36.797 -18.080 -21.758  0.00  0.00    +0.187 C 
ATOM     22  C   UNL     1      36.374 -19.030 -20.653  0.00  0.00    +0.178 C 
ATOM     23  C   UNL     1      35.470 -17.744 -22.429  0.00  0.00    +0.225 C 
ATOM     24  C   UNL     1      35.235 -19.800 -21.308  0.00  0.00    +0.223 C 
BRANCH  24  28
ATOM     25  O   UNL     1      34.644 -21.370 -19.532  0.00  0.00    -0.421 OA
ATOM     26  N   UNL     1      32.917 -20.186 -20.317  0.00  0.00    -0.109 NA
ATOM     27  N   UNL     1      32.443 -21.028 -19.327  0.00  0.00    -0.112 NA
ATOM     28  C   UNL     1      34.199 -20.424 -20.397  0.00  0.00    +0.255 A 
ATOM     29  C   UNL     1      33.486 -21.699 -18.898  0.00  0.00    +0.225 A 
BRANCH  29  30
ATOM     30  C   UNL     1      33.571 -22.727 -17.853  0.00  0.00    +0.070 C 
ATOM     31  C   UNL     1      34.815 -22.529 -16.911  0.00  0.00    +0.009 C 
ATOM     32  C   UNL     1      33.684 -24.181 -18.442  0.00  0.00    +0.009 C 
ATOM     33  C   UNL     1      32.345 -22.807 -16.862  0.00  0.00    +0.009 C 
ENDBRANCH  29  30
ENDBRANCH  24  28
BRANCH  21  34
ATOM     34  O   UNL     1      37.613 -18.754 -22.714  0.00  0.00    -0.378 OA
ATOM     35  H   UNL     1      38.544 -18.525 -22.563  0.00  0.00    +0.211 HD
ENDBRANCH  21  34
BRANCH  22  36
ATOM     36  O   UNL     1      37.423 -19.882 -20.240  0.00  0.00    -0.379 OA
ATOM     37  H   UNL     1      38.080 -19.368 -19.744  0.00  0.00    +0.211 HD
ENDBRANCH  22  36
ENDBRANCH   1  23
TORSDOF 6
ENDMDL
MODEL 6
REMARK VINA RESULT:     -10.4      5.771     10.183
REMARK  Name = 9810927
REMARK  6 active torsions:
REMARK  status: ('A' for Active; 'I' for Inactive)
REMARK    1  A    between atoms: N_1  and  C_13
REMARK    2  A    between atoms: C_11  and  O_24
REMARK    3  A    between atoms: C_12  and  O_26
REMARK    4  A    between atoms: C_14  and  C_18
REMARK    5  A    between atoms: C_19  and  C_20
REMARK    6  A    between atoms: N_28  and  C_32
REMARK                            x       y       z     vdW  Elec       q    Type
REMARK                         _______ _______ _______ _____ _____    ______ ____
ROOT
ATOM      1  N   UNL     1      34.270 -20.211 -20.995  0.00  0.00    -0.247 N 
ATOM      2  N   UNL     1      32.319 -20.663 -20.013  0.00  0.00    -0.242 NA
ATOM      3  N   UNL     1      35.776 -21.357 -19.471  0.00  0.00    -0.228 NA
ATOM      4  N   UNL     1      34.552 -22.430 -17.653  0.00  0.00    -0.228 NA
ATOM      5  C   UNL     1      34.565 -20.963 -19.892  0.00  0.00    +0.152 C 
ATOM      6  C   UNL     1      32.909 -20.058 -21.023  0.00  0.00    +0.223 C 
ATOM      7  C   UNL     1      33.342 -21.233 -19.298  0.00  0.00    +0.140 C 
ATOM      8  C   UNL     1      33.363 -21.997 -18.136  0.00  0.00    +0.150 C 
ATOM      9  C   UNL     1      35.669 -22.087 -18.340  0.00  0.00    +0.253 C 
ATOM     10  N   UNL     1      32.169 -22.320 -17.468  0.00  0.00    -0.295 N 
ATOM     11  H   UNL     1      31.363 -21.958 -17.903  0.00  0.00    +0.154 HD
ENDROOT
BRANCH  10  14
ATOM     12 CL   UNL     1      31.030 -25.425 -12.558  0.00  0.00    -0.082 Cl
ATOM     13  F   UNL     1      29.558 -22.811 -16.637  0.00  0.00    -0.203 F 
ATOM     14  C   UNL     1      31.895 -23.060 -16.298  0.00  0.00    +0.077 C 
ATOM     15  C   UNL     1      30.576 -23.289 -15.908  0.00  0.00    +0.154 C 
ATOM     16  C   UNL     1      32.947 -23.561 -15.532  0.00  0.00    +0.018 C 
ATOM     17  C   UNL     1      30.308 -24.021 -14.751  0.00  0.00    +0.042 C 
ATOM     18  C   UNL     1      32.679 -24.292 -14.375  0.00  0.00    +0.013 C 
ATOM     19  C   UNL     1      31.361 -24.523 -13.985  0.00  0.00    +0.060 C 
ENDBRANCH  10  14
BRANCH   1  23
ATOM     20  O   UNL     1      35.500 -18.286 -21.660  0.00  0.00    -0.326 OA
ATOM     21  C   UNL     1      34.722 -19.713 -23.408  0.00  0.00    +0.187 C 
ATOM     22  C   UNL     1      34.211 -18.301 -23.623  0.00  0.00    +0.178 C 
ATOM     23  C   UNL     1      35.221 -19.666 -21.968  0.00  0.00    +0.225 C 
ATOM     24  C   UNL     1      35.204 -17.472 -22.818  0.00  0.00    +0.223 C 
BRANCH  24  28
ATOM     25  O   UNL     1      34.189 -15.289 -23.238  0.00  0.00    -0.421 OA
ATOM     26  N   UNL     1      34.795 -15.623 -21.111  0.00  0.00    -0.109 NA
ATOM     27  N   UNL     1      34.241 -14.358 -21.204  0.00  0.00    -0.112 NA
ATOM     28  C   UNL     1      34.741 -16.120 -22.318  0.00  0.00    +0.255 A 
ATOM     29  C   UNL     1      33.903 -14.208 -22.463  0.00  0.00    +0.225 A 
BRANCH  29  30
ATOM     30  C   UNL     1      33.271 -13.063 -23.131  0.00  0.00    +0.070 C 
ATOM     31  C   UNL     1      32.025 -12.516 -22.342  0.00  0.00    +0.009 C 
ATOM     32  C   UNL     1      32.764 -13.411 -24.579  0.00  0.00    +0.009 C 
ATOM     33  C   UNL     1      34.186 -11.793 -23.337  0.00  0.00    +0.009 C 
ENDBRANCH  29  30
ENDBRANCH  24  28
BRANCH  21  34
ATOM     34  O   UNL     1      35.842 -19.976 -24.251  0.00  0.00    -0.378 OA
ATOM     35  H   UNL     1      35.530 -20.314 -25.106  0.00  0.00    +0.211 HD
ENDBRANCH  21  34
BRANCH  22  36
ATOM     36  O   UNL     1      34.194 -17.933 -24.987  0.00  0.00    -0.379 OA
ATOM     37  H   UNL     1      34.895 -18.410 -25.460  0.00  0.00    +0.211 HD
ENDBRANCH  22  36
ENDBRANCH   1  23
TORSDOF 6
ENDMDL
MODEL 7
REMARK VINA RESULT:     -10.0      7.354     11.516
REMARK  Name = 9810927
REMARK  6 active torsions:
REMARK  status: ('A' for Active; 'I' for Inactive)
REMARK    1  A    between atoms: N_1  and  C_13
REMARK    2  A    between atoms: C_11  and  O_24
REMARK    3  A    between atoms: C_12  and  O_26
REMARK    4  A    between atoms: C_14  and  C_18
REMARK    5  A    between atoms: C_19  and  C_20
REMARK    6  A    between atoms: N_28  and  C_32
REMARK                            x       y       z     vdW  Elec       q    Type
REMARK                         _______ _______ _______ _____ _____    ______ ____
ROOT
ATOM      1  N   UNL     1      34.548 -16.849 -24.151  0.00  0.00    -0.247 N 
ATOM      2  N   UNL     1      34.161 -19.023 -23.836  0.00  0.00    -0.242 NA
ATOM      3  N   UNL     1      35.083 -16.189 -21.875  0.00  0.00    -0.228 NA
ATOM      4  N   UNL     1      34.967 -18.090 -20.349  0.00  0.00    -0.228 NA
ATOM      5  C   UNL     1      34.736 -17.079 -22.817  0.00  0.00    +0.152 C 
ATOM      6  C   UNL     1      34.203 -18.047 -24.719  0.00  0.00    +0.223 C 
ATOM      7  C   UNL     1      34.492 -18.432 -22.643  0.00  0.00    +0.140 C 
ATOM      8  C   UNL     1      34.619 -18.933 -21.351  0.00  0.00    +0.150 C 
ATOM      9  C   UNL     1      35.174 -16.789 -20.669  0.00  0.00    +0.253 C 
ATOM     10  N   UNL     1      34.391 -20.294 -21.083  0.00  0.00    -0.295 N 
ATOM     11  H   UNL     1      34.146 -20.817 -21.880  0.00  0.00    +0.154 HD
ENDROOT
BRANCH  10  14
ATOM     12 CL   UNL     1      34.606 -23.508 -16.116  0.00  0.00    -0.082 Cl
ATOM     13  F   UNL     1      36.807 -20.837 -19.812  0.00  0.00    -0.203 F 
ATOM     14  C   UNL     1      34.445 -21.060 -19.899  0.00  0.00    +0.077 C 
ATOM     15  C   UNL     1      35.670 -21.315 -19.286  0.00  0.00    +0.154 C 
ATOM     16  C   UNL     1      33.268 -21.562 -19.344  0.00  0.00    +0.018 C 
ATOM     17  C   UNL     1      35.721 -22.072 -18.116  0.00  0.00    +0.042 C 
ATOM     18  C   UNL     1      33.318 -22.320 -18.174  0.00  0.00    +0.013 C 
ATOM     19  C   UNL     1      34.544 -22.574 -17.559  0.00  0.00    +0.060 C 
ENDBRANCH  10  14
BRANCH   1  23
ATOM     20  O   UNL     1      34.631 -14.484 -23.903  0.00  0.00    -0.326 OA
ATOM     21  C   UNL     1      33.595 -15.315 -25.886  0.00  0.00    +0.187 C 
ATOM     22  C   UNL     1      32.633 -14.415 -25.133  0.00  0.00    +0.178 C 
ATOM     23  C   UNL     1      34.685 -15.569 -24.851  0.00  0.00    +0.225 C 
ATOM     24  C   UNL     1      33.575 -13.573 -24.284  0.00  0.00    +0.223 C 
BRANCH  24  28
ATOM     25  O   UNL     1      32.772 -11.633 -23.035  0.00  0.00    -0.421 OA
ATOM     26  N   UNL     1      32.733 -13.546 -21.877  0.00  0.00    -0.109 NA
ATOM     27  N   UNL     1      32.257 -12.540 -21.056  0.00  0.00    -0.112 NA
ATOM     28  C   UNL     1      33.017 -12.967 -23.013  0.00  0.00    +0.255 A 
ATOM     29  C   UNL     1      32.298 -11.442 -21.773  0.00  0.00    +0.225 A 
BRANCH  29  30
ATOM     30  C   UNL     1      31.910 -10.073 -21.411  0.00  0.00    +0.070 C 
ATOM     31  C   UNL     1      31.935  -9.829 -19.857  0.00  0.00    +0.009 C 
ATOM     32  C   UNL     1      30.460  -9.707 -21.897  0.00  0.00    +0.009 C 
ATOM     33  C   UNL     1      32.816  -8.921 -21.997  0.00  0.00    +0.009 C 
ENDBRANCH  29  30
ENDBRANCH  24  28
BRANCH  21  34
ATOM     34  O   UNL     1      34.185 -14.615 -26.980  0.00  0.00    -0.378 OA
ATOM     35  H   UNL     1      35.145 -14.560 -26.848  0.00  0.00    +0.211 HD
ENDBRANCH  21  34
BRANCH  22  36
ATOM     36  O   UNL     1      31.844 -13.622 -25.998  0.00  0.00    -0.379 OA
ATOM     37  H   UNL     1      30.916 -13.901 -25.935  0.00  0.00    +0.211 HD
ENDBRANCH  22  36
ENDBRANCH   1  23
TORSDOF 6
ENDMDL
MODEL 8
REMARK VINA RESULT:     -10.0     11.601     15.971
REMARK  Name = 9810927
REMARK  6 active torsions:
REMARK  status: ('A' for Active; 'I' for Inactive)
REMARK    1  A    between atoms: N_1  and  C_13
REMARK    2  A    between atoms: C_11  and  O_24
REMARK    3  A    between atoms: C_12  and  O_26
REMARK    4  A    between atoms: C_14  and  C_18
REMARK    5  A    between atoms: C_19  and  C_20
REMARK    6  A    between atoms: N_28  and  C_32
REMARK                            x       y       z     vdW  Elec       q    Type
REMARK                         _______ _______ _______ _____ _____    ______ ____
ROOT
ATOM      1  N   UNL     1      32.619 -10.107 -22.819  0.00  0.00    -0.247 N 
ATOM      2  N   UNL     1      34.057 -11.506 -23.794  0.00  0.00    -0.242 NA
ATOM      3  N   UNL     1      31.693 -11.581 -21.123  0.00  0.00    -0.228 NA
ATOM      4  N   UNL     1      32.694 -13.804 -21.237  0.00  0.00    -0.228 NA
ATOM      5  C   UNL     1      32.503 -11.297 -22.155  0.00  0.00    +0.152 C 
ATOM      6  C   UNL     1      33.564 -10.285 -23.795  0.00  0.00    +0.223 C 
ATOM      7  C   UNL     1      33.404 -12.149 -22.774  0.00  0.00    +0.140 C 
ATOM      8  C   UNL     1      33.484 -13.446 -22.278  0.00  0.00    +0.150 C 
ATOM      9  C   UNL     1      31.860 -12.863 -20.732  0.00  0.00    +0.253 C 
ATOM     10  N   UNL     1      34.371 -14.378 -22.845  0.00  0.00    -0.295 N 
ATOM     11  H   UNL     1      34.898 -14.015 -23.594  0.00  0.00    +0.154 HD
ENDROOT
BRANCH  10  14
ATOM     12 CL   UNL     1      35.569 -20.044 -21.618  0.00  0.00    -0.082 Cl
ATOM     13  F   UNL     1      34.506 -16.298 -24.855  0.00  0.00    -0.203 F 
ATOM     14  C   UNL     1      34.656 -15.729 -22.555  0.00  0.00    +0.077 C 
ATOM     15  C   UNL     1      34.717 -16.668 -23.584  0.00  0.00    +0.154 C 
ATOM     16  C   UNL     1      34.877 -16.124 -21.236  0.00  0.00    +0.018 C 
ATOM     17  C   UNL     1      34.999 -18.002 -23.295  0.00  0.00    +0.042 C 
ATOM     18  C   UNL     1      35.159 -17.458 -20.946  0.00  0.00    +0.013 C 
ATOM     19  C   UNL     1      35.221 -18.398 -21.975  0.00  0.00    +0.060 C 
ENDBRANCH  10  14
BRANCH   1  23
ATOM     20  O   UNL     1      32.116  -7.918 -23.603  0.00  0.00    -0.326 OA
ATOM     21  C   UNL     1      32.263  -8.199 -21.237  0.00  0.00    +0.187 C 
ATOM     22  C   UNL     1      33.227  -7.121 -21.694  0.00  0.00    +0.178 C 
ATOM     23  C   UNL     1      31.878  -8.873 -22.549  0.00  0.00    +0.225 C 
ATOM     24  C   UNL     1      32.627  -6.693 -23.026  0.00  0.00    +0.223 C 
BRANCH  24  28
ATOM     25  O   UNL     1      33.012  -5.142 -24.874  0.00  0.00    -0.421 OA
ATOM     26  N   UNL     1      34.829  -6.287 -24.247  0.00  0.00    -0.109 NA
ATOM     27  N   UNL     1      35.188  -5.455 -25.292  0.00  0.00    -0.112 NA
ATOM     28  C   UNL     1      33.557  -6.066 -24.043  0.00  0.00    +0.255 A 
ATOM     29  C   UNL     1      34.097  -4.807 -25.625  0.00  0.00    +0.225 A 
BRANCH  29  30
ATOM     30  C   UNL     1      33.892  -3.793 -26.668  0.00  0.00    +0.070 C 
ATOM     31  C   UNL     1      32.518  -3.043 -26.520  0.00  0.00    +0.009 C 
ATOM     32  C   UNL     1      33.913  -4.405 -28.117  0.00  0.00    +0.009 C 
ATOM     33  C   UNL     1      34.962  -2.634 -26.723  0.00  0.00    +0.009 C 
ENDBRANCH  29  30
ENDBRANCH  24  28
BRANCH  21  34
ATOM     34  O   UNL     1      31.085  -7.617 -20.681  0.00  0.00    -0.378 OA
ATOM     35  H   UNL     1      30.329  -7.802 -21.261  0.00  0.00    +0.211 HD
ENDBRANCH  21  34
BRANCH  22  36
ATOM     36  O   UNL     1      33.311  -6.046 -20.779  0.00  0.00    -0.379 OA
ATOM     37  H   UNL     1      34.053  -6.195 -20.172  0.00  0.00    +0.211 HD
ENDBRANCH  22  36
ENDBRANCH   1  23
TORSDOF 6
ENDMDL
MODEL 9
REMARK VINA RESULT:      -9.9     11.795     15.863
REMARK  Name = 9810927
REMARK  6 active torsions:
REMARK  status: ('A' for Active; 'I' for Inactive)
REMARK    1  A    between atoms: N_1  and  C_13
REMARK    2  A    between atoms: C_11  and  O_24
REMARK    3  A    between atoms: C_12  and  O_26
REMARK    4  A    between atoms: C_14  and  C_18
REMARK    5  A    between atoms: C_19  and  C_20
REMARK    6  A    between atoms: N_28  and  C_32
REMARK                            x       y       z     vdW  Elec       q    Type
REMARK                         _______ _______ _______ _____ _____    ______ ____
ROOT
ATOM      1  N   UNL     1      32.039  -9.497 -21.834  0.00  0.00    -0.247 N 
ATOM      2  N   UNL     1      33.220 -10.513 -23.431  0.00  0.00    -0.242 NA
ATOM      3  N   UNL     1      31.484 -11.413 -20.448  0.00  0.00    -0.228 NA
ATOM      4  N   UNL     1      32.414 -13.474 -21.367  0.00  0.00    -0.228 NA
ATOM      5  C   UNL     1      32.056 -10.825 -21.509  0.00  0.00    +0.152 C 
ATOM      6  C   UNL     1      32.751  -9.361 -22.997  0.00  0.00    +0.223 C 
ATOM      7  C   UNL     1      32.794 -11.436 -22.510  0.00  0.00    +0.140 C 
ATOM      8  C   UNL     1      32.965 -12.813 -22.413  0.00  0.00    +0.150 C 
ATOM      9  C   UNL     1      31.717 -12.744 -20.463  0.00  0.00    +0.253 C 
ATOM     10  N   UNL     1      33.700 -13.515 -23.385  0.00  0.00    -0.295 N 
ATOM     11  H   UNL     1      34.058 -12.941 -24.100  0.00  0.00    +0.154 HD
ENDROOT
BRANCH  10  14
ATOM     12 CL   UNL     1      35.077 -19.238 -24.021  0.00  0.00    -0.082 Cl
ATOM     13  F   UNL     1      32.983 -14.933 -25.670  0.00  0.00    -0.203 F 
ATOM     14  C   UNL     1      34.028 -14.879 -23.538  0.00  0.00    +0.077 C 
ATOM     15  C   UNL     1      33.654 -15.562 -24.695  0.00  0.00    +0.154 C 
ATOM     16  C   UNL     1      34.725 -15.543 -22.530  0.00  0.00    +0.018 C 
ATOM     17  C   UNL     1      33.978 -16.910 -24.844  0.00  0.00    +0.042 C 
ATOM     18  C   UNL     1      35.049 -16.891 -22.679  0.00  0.00    +0.013 C 
ATOM     19  C   UNL     1      34.677 -17.575 -23.836  0.00  0.00    +0.060 C 
ENDBRANCH  10  14
BRANCH   1  23
ATOM     20  O   UNL     1      30.956  -7.385 -22.001  0.00  0.00    -0.326 OA
ATOM     21  C   UNL     1      32.285  -7.754 -20.053  0.00  0.00    +0.187 C 
ATOM     22  C   UNL     1      32.760  -6.510 -20.779  0.00  0.00    +0.178 C 
ATOM     23  C   UNL     1      31.386  -8.417 -21.090  0.00  0.00    +0.225 C 
ATOM     24  C   UNL     1      31.533  -6.123 -21.594  0.00  0.00    +0.223 C 
BRANCH  24  28
ATOM     25  O   UNL     1      32.858  -5.603 -23.580  0.00  0.00    -0.421 OA
ATOM     26  N   UNL     1      31.037  -4.327 -23.336  0.00  0.00    -0.109 NA
ATOM     27  N   UNL     1      31.688  -3.926 -24.489  0.00  0.00    -0.112 NA
ATOM     28  C   UNL     1      31.757  -5.301 -22.846  0.00  0.00    +0.255 A 
ATOM     29  C   UNL     1      32.744  -4.698 -24.591  0.00  0.00    +0.225 A 
BRANCH  29  30
ATOM     30  C   UNL     1      33.790  -4.721 -25.622  0.00  0.00    +0.070 C 
ATOM     31  C   UNL     1      35.033  -5.588 -25.201  0.00  0.00    +0.009 C 
ATOM     32  C   UNL     1      34.339  -3.286 -25.957  0.00  0.00    +0.009 C 
ATOM     33  C   UNL     1      33.364  -5.310 -27.023  0.00  0.00    +0.009 C 
ENDBRANCH  29  30
ENDBRANCH  24  28
BRANCH  21  34
ATOM     34  O   UNL     1      31.475  -7.403 -18.932  0.00  0.00    -0.378 OA
ATOM     35  H   UNL     1      31.959  -7.591 -18.112  0.00  0.00    +0.211 HD
ENDBRANCH  21  34
BRANCH  22  36
ATOM     36  O   UNL     1      33.154  -5.482 -19.892  0.00  0.00    -0.379 OA
ATOM     37  H   UNL     1      33.245  -5.845 -18.996  0.00  0.00    +0.211 HD
ENDBRANCH  22  36
ENDBRANCH   1  23
TORSDOF 6
ENDMDL
