MODEL 1
REMARK VINA RESULT:     -11.2      0.000      0.000
REMARK  Name = 5288250
REMARK  9 active torsions:
REMARK  status: ('A' for Active; 'I' for Inactive)
REMARK    1  A    between atoms: C_1  and  N_3
REMARK    2  A    between atoms: C_1  and  C_20
REMARK    3  A    between atoms: C_1  and  C_23
REMARK    4  A    between atoms: C_4  and  C_6
REMARK    5  A    between atoms: C_6  and  C_10
REMARK    6  A    between atoms: C_20  and  O_21
REMARK    7  A    between atoms: C_23  and  C_24
REMARK    8  A    between atoms: C_29  and  C_30
REMARK    9  A    between atoms: C_31  and  C_32
REMARK                            x       y       z     vdW  Elec       q    Type
REMARK                         _______ _______ _______ _____ _____    ______ ____
ROOT
ATOM      1  C   UNL     1      35.298 -21.975 -17.954  0.00  0.00    +0.176 C 
ENDROOT
BRANCH   1   3
ATOM      2  O   UNL     1      37.527 -20.457 -16.902  0.00  0.00    -0.275 OA
ATOM      3  N   UNL     1      36.267 -22.409 -16.973  0.00  0.00    -0.297 N 
ATOM      4  C   UNL     1      37.306 -21.605 -16.528  0.00  0.00    +0.223 C 
ATOM      5  H   UNL     1      36.184 -23.317 -16.603  0.00  0.00    +0.150 HD
BRANCH   4   6
ATOM      6  C   UNL     1      38.154 -22.326 -15.500  0.00  0.00    +0.087 C 
BRANCH   6  10
ATOM      7  N   UNL     1      36.134 -24.314 -12.961  0.00  0.00    -0.282 N 
ATOM      8  N   UNL     1      34.022 -23.572 -13.401  0.00  0.00    -0.331 N 
ATOM      9  N   UNL     1      34.387 -24.982 -11.559  0.00  0.00    -0.273 NA
ATOM     10  C   UNL     1      37.430 -23.524 -14.889  0.00  0.00    +0.029 C 
ATOM     11  C   UNL     1      38.396 -24.700 -14.687  0.00  0.00    +0.004 C 
ATOM     12  C   UNL     1      36.763 -23.139 -13.561  0.00  0.00    +0.094 C 
ATOM     13  C   UNL     1      37.691 -25.876 -14.013  0.00  0.00    +0.022 C 
ATOM     14  C   UNL     1      37.020 -25.448 -12.711  0.00  0.00    +0.093 C 
ATOM     15  C   UNL     1      34.832 -24.322 -12.590  0.00  0.00    +0.174 C 
ATOM     16  H   UNL     1      34.403 -23.090 -14.169  0.00  0.00    +0.145 HD
ATOM     17  H   UNL     1      33.056 -23.515 -13.213  0.00  0.00    +0.145 HD
ATOM     18  H   UNL     1      35.010 -25.508 -11.006  0.00  0.00    +0.189 HD
ENDBRANCH   6  10
ENDBRANCH   4   6
ENDBRANCH   1   3
BRANCH   1  20
ATOM     19  O   UNL     1      33.453 -23.183 -18.940  0.00  0.00    -0.248 OA
ATOM     20  C   UNL     1      34.025 -22.809 -17.921  0.00  0.00    +0.335 C 
BRANCH  20  21
ATOM     21  O   UNL     1      33.607 -23.061 -16.649  0.00  0.00    -0.443 OA
ATOM     22  C   UNL     1      32.190 -23.129 -16.463  0.00  0.00    +0.256 C 
ENDBRANCH  20  21
ENDBRANCH   1  20
BRANCH   1  23
ATOM     23  C   UNL     1      35.914 -21.919 -19.360  0.00  0.00    +0.057 C 
BRANCH  23  24
ATOM     24  C   UNL     1      35.594 -20.663 -20.140  0.00  0.00    -0.020 C 
ATOM     25  C   UNL     1      36.602 -19.741 -20.422  0.00  0.00    -0.004 C 
ATOM     26  C   UNL     1      34.291 -20.428 -20.579  0.00  0.00    -0.004 C 
ATOM     27  C   UNL     1      36.307 -18.583 -21.141  0.00  0.00    +0.008 C 
ATOM     28  C   UNL     1      33.996 -19.271 -21.299  0.00  0.00    +0.008 C 
ATOM     29  C   UNL     1      35.003 -18.348 -21.580  0.00  0.00    +0.042 C 
BRANCH  29  30
ATOM     30  C   UNL     1      34.701 -17.161 -22.316  0.00  0.00    -0.060 C 
ATOM     31  C   UNL     1      34.445 -16.165 -22.935  0.00  0.00    -0.060 C 
BRANCH  31  32
ATOM     32  C   UNL     1      34.141 -14.976 -23.672  0.00  0.00    +0.042 C 
ATOM     33  C   UNL     1      33.722 -15.067 -24.999  0.00  0.00    +0.008 C 
ATOM     34  C   UNL     1      34.266 -13.727 -23.063  0.00  0.00    +0.008 C 
ATOM     35  C   UNL     1      33.425 -13.909 -25.718  0.00  0.00    +0.001 C 
ATOM     36  C   UNL     1      33.969 -12.569 -23.782  0.00  0.00    +0.001 C 
ATOM     37  C   UNL     1      33.550 -12.660 -25.110  0.00  0.00    +0.000 C 
ENDBRANCH  31  32
ENDBRANCH  29  30
ENDBRANCH  23  24
ENDBRANCH   1  23
TORSDOF 9
ENDMDL
MODEL 2
REMARK VINA RESULT:     -11.0      2.866      5.500
REMARK  Name = 5288250
REMARK  9 active torsions:
REMARK  status: ('A' for Active; 'I' for Inactive)
REMARK    1  A    between atoms: C_1  and  N_3
REMARK    2  A    between atoms: C_1  and  C_20
REMARK    3  A    between atoms: C_1  and  C_23
REMARK    4  A    between atoms: C_4  and  C_6
REMARK    5  A    between atoms: C_6  and  C_10
REMARK    6  A    between atoms: C_20  and  O_21
REMARK    7  A    between atoms: C_23  and  C_24
REMARK    8  A    between atoms: C_29  and  C_30
REMARK    9  A    between atoms: C_31  and  C_32
REMARK                            x       y       z     vdW  Elec       q    Type
REMARK                         _______ _______ _______ _____ _____    ______ ____
ROOT
ATOM      1  C   UNL     1      35.498 -24.869 -15.270  0.00  0.00    +0.176 C 
ENDROOT
BRANCH   1   3
ATOM      2  O   UNL     1      35.250 -23.506 -12.728  0.00  0.00    -0.275 OA
ATOM      3  N   UNL     1      34.298 -24.694 -14.484  0.00  0.00    -0.297 N 
ATOM      4  C   UNL     1      34.277 -24.021 -13.271  0.00  0.00    +0.223 C 
ATOM      5  H   UNL     1      33.454 -25.069 -14.828  0.00  0.00    +0.150 HD
BRANCH   4   6
ATOM      6  C   UNL     1      32.882 -23.995 -12.683  0.00  0.00    +0.087 C 
BRANCH   6  10
ATOM      7  N   UNL     1      29.993 -23.395 -15.087  0.00  0.00    -0.282 N 
ATOM      8  N   UNL     1      31.083 -22.468 -16.863  0.00  0.00    -0.331 N 
ATOM      9  N   UNL     1      28.737 -22.554 -16.869  0.00  0.00    -0.273 NA
ATOM     10  C   UNL     1      31.810 -24.320 -13.721  0.00  0.00    +0.029 C 
ATOM     11  C   UNL     1      30.830 -25.373 -13.181  0.00  0.00    +0.004 C 
ATOM     12  C   UNL     1      31.057 -23.051 -14.145  0.00  0.00    +0.094 C 
ATOM     13  C   UNL     1      29.718 -25.651 -14.190  0.00  0.00    +0.022 C 
ATOM     14  C   UNL     1      29.012 -24.364 -14.605  0.00  0.00    +0.093 C 
ATOM     15  C   UNL     1      29.881 -22.797 -16.295  0.00  0.00    +0.174 C 
ATOM     16  H   UNL     1      31.923 -22.671 -16.392  0.00  0.00    +0.145 HD
ATOM     17  H   UNL     1      31.108 -22.028 -17.744  0.00  0.00    +0.145 HD
ATOM     18  H   UNL     1      27.898 -22.809 -16.420  0.00  0.00    +0.189 HD
ENDBRANCH   6  10
ENDBRANCH   4   6
ENDBRANCH   1   3
BRANCH   1  20
ATOM     19  O   UNL     1      36.142 -27.194 -15.131  0.00  0.00    -0.248 OA
ATOM     20  C   UNL     1      36.346 -26.035 -14.781  0.00  0.00    +0.335 C 
BRANCH  20  21
ATOM     21  O   UNL     1      37.321 -25.636 -13.917  0.00  0.00    -0.443 OA
ATOM     22  C   UNL     1      37.326 -26.289 -12.643  0.00  0.00    +0.256 C 
ENDBRANCH  20  21
ENDBRANCH   1  20
BRANCH   1  23
ATOM     23  C   UNL     1      36.306 -23.565 -15.354  0.00  0.00    +0.057 C 
BRANCH  23  24
ATOM     24  C   UNL     1      36.038 -22.735 -16.589  0.00  0.00    -0.020 C 
ATOM     25  C   UNL     1      37.035 -21.908 -17.104  0.00  0.00    -0.004 C 
ATOM     26  C   UNL     1      34.792 -22.797 -17.214  0.00  0.00    -0.004 C 
ATOM     27  C   UNL     1      36.788 -21.142 -18.243  0.00  0.00    +0.008 C 
ATOM     28  C   UNL     1      34.544 -22.032 -18.354  0.00  0.00    +0.008 C 
ATOM     29  C   UNL     1      35.542 -21.204 -18.868  0.00  0.00    +0.042 C 
BRANCH  29  30
ATOM     30  C   UNL     1      35.289 -20.419 -20.035  0.00  0.00    -0.060 C 
ATOM     31  C   UNL     1      35.077 -19.759 -21.016  0.00  0.00    -0.060 C 
BRANCH  31  32
ATOM     32  C   UNL     1      34.824 -18.974 -22.185  0.00  0.00    +0.042 C 
ATOM     33  C   UNL     1      35.195 -17.630 -22.215  0.00  0.00    +0.008 C 
ATOM     34  C   UNL     1      34.205 -19.552 -23.293  0.00  0.00    +0.008 C 
ATOM     35  C   UNL     1      34.949 -16.863 -23.354  0.00  0.00    +0.001 C 
ATOM     36  C   UNL     1      33.958 -18.786 -24.432  0.00  0.00    +0.001 C 
ATOM     37  C   UNL     1      34.330 -17.441 -24.462  0.00  0.00    +0.000 C 
ENDBRANCH  31  32
ENDBRANCH  29  30
ENDBRANCH  23  24
ENDBRANCH   1  23
TORSDOF 9
ENDMDL
MODEL 3
REMARK VINA RESULT:     -11.0      1.652      2.597
REMARK  Name = 5288250
REMARK  9 active torsions:
REMARK  status: ('A' for Active; 'I' for Inactive)
REMARK    1  A    between atoms: C_1  and  N_3
REMARK    2  A    between atoms: C_1  and  C_20
REMARK    3  A    between atoms: C_1  and  C_23
REMARK    4  A    between atoms: C_4  and  C_6
REMARK    5  A    between atoms: C_6  and  C_10
REMARK    6  A    between atoms: C_20  and  O_21
REMARK    7  A    between atoms: C_23  and  C_24
REMARK    8  A    between atoms: C_29  and  C_30
REMARK    9  A    between atoms: C_31  and  C_32
REMARK                            x       y       z     vdW  Elec       q    Type
REMARK                         _______ _______ _______ _____ _____    ______ ____
ROOT
ATOM      1  C   UNL     1      34.184 -23.023 -15.961  0.00  0.00    +0.176 C 
ENDROOT
BRANCH   1   3
ATOM      2  O   UNL     1      36.675 -21.568 -16.191  0.00  0.00    -0.275 OA
ATOM      3  N   UNL     1      35.481 -23.428 -15.471  0.00  0.00    -0.297 N 
ATOM      4  C   UNL     1      36.625 -22.658 -15.629  0.00  0.00    +0.223 C 
ATOM      5  H   UNL     1      35.557 -24.289 -15.001  0.00  0.00    +0.150 HD
BRANCH   4   6
ATOM      6  C   UNL     1      37.830 -23.335 -15.011  0.00  0.00    +0.087 C 
BRANCH   6  10
ATOM      7  N   UNL     1      36.792 -24.287 -11.476  0.00  0.00    -0.282 N 
ATOM      8  N   UNL     1      34.557 -23.839 -11.537  0.00  0.00    -0.331 N 
ATOM      9  N   UNL     1      35.556 -24.438  -9.498  0.00  0.00    -0.273 NA
ATOM     10  C   UNL     1      37.451 -24.238 -13.839  0.00  0.00    +0.029 C 
ATOM     11  C   UNL     1      38.589 -25.217 -13.514  0.00  0.00    +0.004 C 
ATOM     12  C   UNL     1      37.087 -23.403 -12.602  0.00  0.00    +0.094 C 
ATOM     13  C   UNL     1      38.239 -26.075 -12.300  0.00  0.00    +0.022 C 
ATOM     14  C   UNL     1      37.860 -25.212 -11.101  0.00  0.00    +0.093 C 
ATOM     15  C   UNL     1      35.637 -24.200 -10.776  0.00  0.00    +0.174 C 
ATOM     16  H   UNL     1      34.666 -23.669 -12.500  0.00  0.00    +0.145 HD
ATOM     17  H   UNL     1      33.669 -23.749 -11.119  0.00  0.00    +0.145 HD
ATOM     18  H   UNL     1      36.362 -24.694  -8.993  0.00  0.00    +0.189 HD
ENDBRANCH   6  10
ENDBRANCH   4   6
ENDBRANCH   1   3
BRANCH   1  20
ATOM     19  O   UNL     1      33.235 -24.176 -14.061  0.00  0.00    -0.248 OA
ATOM     20  C   UNL     1      33.054 -23.451 -15.035  0.00  0.00    +0.335 C 
BRANCH  20  21
ATOM     21  O   UNL     1      31.848 -22.953 -15.429  0.00  0.00    -0.443 OA
ATOM     22  C   UNL     1      30.741 -23.854 -15.329  0.00  0.00    +0.256 C 
ENDBRANCH  20  21
ENDBRANCH   1  20
BRANCH   1  23
ATOM     23  C   UNL     1      33.958 -23.501 -17.403  0.00  0.00    +0.057 C 
BRANCH  23  24
ATOM     24  C   UNL     1      34.046 -22.412 -18.450  0.00  0.00    -0.020 C 
ATOM     25  C   UNL     1      35.281 -22.070 -18.999  0.00  0.00    -0.004 C 
ATOM     26  C   UNL     1      32.890 -21.752 -18.867  0.00  0.00    -0.004 C 
ATOM     27  C   UNL     1      35.361 -21.066 -19.964  0.00  0.00    +0.008 C 
ATOM     28  C   UNL     1      32.970 -20.749 -19.833  0.00  0.00    +0.008 C 
ATOM     29  C   UNL     1      34.206 -20.406 -20.381  0.00  0.00    +0.042 C 
BRANCH  29  30
ATOM     30  C   UNL     1      34.289 -19.377 -21.369  0.00  0.00    -0.060 C 
ATOM     31  C   UNL     1      34.359 -18.511 -22.199  0.00  0.00    -0.060 C 
BRANCH  31  32
ATOM     32  C   UNL     1      34.443 -17.481 -23.188  0.00  0.00    +0.042 C 
ATOM     33  C   UNL     1      34.939 -16.224 -22.845  0.00  0.00    +0.008 C 
ATOM     34  C   UNL     1      34.028 -17.734 -24.496  0.00  0.00    +0.008 C 
ATOM     35  C   UNL     1      35.021 -15.219 -23.809  0.00  0.00    +0.001 C 
ATOM     36  C   UNL     1      34.110 -16.729 -25.460  0.00  0.00    +0.001 C 
ATOM     37  C   UNL     1      34.607 -15.472 -25.116  0.00  0.00    +0.000 C 
ENDBRANCH  31  32
ENDBRANCH  29  30
ENDBRANCH  23  24
ENDBRANCH   1  23
TORSDOF 9
ENDMDL
MODEL 4
REMARK VINA RESULT:     -10.7      2.684      4.360
REMARK  Name = 5288250
REMARK  9 active torsions:
REMARK  status: ('A' for Active; 'I' for Inactive)
REMARK    1  A    between atoms: C_1  and  N_3
REMARK    2  A    between atoms: C_1  and  C_20
REMARK    3  A    between atoms: C_1  and  C_23
REMARK    4  A    between atoms: C_4  and  C_6
REMARK    5  A    between atoms: C_6  and  C_10
REMARK    6  A    between atoms: C_20  and  O_21
REMARK    7  A    between atoms: C_23  and  C_24
REMARK    8  A    between atoms: C_29  and  C_30
REMARK    9  A    between atoms: C_31  and  C_32
REMARK                            x       y       z     vdW  Elec       q    Type
REMARK                         _______ _______ _______ _____ _____    ______ ____
ROOT
ATOM      1  C   UNL     1      32.781 -23.001 -15.008  0.00  0.00    +0.176 C 
ENDROOT
BRANCH   1   3
ATOM      2  O   UNL     1      32.587 -25.444 -13.468  0.00  0.00    -0.275 OA
ATOM      3  N   UNL     1      33.520 -23.344 -13.815  0.00  0.00    -0.297 N 
ATOM      4  C   UNL     1      33.358 -24.546 -13.142  0.00  0.00    +0.223 C 
ATOM      5  H   UNL     1      34.170 -22.693 -13.463  0.00  0.00    +0.150 HD
BRANCH   4   6
ATOM      6  C   UNL     1      34.267 -24.624 -11.933  0.00  0.00    +0.087 C 
BRANCH   6  10
ATOM      7  N   UNL     1      37.941 -25.273 -12.681  0.00  0.00    -0.282 N 
ATOM      8  N   UNL     1      37.832 -25.973 -14.850  0.00  0.00    -0.331 N 
ATOM      9  N   UNL     1      39.881 -26.077 -13.707  0.00  0.00    -0.273 NA
ATOM     10  C   UNL     1      35.721 -24.309 -12.279  0.00  0.00    +0.029 C 
ATOM     11  C   UNL     1      36.344 -23.382 -11.225  0.00  0.00    +0.004 C 
ATOM     12  C   UNL     1      36.541 -25.600 -12.416  0.00  0.00    +0.094 C 
ATOM     13  C   UNL     1      37.817 -23.120 -11.532  0.00  0.00    +0.022 C 
ATOM     14  C   UNL     1      38.592 -24.425 -11.686  0.00  0.00    +0.093 C 
ATOM     15  C   UNL     1      38.611 -25.787 -13.739  0.00  0.00    +0.174 C 
ATOM     16  H   UNL     1      36.876 -25.739 -14.826  0.00  0.00    +0.145 HD
ATOM     17  H   UNL     1      38.228 -26.342 -15.672  0.00  0.00    +0.145 HD
ATOM     18  H   UNL     1      40.400 -25.925 -12.884  0.00  0.00    +0.189 HD
ENDBRANCH   6  10
ENDBRANCH   4   6
ENDBRANCH   1   3
BRANCH   1  20
ATOM     19  O   UNL     1      30.575 -22.799 -14.044  0.00  0.00    -0.248 OA
ATOM     20  C   UNL     1      31.298 -23.323 -14.885  0.00  0.00    +0.335 C 
BRANCH  20  21
ATOM     21  O   UNL     1      30.897 -24.256 -15.793  0.00  0.00    -0.443 OA
ATOM     22  C   UNL     1      29.752 -25.031 -15.423  0.00  0.00    +0.256 C 
ENDBRANCH  20  21
ENDBRANCH   1  20
BRANCH   1  23
ATOM     23  C   UNL     1      33.407 -23.642 -16.256  0.00  0.00    +0.057 C 
BRANCH  23  24
ATOM     24  C   UNL     1      33.600 -22.697 -17.421  0.00  0.00    -0.020 C 
ATOM     25  C   UNL     1      32.493 -22.113 -18.037  0.00  0.00    -0.004 C 
ATOM     26  C   UNL     1      34.886 -22.409 -17.880  0.00  0.00    -0.004 C 
ATOM     27  C   UNL     1      32.672 -21.242 -19.112  0.00  0.00    +0.008 C 
ATOM     28  C   UNL     1      35.064 -21.538 -18.954  0.00  0.00    +0.008 C 
ATOM     29  C   UNL     1      33.957 -20.954 -19.570  0.00  0.00    +0.042 C 
BRANCH  29  30
ATOM     30  C   UNL     1      34.140 -20.062 -20.672  0.00  0.00    -0.060 C 
ATOM     31  C   UNL     1      34.291 -19.313 -21.597  0.00  0.00    -0.060 C 
BRANCH  31  32
ATOM     32  C   UNL     1      34.473 -18.419 -22.700  0.00  0.00    +0.042 C 
ATOM     33  C   UNL     1      35.123 -17.200 -22.509  0.00  0.00    +0.008 C 
ATOM     34  C   UNL     1      33.999 -18.767 -23.965  0.00  0.00    +0.008 C 
ATOM     35  C   UNL     1      35.301 -16.328 -23.584  0.00  0.00    +0.001 C 
ATOM     36  C   UNL     1      34.177 -17.895 -25.039  0.00  0.00    +0.001 C 
ATOM     37  C   UNL     1      34.827 -16.676 -24.848  0.00  0.00    +0.000 C 
ENDBRANCH  31  32
ENDBRANCH  29  30
ENDBRANCH  23  24
ENDBRANCH   1  23
TORSDOF 9
ENDMDL
MODEL 5
REMARK VINA RESULT:     -10.5      2.127      3.725
REMARK  Name = 5288250
REMARK  9 active torsions:
REMARK  status: ('A' for Active; 'I' for Inactive)
REMARK    1  A    between atoms: C_1  and  N_3
REMARK    2  A    between atoms: C_1  and  C_20
REMARK    3  A    between atoms: C_1  and  C_23
REMARK    4  A    between atoms: C_4  and  C_6
REMARK    5  A    between atoms: C_6  and  C_10
REMARK    6  A    between atoms: C_20  and  O_21
REMARK    7  A    between atoms: C_23  and  C_24
REMARK    8  A    between atoms: C_29  and  C_30
REMARK    9  A    between atoms: C_31  and  C_32
REMARK                            x       y       z     vdW  Elec       q    Type
REMARK                         _______ _______ _______ _____ _____    ______ ____
ROOT
ATOM      1  C   UNL     1      32.684 -23.237 -15.695  0.00  0.00    +0.176 C 
ENDROOT
BRANCH   1   3
ATOM      2  O   UNL     1      35.283 -22.324 -14.805  0.00  0.00    -0.275 OA
ATOM      3  N   UNL     1      33.365 -23.594 -14.471  0.00  0.00    -0.297 N 
ATOM      4  C   UNL     1      34.616 -23.102 -14.128  0.00  0.00    +0.223 C 
ATOM      5  H   UNL     1      32.918 -24.215 -13.851  0.00  0.00    +0.150 HD
BRANCH   4   6
ATOM      6  C   UNL     1      35.071 -23.648 -12.791  0.00  0.00    +0.087 C 
BRANCH   6  10
ATOM      7  N   UNL     1      38.316 -25.217 -14.011  0.00  0.00    -0.282 N 
ATOM      8  N   UNL     1      38.946 -23.730 -15.623  0.00  0.00    -0.331 N 
ATOM      9  N   UNL     1      40.161 -25.721 -15.354  0.00  0.00    -0.273 NA
ATOM     10  C   UNL     1      36.551 -24.026 -12.793  0.00  0.00    +0.029 C 
ATOM     11  C   UNL     1      36.907 -24.837 -11.538  0.00  0.00    +0.004 C 
ATOM     12  C   UNL     1      36.913 -24.809 -14.062  0.00  0.00    +0.094 C 
ATOM     13  C   UNL     1      38.371 -25.274 -11.569  0.00  0.00    +0.022 C 
ATOM     14  C   UNL     1      38.698 -26.025 -12.856  0.00  0.00    +0.093 C 
ATOM     15  C   UNL     1      39.185 -24.931 -15.008  0.00  0.00    +0.174 C 
ATOM     16  H   UNL     1      38.196 -23.166 -15.327  0.00  0.00    +0.145 HD
ATOM     17  H   UNL     1      39.525 -23.431 -16.361  0.00  0.00    +0.145 HD
ATOM     18  H   UNL     1      40.293 -26.575 -14.882  0.00  0.00    +0.189 HD
ENDBRANCH   6  10
ENDBRANCH   4   6
ENDBRANCH   1   3
BRANCH   1  20
ATOM     19  O   UNL     1      30.881 -24.758 -15.174  0.00  0.00    -0.248 OA
ATOM     20  C   UNL     1      31.240 -23.718 -15.718  0.00  0.00    +0.335 C 
BRANCH  20  21
ATOM     21  O   UNL     1      30.428 -22.876 -16.417  0.00  0.00    -0.443 OA
ATOM     22  C   UNL     1      29.148 -22.620 -15.831  0.00  0.00    +0.256 C 
ENDBRANCH  20  21
ENDBRANCH   1  20
BRANCH   1  23
ATOM     23  C   UNL     1      33.468 -23.709 -16.928  0.00  0.00    +0.057 C 
BRANCH  23  24
ATOM     24  C   UNL     1      33.660 -22.656 -17.997  0.00  0.00    -0.020 C 
ATOM     25  C   UNL     1      34.942 -22.347 -18.450  0.00  0.00    -0.004 C 
ATOM     26  C   UNL     1      32.554 -21.994 -18.529  0.00  0.00    -0.004 C 
ATOM     27  C   UNL     1      35.119 -21.375 -19.435  0.00  0.00    +0.008 C 
ATOM     28  C   UNL     1      32.730 -21.022 -19.514  0.00  0.00    +0.008 C 
ATOM     29  C   UNL     1      34.013 -20.713 -19.967  0.00  0.00    +0.042 C 
BRANCH  29  30
ATOM     30  C   UNL     1      34.194 -19.717 -20.976  0.00  0.00    -0.060 C 
ATOM     31  C   UNL     1      34.347 -18.880 -21.822  0.00  0.00    -0.060 C 
BRANCH  31  32
ATOM     32  C   UNL     1      34.530 -17.882 -22.832  0.00  0.00    +0.042 C 
ATOM     33  C   UNL     1      35.076 -16.644 -22.498  0.00  0.00    +0.008 C 
ATOM     34  C   UNL     1      34.160 -18.149 -24.151  0.00  0.00    +0.008 C 
ATOM     35  C   UNL     1      35.255 -15.671 -23.482  0.00  0.00    +0.001 C 
ATOM     36  C   UNL     1      34.339 -17.176 -25.135  0.00  0.00    +0.001 C 
ATOM     37  C   UNL     1      34.885 -15.937 -24.800  0.00  0.00    +0.000 C 
ENDBRANCH  31  32
ENDBRANCH  29  30
ENDBRANCH  23  24
ENDBRANCH   1  23
TORSDOF 9
ENDMDL
MODEL 6
REMARK VINA RESULT:     -10.5      3.978      7.342
REMARK  Name = 5288250
REMARK  9 active torsions:
REMARK  status: ('A' for Active; 'I' for Inactive)
REMARK    1  A    between atoms: C_1  and  N_3
REMARK    2  A    between atoms: C_1  and  C_20
REMARK    3  A    between atoms: C_1  and  C_23
REMARK    4  A    between atoms: C_4  and  C_6
REMARK    5  A    between atoms: C_6  and  C_10
REMARK    6  A    between atoms: C_20  and  O_21
REMARK    7  A    between atoms: C_23  and  C_24
REMARK    8  A    between atoms: C_29  and  C_30
REMARK    9  A    between atoms: C_31  and  C_32
REMARK                            x       y       z     vdW  Elec       q    Type
REMARK                         _______ _______ _______ _____ _____    ______ ____
ROOT
ATOM      1  C   UNL     1      34.115 -17.216 -23.716  0.00  0.00    +0.176 C 
ENDROOT
BRANCH   1   3
ATOM      2  O   UNL     1      34.972 -17.045 -20.956  0.00  0.00    -0.275 OA
ATOM      3  N   UNL     1      34.998 -18.121 -23.016  0.00  0.00    -0.297 N 
ATOM      4  C   UNL     1      35.353 -17.956 -21.685  0.00  0.00    +0.223 C 
ATOM      5  H   UNL     1      35.364 -18.892 -23.507  0.00  0.00    +0.150 HD
BRANCH   4   6
ATOM      6  C   UNL     1      36.284 -19.059 -21.226  0.00  0.00    +0.087 C 
BRANCH   6  10
ATOM      7  N   UNL     1      36.162 -21.630 -18.424  0.00  0.00    -0.282 N 
ATOM      8  N   UNL     1      37.427 -20.602 -16.828  0.00  0.00    -0.331 N 
ATOM      9  N   UNL     1      36.697 -22.806 -16.476  0.00  0.00    -0.273 NA
ATOM     10  C   UNL     1      35.719 -19.840 -20.042  0.00  0.00    +0.029 C 
ATOM     11  C   UNL     1      34.415 -20.552 -20.432  0.00  0.00    +0.004 C 
ATOM     12  C   UNL     1      36.747 -20.849 -19.512  0.00  0.00    +0.094 C 
ATOM     13  C   UNL     1      33.883 -21.389 -19.270  0.00  0.00    +0.022 C 
ATOM     14  C   UNL     1      34.941 -22.360 -18.755  0.00  0.00    +0.093 C 
ATOM     15  C   UNL     1      36.756 -21.733 -17.213  0.00  0.00    +0.174 C 
ATOM     16  H   UNL     1      37.444 -19.815 -17.417  0.00  0.00    +0.145 HD
ATOM     17  H   UNL     1      37.892 -20.578 -15.960  0.00  0.00    +0.145 HD
ATOM     18  H   UNL     1      36.202 -23.596 -16.797  0.00  0.00    +0.189 HD
ENDBRANCH   6  10
ENDBRANCH   4   6
ENDBRANCH   1   3
BRANCH   1  20
ATOM     19  O   UNL     1      33.075 -19.150 -24.725  0.00  0.00    -0.248 OA
ATOM     20  C   UNL     1      33.234 -17.933 -24.729  0.00  0.00    +0.335 C 
BRANCH  20  21
ATOM     21  O   UNL     1      32.675 -17.072 -25.625  0.00  0.00    -0.443 OA
ATOM     22  C   UNL     1      31.407 -17.467 -26.158  0.00  0.00    +0.256 C 
ENDBRANCH  20  21
ENDBRANCH   1  20
BRANCH   1  23
ATOM     23  C   UNL     1      34.894 -16.055 -24.350  0.00  0.00    +0.057 C 
BRANCH  23  24
ATOM     24  C   UNL     1      34.398 -14.678 -23.968  0.00  0.00    -0.020 C 
ATOM     25  C   UNL     1      34.390 -14.285 -22.630  0.00  0.00    -0.004 C 
ATOM     26  C   UNL     1      33.949 -13.800 -24.955  0.00  0.00    -0.004 C 
ATOM     27  C   UNL     1      33.931 -13.016 -22.278  0.00  0.00    +0.008 C 
ATOM     28  C   UNL     1      33.491 -12.531 -24.604  0.00  0.00    +0.008 C 
ATOM     29  C   UNL     1      33.483 -12.138 -23.265  0.00  0.00    +0.042 C 
BRANCH  29  30
ATOM     30  C   UNL     1      33.012 -10.838 -22.904  0.00  0.00    -0.060 C 
ATOM     31  C   UNL     1      32.618  -9.746 -22.600  0.00  0.00    -0.060 C 
BRANCH  31  32
ATOM     32  C   UNL     1      32.148  -8.443 -22.238  0.00  0.00    +0.042 C 
ATOM     33  C   UNL     1      31.264  -7.764 -23.075  0.00  0.00    +0.008 C 
ATOM     34  C   UNL     1      32.576  -7.853 -21.048  0.00  0.00    +0.008 C 
ATOM     35  C   UNL     1      30.806  -6.494 -22.723  0.00  0.00    +0.001 C 
ATOM     36  C   UNL     1      32.118  -6.584 -20.696  0.00  0.00    +0.001 C 
ATOM     37  C   UNL     1      31.233  -5.904 -21.534  0.00  0.00    +0.000 C 
ENDBRANCH  31  32
ENDBRANCH  29  30
ENDBRANCH  23  24
ENDBRANCH   1  23
TORSDOF 9
ENDMDL
MODEL 7
REMARK VINA RESULT:      -9.8      3.209      6.649
REMARK  Name = 5288250
REMARK  9 active torsions:
REMARK  status: ('A' for Active; 'I' for Inactive)
REMARK    1  A    between atoms: C_1  and  N_3
REMARK    2  A    between atoms: C_1  and  C_20
REMARK    3  A    between atoms: C_1  and  C_23
REMARK    4  A    between atoms: C_4  and  C_6
REMARK    5  A    between atoms: C_6  and  C_10
REMARK    6  A    between atoms: C_20  and  O_21
REMARK    7  A    between atoms: C_23  and  C_24
REMARK    8  A    between atoms: C_29  and  C_30
REMARK    9  A    between atoms: C_31  and  C_32
REMARK                            x       y       z     vdW  Elec       q    Type
REMARK                         _______ _______ _______ _____ _____    ______ ____
ROOT
ATOM      1  C   UNL     1      36.156 -24.120 -12.452  0.00  0.00    +0.176 C 
ENDROOT
BRANCH   1   3
ATOM      2  O   UNL     1      33.433 -25.063 -12.186  0.00  0.00    -0.275 OA
ATOM      3  N   UNL     1      34.951 -23.445 -12.878  0.00  0.00    -0.297 N 
ATOM      4  C   UNL     1      33.683 -23.980 -12.707  0.00  0.00    +0.223 C 
ATOM      5  H   UNL     1      35.035 -22.565 -13.310  0.00  0.00    +0.150 HD
BRANCH   4   6
ATOM      6  C   UNL     1      32.618 -23.048 -13.247  0.00  0.00    +0.087 C 
BRANCH   6  10
ATOM      7  N   UNL     1      29.287 -23.686 -14.971  0.00  0.00    -0.282 N 
ATOM      8  N   UNL     1      29.503 -22.394 -16.838  0.00  0.00    -0.331 N 
ATOM      9  N   UNL     1      27.446 -23.434 -16.389  0.00  0.00    -0.273 NA
ATOM     10  C   UNL     1      31.569 -23.785 -14.077  0.00  0.00    +0.029 C 
ATOM     11  C   UNL     1      31.236 -25.146 -13.449  0.00  0.00    +0.004 C 
ATOM     12  C   UNL     1      30.300 -22.936 -14.230  0.00  0.00    +0.094 C 
ATOM     13  C   UNL     1      30.138 -25.856 -14.240  0.00  0.00    +0.022 C 
ATOM     14  C   UNL     1      28.904 -24.972 -14.392  0.00  0.00    +0.093 C 
ATOM     15  C   UNL     1      28.686 -23.186 -16.075  0.00  0.00    +0.174 C 
ATOM     16  H   UNL     1      30.433 -22.235 -16.561  0.00  0.00    +0.145 HD
ATOM     17  H   UNL     1      29.158 -21.983 -17.664  0.00  0.00    +0.145 HD
ATOM     18  H   UNL     1      26.898 -24.011 -15.808  0.00  0.00    +0.189 HD
ENDBRANCH   6  10
ENDBRANCH   4   6
ENDBRANCH   1   3
BRANCH   1  20
ATOM     19  O   UNL     1      37.460 -22.239 -11.676  0.00  0.00    -0.248 OA
ATOM     20  C   UNL     1      36.935 -23.318 -11.418  0.00  0.00    +0.335 C 
BRANCH  20  21
ATOM     21  O   UNL     1      36.986 -23.947 -10.211  0.00  0.00    -0.443 OA
ATOM     22  C   UNL     1      35.732 -24.408  -9.698  0.00  0.00    +0.256 C 
ENDBRANCH  20  21
ENDBRANCH   1  20
BRANCH   1  23
ATOM     23  C   UNL     1      37.030 -24.514 -13.652  0.00  0.00    +0.057 C 
BRANCH  23  24
ATOM     24  C   UNL     1      36.804 -23.687 -14.898  0.00  0.00    -0.020 C 
ATOM     25  C   UNL     1      37.844 -22.926 -15.429  0.00  0.00    -0.004 C 
ATOM     26  C   UNL     1      35.553 -23.686 -15.516  0.00  0.00    -0.004 C 
ATOM     27  C   UNL     1      37.635 -22.163 -16.577  0.00  0.00    +0.008 C 
ATOM     28  C   UNL     1      35.344 -22.923 -16.665  0.00  0.00    +0.008 C 
ATOM     29  C   UNL     1      36.385 -22.162 -17.196  0.00  0.00    +0.042 C 
BRANCH  29  30
ATOM     30  C   UNL     1      36.170 -21.379 -18.372  0.00  0.00    -0.060 C 
ATOM     31  C   UNL     1      35.989 -20.721 -19.360  0.00  0.00    -0.060 C 
BRANCH  31  32
ATOM     32  C   UNL     1      35.774 -19.936 -20.537  0.00  0.00    +0.042 C 
ATOM     33  C   UNL     1      34.545 -19.988 -21.194  0.00  0.00    +0.008 C 
ATOM     34  C   UNL     1      36.794 -19.121 -21.027  0.00  0.00    +0.008 C 
ATOM     35  C   UNL     1      34.335 -19.224 -22.342  0.00  0.00    +0.001 C 
ATOM     36  C   UNL     1      36.583 -18.356 -22.175  0.00  0.00    +0.001 C 
ATOM     37  C   UNL     1      35.354 -18.409 -22.833  0.00  0.00    +0.000 C 
ENDBRANCH  31  32
ENDBRANCH  29  30
ENDBRANCH  23  24
ENDBRANCH   1  23
TORSDOF 9
ENDMDL
MODEL 8
REMARK VINA RESULT:      -9.6      3.001      5.443
REMARK  Name = 5288250
REMARK  9 active torsions:
REMARK  status: ('A' for Active; 'I' for Inactive)
REMARK    1  A    between atoms: C_1  and  N_3
REMARK    2  A    between atoms: C_1  and  C_20
REMARK    3  A    between atoms: C_1  and  C_23
REMARK    4  A    between atoms: C_4  and  C_6
REMARK    5  A    between atoms: C_6  and  C_10
REMARK    6  A    between atoms: C_20  and  O_21
REMARK    7  A    between atoms: C_23  and  C_24
REMARK    8  A    between atoms: C_29  and  C_30
REMARK    9  A    between atoms: C_31  and  C_32
REMARK                            x       y       z     vdW  Elec       q    Type
REMARK                         _______ _______ _______ _____ _____    ______ ____
ROOT
ATOM      1  C   UNL     1      36.601 -23.863 -15.247  0.00  0.00    +0.176 C 
ENDROOT
BRANCH   1   3
ATOM      2  O   UNL     1      33.930 -24.293 -16.275  0.00  0.00    -0.275 OA
ATOM      3  N   UNL     1      35.352 -23.503 -14.616  0.00  0.00    -0.297 N 
ATOM      4  C   UNL     1      34.113 -23.752 -15.189  0.00  0.00    +0.223 C 
ATOM      5  H   UNL     1      35.382 -23.062 -13.736  0.00  0.00    +0.150 HD
BRANCH   4   6
ATOM      6  C   UNL     1      32.990 -23.269 -14.296  0.00  0.00    +0.087 C 
BRANCH   6  10
ATOM      7  N   UNL     1      29.224 -23.505 -14.791  0.00  0.00    -0.282 N 
ATOM      8  N   UNL     1      28.964 -22.356 -16.744  0.00  0.00    -0.331 N 
ATOM      9  N   UNL     1      27.062 -23.062 -15.561  0.00  0.00    -0.273 NA
ATOM     10  C   UNL     1      31.645 -23.887 -14.671  0.00  0.00    +0.029 C 
ATOM     11  C   UNL     1      31.376 -25.152 -13.842  0.00  0.00    +0.004 C 
ATOM     12  C   UNL     1      30.508 -22.872 -14.490  0.00  0.00    +0.094 C 
ATOM     13  C   UNL     1      30.002 -25.735 -14.166  0.00  0.00    +0.022 C 
ATOM     14  C   UNL     1      28.903 -24.690 -14.000  0.00  0.00    +0.093 C 
ATOM     15  C   UNL     1      28.356 -22.981 -15.687  0.00  0.00    +0.174 C 
ATOM     16  H   UNL     1      29.945 -22.319 -16.797  0.00  0.00    +0.145 HD
ATOM     17  H   UNL     1      28.417 -21.942 -17.451  0.00  0.00    +0.145 HD
ATOM     18  H   UNL     1      26.672 -23.522 -14.782  0.00  0.00    +0.189 HD
ENDBRANCH   6  10
ENDBRANCH   4   6
ENDBRANCH   1   3
BRANCH   1  20
ATOM     19  O   UNL     1      37.385 -26.073 -14.666  0.00  0.00    -0.248 OA
ATOM     20  C   UNL     1      37.397 -24.869 -14.428  0.00  0.00    +0.335 C 
BRANCH  20  21
ATOM     21  O   UNL     1      38.088 -24.276 -13.415  0.00  0.00    -0.443 OA
ATOM     22  C   UNL     1      38.403 -25.118 -12.301  0.00  0.00    +0.256 C 
ENDBRANCH  20  21
ENDBRANCH   1  20
BRANCH   1  23
ATOM     23  C   UNL     1      37.431 -22.617 -15.593  0.00  0.00    +0.057 C 
BRANCH  23  24
ATOM     24  C   UNL     1      36.989 -21.892 -16.845  0.00  0.00    -0.020 C 
ATOM     25  C   UNL     1      35.933 -22.392 -17.605  0.00  0.00    -0.004 C 
ATOM     26  C   UNL     1      37.639 -20.722 -17.238  0.00  0.00    -0.004 C 
ATOM     27  C   UNL     1      35.526 -21.723 -18.760  0.00  0.00    +0.008 C 
ATOM     28  C   UNL     1      37.233 -20.053 -18.393  0.00  0.00    +0.008 C 
ATOM     29  C   UNL     1      36.176 -20.553 -19.153  0.00  0.00    +0.042 C 
BRANCH  29  30
ATOM     30  C   UNL     1      35.760 -19.869 -20.337  0.00  0.00    -0.060 C 
ATOM     31  C   UNL     1      35.411 -19.292 -21.330  0.00  0.00    -0.060 C 
BRANCH  31  32
ATOM     32  C   UNL     1      34.996 -18.606 -22.516  0.00  0.00    +0.042 C 
ATOM     33  C   UNL     1      34.245 -19.275 -23.481  0.00  0.00    +0.008 C 
ATOM     34  C   UNL     1      35.343 -17.268 -22.705  0.00  0.00    +0.008 C 
ATOM     35  C   UNL     1      33.839 -18.607 -24.637  0.00  0.00    +0.001 C 
ATOM     36  C   UNL     1      34.937 -16.600 -23.860  0.00  0.00    +0.001 C 
ATOM     37  C   UNL     1      34.186 -17.270 -24.826  0.00  0.00    +0.000 C 
ENDBRANCH  31  32
ENDBRANCH  29  30
ENDBRANCH  23  24
ENDBRANCH   1  23
TORSDOF 9
ENDMDL
MODEL 9
REMARK VINA RESULT:      -9.6      1.403      3.811
REMARK  Name = 5288250
REMARK  9 active torsions:
REMARK  status: ('A' for Active; 'I' for Inactive)
REMARK    1  A    between atoms: C_1  and  N_3
REMARK    2  A    between atoms: C_1  and  C_20
REMARK    3  A    between atoms: C_1  and  C_23
REMARK    4  A    between atoms: C_4  and  C_6
REMARK    5  A    between atoms: C_6  and  C_10
REMARK    6  A    between atoms: C_20  and  O_21
REMARK    7  A    between atoms: C_23  and  C_24
REMARK    8  A    between atoms: C_29  and  C_30
REMARK    9  A    between atoms: C_31  and  C_32
REMARK                            x       y       z     vdW  Elec       q    Type
REMARK                         _______ _______ _______ _____ _____    ______ ____
ROOT
ATOM      1  C   UNL     1      36.048 -22.131 -17.859  0.00  0.00    +0.176 C 
ENDROOT
BRANCH   1   3
ATOM      2  O   UNL     1      33.863 -23.905 -18.535  0.00  0.00    -0.275 OA
ATOM      3  N   UNL     1      34.634 -21.865 -17.731  0.00  0.00    -0.297 N 
ATOM      4  C   UNL     1      33.655 -22.783 -18.082  0.00  0.00    +0.223 C 
ATOM      5  H   UNL     1      34.351 -20.991 -17.375  0.00  0.00    +0.150 HD
BRANCH   4   6
ATOM      6  C   UNL     1      32.268 -22.228 -17.834  0.00  0.00    +0.087 C 
BRANCH   6  10
ATOM      7  N   UNL     1      31.899 -24.154 -14.574  0.00  0.00    -0.282 N 
ATOM      8  N   UNL     1      33.761 -23.474 -13.447  0.00  0.00    -0.331 N 
ATOM      9  N   UNL     1      32.417 -25.168 -12.533  0.00  0.00    -0.273 NA
ATOM     10  C   UNL     1      31.748 -22.568 -16.439  0.00  0.00    +0.029 C 
ATOM     11  C   UNL     1      30.227 -22.781 -16.462  0.00  0.00    +0.004 C 
ATOM     12  C   UNL     1      32.458 -23.808 -15.880  0.00  0.00    +0.094 C 
ATOM     13  C   UNL     1      29.713 -23.187 -15.082  0.00  0.00    +0.022 C 
ATOM     14  C   UNL     1      30.460 -24.406 -14.549  0.00  0.00    +0.093 C 
ATOM     15  C   UNL     1      32.675 -24.308 -13.477  0.00  0.00    +0.174 C 
ATOM     16  H   UNL     1      33.916 -22.840 -14.183  0.00  0.00    +0.145 HD
ATOM     17  H   UNL     1      34.388 -23.509 -12.688  0.00  0.00    +0.145 HD
ATOM     18  H   UNL     1      31.623 -25.748 -12.599  0.00  0.00    +0.189 HD
ENDBRANCH   6  10
ENDBRANCH   4   6
ENDBRANCH   1   3
BRANCH   1  20
ATOM     19  O   UNL     1      37.541 -20.302 -17.348  0.00  0.00    -0.248 OA
ATOM     20  C   UNL     1      36.889 -21.257 -16.938  0.00  0.00    +0.335 C 
BRANCH  20  21
ATOM     21  O   UNL     1      36.837 -21.675 -15.643  0.00  0.00    -0.443 OA
ATOM     22  C   UNL     1      37.224 -23.033 -15.412  0.00  0.00    +0.256 C 
ENDBRANCH  20  21
ENDBRANCH   1  20
BRANCH   1  23
ATOM     23  C   UNL     1      36.505 -22.032 -19.322  0.00  0.00    +0.057 C 
BRANCH  23  24
ATOM     24  C   UNL     1      36.091 -20.760 -20.028  0.00  0.00    -0.020 C 
ATOM     25  C   UNL     1      34.752 -20.546 -20.352  0.00  0.00    -0.004 C 
ATOM     26  C   UNL     1      37.050 -19.802 -20.355  0.00  0.00    -0.004 C 
ATOM     27  C   UNL     1      34.370 -19.373 -21.003  0.00  0.00    +0.008 C 
ATOM     28  C   UNL     1      36.669 -18.628 -21.006  0.00  0.00    +0.008 C 
ATOM     29  C   UNL     1      35.329 -18.414 -21.330  0.00  0.00    +0.042 C 
BRANCH  29  30
ATOM     30  C   UNL     1      34.939 -17.212 -21.998  0.00  0.00    -0.060 C 
ATOM     31  C   UNL     1      34.609 -16.204 -22.561  0.00  0.00    -0.060 C 
BRANCH  31  32
ATOM     32  C   UNL     1      34.217 -15.001 -23.230  0.00  0.00    +0.042 C 
ATOM     33  C   UNL     1      33.719 -15.058 -24.531  0.00  0.00    +0.008 C 
ATOM     34  C   UNL     1      34.335 -13.772 -22.580  0.00  0.00    +0.008 C 
ATOM     35  C   UNL     1      33.336 -13.886 -25.184  0.00  0.00    +0.001 C 
ATOM     36  C   UNL     1      33.952 -12.600 -23.234  0.00  0.00    +0.001 C 
ATOM     37  C   UNL     1      33.453 -12.658 -24.535  0.00  0.00    +0.000 C 
ENDBRANCH  31  32
ENDBRANCH  29  30
ENDBRANCH  23  24
ENDBRANCH   1  23
TORSDOF 9
ENDMDL
