MODEL 1
REMARK VINA RESULT:     -11.4      0.000      0.000
REMARK  Name = 445579
REMARK  10 active torsions:
REMARK  status: ('A' for Active; 'I' for Inactive)
REMARK    1  A    between atoms: C_1  and  O_18
REMARK    2  A    between atoms: C_4  and  C_9
REMARK    3  A    between atoms: N_8  and  C_11
REMARK    4  A    between atoms: C_11  and  C_12
REMARK    5  A    between atoms: O_18  and  C_24
REMARK    6  A    between atoms: C_20  and  O_27
REMARK    7  A    between atoms: C_21  and  O_25
REMARK    8  A    between atoms: C_22  and  C_31
REMARK    9  A    between atoms: C_23  and  O_29
REMARK   10  A    between atoms: C_31  and  O_32
REMARK                            x       y       z     vdW  Elec       q    Type
REMARK                         _______ _______ _______ _____ _____    ______ ____
ROOT
ATOM      1  C   UNL     1      34.060 -23.349 -14.834  0.00  0.00    +0.142 C 
ATOM      2  C   UNL     1      34.265 -23.086 -16.185  0.00  0.00    +0.042 C 
ATOM      3  C   UNL     1      32.770 -23.432 -14.318  0.00  0.00    +0.037 C 
ATOM      4  C   UNL     1      33.169 -22.903 -17.028  0.00  0.00    +0.056 C 
ATOM      5  C   UNL     1      31.675 -23.250 -15.162  0.00  0.00    +0.003 C 
ATOM      6  C   UNL     1      31.874 -22.986 -16.516  0.00  0.00    +0.005 C 
ENDROOT
BRANCH   4   9
ATOM      7  O   UNL     1      33.784 -23.498 -19.224  0.00  0.00    -0.270 OA
ATOM      8  N   UNL     1      33.060 -21.338 -18.869  0.00  0.00    -0.297 N 
ATOM      9  C   UNL     1      33.377 -22.628 -18.441  0.00  0.00    +0.246 C 
ATOM     10  H   UNL     1      32.739 -20.685 -18.205  0.00  0.00    +0.150 HD
BRANCH   8  11
ATOM     11  C   UNL     1      33.182 -20.920 -20.247  0.00  0.00    +0.117 C 
BRANCH  11  12
ATOM     12  C   UNL     1      34.477 -20.207 -20.506  0.00  0.00    -0.003 C 
ATOM     13  C   UNL     1      34.501 -19.113 -21.364  0.00  0.00    -0.003 C 
ATOM     14  C   UNL     1      35.642 -20.647 -19.885  0.00  0.00    -0.003 C 
ATOM     15  C   UNL     1      35.705 -18.450 -21.605  0.00  0.00    -0.000 C 
ATOM     16  C   UNL     1      36.844 -19.983 -20.126  0.00  0.00    -0.000 C 
ATOM     17  C   UNL     1      36.876 -18.885 -20.985  0.00  0.00    -0.000 C 
ENDBRANCH  11  12
ENDBRANCH   8  11
ENDBRANCH   4   9
BRANCH   1  18
ATOM     18  O   UNL     1      35.135 -23.529 -14.006  0.00  0.00    -0.451 OA
BRANCH  18  24
ATOM     19  O   UNL     1      36.276 -25.593 -13.813  0.00  0.00    -0.316 OA
ATOM     20  C   UNL     1      37.849 -24.795 -12.121  0.00  0.00    +0.169 C 
ATOM     21  C   UNL     1      36.741 -23.936 -11.506  0.00  0.00    +0.173 C 
ATOM     22  C   UNL     1      37.579 -25.023 -13.614  0.00  0.00    +0.177 C 
ATOM     23  C   UNL     1      35.372 -24.541 -11.815  0.00  0.00    +0.210 C 
ATOM     24  C   UNL     1      35.211 -24.776 -13.319  0.00  0.00    +0.318 C 
BRANCH  21  25
ATOM     25  O   UNL     1      36.913 -23.855 -10.095  0.00  0.00    -0.379 OA
ATOM     26  H   UNL     1      37.551 -23.156  -9.885  0.00  0.00    +0.211 HD
ENDBRANCH  21  25
BRANCH  20  27
ATOM     27  O   UNL     1      37.893 -26.062 -11.461  0.00  0.00    -0.379 OA
ATOM     28  H   UNL     1      37.070 -26.197 -10.966  0.00  0.00    +0.211 HD
ENDBRANCH  20  27
BRANCH  23  29
ATOM     29  O   UNL     1      34.335 -23.676 -11.361  0.00  0.00    -0.377 OA
ATOM     30  H   UNL     1      33.671 -23.573 -12.061  0.00  0.00    +0.211 HD
ENDBRANCH  23  29
BRANCH  22  31
ATOM     31  C   UNL     1      38.588 -25.972 -14.249  0.00  0.00    +0.169 C 
BRANCH  31  32
ATOM     32  O   UNL     1      38.026 -27.272 -14.286  0.00  0.00    -0.379 OA
ATOM     33  H   UNL     1      38.220 -27.684 -15.142  0.00  0.00    +0.211 HD
ENDBRANCH  31  32
ENDBRANCH  22  31
ENDBRANCH  18  24
ENDBRANCH   1  18
TORSDOF 10
ENDMDL
MODEL 2
REMARK VINA RESULT:     -11.3      1.170      2.349
REMARK  Name = 445579
REMARK  10 active torsions:
REMARK  status: ('A' for Active; 'I' for Inactive)
REMARK    1  A    between atoms: C_1  and  O_18
REMARK    2  A    between atoms: C_4  and  C_9
REMARK    3  A    between atoms: N_8  and  C_11
REMARK    4  A    between atoms: C_11  and  C_12
REMARK    5  A    between atoms: O_18  and  C_24
REMARK    6  A    between atoms: C_20  and  O_27
REMARK    7  A    between atoms: C_21  and  O_25
REMARK    8  A    between atoms: C_22  and  C_31
REMARK    9  A    between atoms: C_23  and  O_29
REMARK   10  A    between atoms: C_31  and  O_32
REMARK                            x       y       z     vdW  Elec       q    Type
REMARK                         _______ _______ _______ _____ _____    ______ ____
ROOT
ATOM      1  C   UNL     1      34.157 -23.883 -14.848  0.00  0.00    +0.142 C 
ATOM      2  C   UNL     1      34.306 -23.565 -16.195  0.00  0.00    +0.042 C 
ATOM      3  C   UNL     1      32.912 -23.788 -14.234  0.00  0.00    +0.037 C 
ATOM      4  C   UNL     1      33.199 -23.148 -16.934  0.00  0.00    +0.056 C 
ATOM      5  C   UNL     1      31.805 -23.372 -14.974  0.00  0.00    +0.003 C 
ATOM      6  C   UNL     1      31.948 -23.052 -16.323  0.00  0.00    +0.005 C 
ENDROOT
BRANCH   4   9
ATOM      7  O   UNL     1      33.703 -23.657 -19.179  0.00  0.00    -0.270 OA
ATOM      8  N   UNL     1      33.038 -21.503 -18.699  0.00  0.00    -0.297 N 
ATOM      9  C   UNL     1      33.348 -22.816 -18.342  0.00  0.00    +0.246 C 
ATOM     10  H   UNL     1      32.760 -20.874 -17.994  0.00  0.00    +0.150 HD
BRANCH   8  11
ATOM     11  C   UNL     1      33.106 -21.027 -20.063  0.00  0.00    +0.117 C 
BRANCH  11  12
ATOM     12  C   UNL     1      34.402 -20.326 -20.349  0.00  0.00    -0.003 C 
ATOM     13  C   UNL     1      34.408 -19.194 -21.156  0.00  0.00    -0.003 C 
ATOM     14  C   UNL     1      35.585 -20.816 -19.806  0.00  0.00    -0.003 C 
ATOM     15  C   UNL     1      35.613 -18.543 -21.423  0.00  0.00    -0.000 C 
ATOM     16  C   UNL     1      36.789 -20.164 -20.073  0.00  0.00    -0.000 C 
ATOM     17  C   UNL     1      36.803 -19.028 -20.881  0.00  0.00    -0.000 C 
ENDBRANCH  11  12
ENDBRANCH   8  11
ENDBRANCH   4   9
BRANCH   1  18
ATOM     18  O   UNL     1      35.243 -24.292 -14.123  0.00  0.00    -0.451 OA
BRANCH  18  24
ATOM     19  O   UNL     1      35.914 -23.109 -12.186  0.00  0.00    -0.316 OA
ATOM     20  C   UNL     1      37.766 -24.614 -11.663  0.00  0.00    +0.169 C 
ATOM     21  C   UNL     1      38.039 -24.787 -13.160  0.00  0.00    +0.173 C 
ATOM     22  C   UNL     1      36.290 -24.269 -11.428  0.00  0.00    +0.177 C 
ATOM     23  C   UNL     1      37.548 -23.562 -13.930  0.00  0.00    +0.210 C 
ATOM     24  C   UNL     1      36.083 -23.266 -13.597  0.00  0.00    +0.318 C 
BRANCH  21  25
ATOM     25  O   UNL     1      39.436 -24.955 -13.385  0.00  0.00    -0.379 OA
ATOM     26  H   UNL     1      39.840 -25.379 -12.611  0.00  0.00    +0.211 HD
ENDBRANCH  21  25
BRANCH  20  27
ATOM     27  O   UNL     1      38.577 -23.555 -11.148  0.00  0.00    -0.379 OA
ATOM     28  H   UNL     1      39.191 -23.255 -11.836  0.00  0.00    +0.211 HD
ENDBRANCH  20  27
BRANCH  23  29
ATOM     29  O   UNL     1      37.678 -23.774 -15.332  0.00  0.00    -0.377 OA
ATOM     30  H   UNL     1      37.542 -22.935 -15.801  0.00  0.00    +0.211 HD
ENDBRANCH  23  29
BRANCH  22  31
ATOM     31  C   UNL     1      35.989 -23.968  -9.964  0.00  0.00    +0.169 C 
BRANCH  31  32
ATOM     32  O   UNL     1      35.204 -25.022  -9.437  0.00  0.00    -0.379 OA
ATOM     33  H   UNL     1      35.293 -25.806 -10.001  0.00  0.00    +0.211 HD
ENDBRANCH  31  32
ENDBRANCH  22  31
ENDBRANCH  18  24
ENDBRANCH   1  18
TORSDOF 10
ENDMDL
MODEL 3
REMARK VINA RESULT:     -11.1      1.687      2.855
REMARK  Name = 445579
REMARK  10 active torsions:
REMARK  status: ('A' for Active; 'I' for Inactive)
REMARK    1  A    between atoms: C_1  and  O_18
REMARK    2  A    between atoms: C_4  and  C_9
REMARK    3  A    between atoms: N_8  and  C_11
REMARK    4  A    between atoms: C_11  and  C_12
REMARK    5  A    between atoms: O_18  and  C_24
REMARK    6  A    between atoms: C_20  and  O_27
REMARK    7  A    between atoms: C_21  and  O_25
REMARK    8  A    between atoms: C_22  and  C_31
REMARK    9  A    between atoms: C_23  and  O_29
REMARK   10  A    between atoms: C_31  and  O_32
REMARK                            x       y       z     vdW  Elec       q    Type
REMARK                         _______ _______ _______ _____ _____    ______ ____
ROOT
ATOM      1  C   UNL     1      33.165 -24.623 -13.851  0.00  0.00    +0.142 C 
ATOM      2  C   UNL     1      32.951 -23.888 -15.013  0.00  0.00    +0.042 C 
ATOM      3  C   UNL     1      32.092 -25.018 -13.057  0.00  0.00    +0.037 C 
ATOM      4  C   UNL     1      31.650 -23.543 -15.384  0.00  0.00    +0.056 C 
ATOM      5  C   UNL     1      30.793 -24.673 -13.429  0.00  0.00    +0.003 C 
ATOM      6  C   UNL     1      30.572 -23.936 -14.592  0.00  0.00    +0.005 C 
ENDROOT
BRANCH   4   9
ATOM      7  O   UNL     1      30.327 -22.246 -16.840  0.00  0.00    -0.270 OA
ATOM      8  N   UNL     1      32.513 -22.641 -17.456  0.00  0.00    -0.297 N 
ATOM      9  C   UNL     1      31.421 -22.775 -16.597  0.00  0.00    +0.246 C 
ATOM     10  H   UNL     1      33.361 -23.081 -17.214  0.00  0.00    +0.150 HD
BRANCH   8  11
ATOM     11  C   UNL     1      32.453 -21.882 -18.684  0.00  0.00    +0.117 C 
BRANCH  11  12
ATOM     12  C   UNL     1      33.813 -21.445 -19.142  0.00  0.00    -0.003 C 
ATOM     13  C   UNL     1      33.927 -20.513 -20.168  0.00  0.00    -0.003 C 
ATOM     14  C   UNL     1      34.947 -21.975 -18.537  0.00  0.00    -0.003 C 
ATOM     15  C   UNL     1      35.192 -20.107 -20.594  0.00  0.00    -0.000 C 
ATOM     16  C   UNL     1      36.211 -21.568 -18.963  0.00  0.00    -0.000 C 
ATOM     17  C   UNL     1      36.334 -20.634 -19.991  0.00  0.00    -0.000 C 
ENDBRANCH  11  12
ENDBRANCH   8  11
ENDBRANCH   4   9
BRANCH   1  18
ATOM     18  O   UNL     1      34.440 -24.961 -13.487  0.00  0.00    -0.451 OA
BRANCH  18  24
ATOM     19  O   UNL     1      36.209 -23.390 -13.459  0.00  0.00    -0.316 OA
ATOM     20  C   UNL     1      37.900 -25.003 -12.745  0.00  0.00    +0.169 C 
ATOM     21  C   UNL     1      37.220 -26.081 -13.596  0.00  0.00    +0.173 C 
ATOM     22  C   UNL     1      36.878 -23.943 -12.315  0.00  0.00    +0.177 C 
ATOM     23  C   UNL     1      36.455 -25.436 -14.751  0.00  0.00    +0.210 C 
ATOM     24  C   UNL     1      35.498 -24.360 -14.232  0.00  0.00    +0.318 C 
BRANCH  21  25
ATOM     25  O   UNL     1      38.196 -26.976 -14.120  0.00  0.00    -0.379 OA
ATOM     26  H   UNL     1      38.973 -26.985 -13.539  0.00  0.00    +0.211 HD
ENDBRANCH  21  25
BRANCH  20  27
ATOM     27  O   UNL     1      38.929 -24.371 -13.509  0.00  0.00    -0.379 OA
ATOM     28  H   UNL     1      39.399 -23.731 -12.952  0.00  0.00    +0.211 HD
ENDBRANCH  20  27
BRANCH  23  29
ATOM     29  O   UNL     1      35.713 -26.420 -15.464  0.00  0.00    -0.377 OA
ATOM     30  H   UNL     1      34.822 -26.084 -15.648  0.00  0.00    +0.211 HD
ENDBRANCH  23  29
BRANCH  22  31
ATOM     31  C   UNL     1      37.526 -22.783 -11.567  0.00  0.00    +0.169 C 
BRANCH  31  32
ATOM     32  O   UNL     1      38.763 -23.222 -11.034  0.00  0.00    -0.379 OA
ATOM     33  H   UNL     1      38.889 -22.840 -10.152  0.00  0.00    +0.211 HD
ENDBRANCH  31  32
ENDBRANCH  22  31
ENDBRANCH  18  24
ENDBRANCH   1  18
TORSDOF 10
ENDMDL
MODEL 4
REMARK VINA RESULT:     -10.9      1.897      2.470
REMARK  Name = 445579
REMARK  10 active torsions:
REMARK  status: ('A' for Active; 'I' for Inactive)
REMARK    1  A    between atoms: C_1  and  O_18
REMARK    2  A    between atoms: C_4  and  C_9
REMARK    3  A    between atoms: N_8  and  C_11
REMARK    4  A    between atoms: C_11  and  C_12
REMARK    5  A    between atoms: O_18  and  C_24
REMARK    6  A    between atoms: C_20  and  O_27
REMARK    7  A    between atoms: C_21  and  O_25
REMARK    8  A    between atoms: C_22  and  C_31
REMARK    9  A    between atoms: C_23  and  O_29
REMARK   10  A    between atoms: C_31  and  O_32
REMARK                            x       y       z     vdW  Elec       q    Type
REMARK                         _______ _______ _______ _____ _____    ______ ____
ROOT
ATOM      1  C   UNL     1      32.622 -24.155 -13.320  0.00  0.00    +0.142 C 
ATOM      2  C   UNL     1      32.457 -23.399 -14.477  0.00  0.00    +0.042 C 
ATOM      3  C   UNL     1      31.695 -25.135 -12.978  0.00  0.00    +0.037 C 
ATOM      4  C   UNL     1      31.353 -23.624 -15.299  0.00  0.00    +0.056 C 
ATOM      5  C   UNL     1      30.592 -25.360 -13.802  0.00  0.00    +0.003 C 
ATOM      6  C   UNL     1      30.421 -24.605 -14.962  0.00  0.00    +0.005 C 
ENDROOT
BRANCH   4   9
ATOM      7  O   UNL     1      30.087 -22.325 -16.804  0.00  0.00    -0.270 OA
ATOM      8  N   UNL     1      32.312 -22.666 -17.302  0.00  0.00    -0.297 N 
ATOM      9  C   UNL     1      31.176 -22.837 -16.509  0.00  0.00    +0.246 C 
ATOM     10  H   UNL     1      33.153 -23.095 -17.022  0.00  0.00    +0.150 HD
BRANCH   8  11
ATOM     11  C   UNL     1      32.305 -21.885 -18.518  0.00  0.00    +0.117 C 
BRANCH  11  12
ATOM     12  C   UNL     1      33.692 -21.526 -18.964  0.00  0.00    -0.003 C 
ATOM     13  C   UNL     1      33.868 -20.640 -20.021  0.00  0.00    -0.003 C 
ATOM     14  C   UNL     1      34.789 -22.085 -18.317  0.00  0.00    -0.003 C 
ATOM     15  C   UNL     1      35.158 -20.307 -20.436  0.00  0.00    -0.000 C 
ATOM     16  C   UNL     1      36.078 -21.751 -18.732  0.00  0.00    -0.000 C 
ATOM     17  C   UNL     1      36.262 -20.862 -19.791  0.00  0.00    -0.000 C 
ENDBRANCH  11  12
ENDBRANCH   8  11
ENDBRANCH   4   9
BRANCH   1  18
ATOM     18  O   UNL     1      33.705 -23.934 -12.513  0.00  0.00    -0.451 OA
BRANCH  18  24
ATOM     19  O   UNL     1      35.507 -24.656 -13.865  0.00  0.00    -0.316 OA
ATOM     20  C   UNL     1      37.144 -23.163 -12.835  0.00  0.00    +0.169 C 
ATOM     21  C   UNL     1      36.461 -23.363 -11.478  0.00  0.00    +0.173 C 
ATOM     22  C   UNL     1      36.136 -23.370 -13.973  0.00  0.00    +0.177 C 
ATOM     23  C   UNL     1      35.739 -24.710 -11.445  0.00  0.00    +0.210 C 
ATOM     24  C   UNL     1      34.794 -24.846 -12.640  0.00  0.00    +0.318 C 
BRANCH  21  25
ATOM     25  O   UNL     1      37.430 -23.322 -10.435  0.00  0.00    -0.379 OA
ATOM     26  H   UNL     1      37.211 -22.605  -9.818  0.00  0.00    +0.211 HD
ENDBRANCH  21  25
BRANCH  20  27
ATOM     27  O   UNL     1      38.206 -24.109 -12.979  0.00  0.00    -0.379 OA
ATOM     28  H   UNL     1      37.988 -24.734 -13.688  0.00  0.00    +0.211 HD
ENDBRANCH  20  27
BRANCH  23  29
ATOM     29  O   UNL     1      34.994 -24.842 -10.238  0.00  0.00    -0.377 OA
ATOM     30  H   UNL     1      34.407 -25.611 -10.304  0.00  0.00    +0.211 HD
ENDBRANCH  23  29
BRANCH  22  31
ATOM     31  C   UNL     1      36.790 -23.301 -15.348  0.00  0.00    +0.169 C 
BRANCH  31  32
ATOM     32  O   UNL     1      37.870 -22.386 -15.290  0.00  0.00    -0.379 OA
ATOM     33  H   UNL     1      37.948 -21.922 -16.137  0.00  0.00    +0.211 HD
ENDBRANCH  31  32
ENDBRANCH  22  31
ENDBRANCH  18  24
ENDBRANCH   1  18
TORSDOF 10
ENDMDL
MODEL 5
REMARK VINA RESULT:     -10.7      1.778      2.817
REMARK  Name = 445579
REMARK  10 active torsions:
REMARK  status: ('A' for Active; 'I' for Inactive)
REMARK    1  A    between atoms: C_1  and  O_18
REMARK    2  A    between atoms: C_4  and  C_9
REMARK    3  A    between atoms: N_8  and  C_11
REMARK    4  A    between atoms: C_11  and  C_12
REMARK    5  A    between atoms: O_18  and  C_24
REMARK    6  A    between atoms: C_20  and  O_27
REMARK    7  A    between atoms: C_21  and  O_25
REMARK    8  A    between atoms: C_22  and  C_31
REMARK    9  A    between atoms: C_23  and  O_29
REMARK   10  A    between atoms: C_31  and  O_32
REMARK                            x       y       z     vdW  Elec       q    Type
REMARK                         _______ _______ _______ _____ _____    ______ ____
ROOT
ATOM      1  C   UNL     1      34.893 -22.715 -16.597  0.00  0.00    +0.142 C 
ATOM      2  C   UNL     1      35.734 -22.033 -17.471  0.00  0.00    +0.042 C 
ATOM      3  C   UNL     1      33.580 -23.000 -16.958  0.00  0.00    +0.037 C 
ATOM      4  C   UNL     1      35.256 -21.631 -18.718  0.00  0.00    +0.056 C 
ATOM      5  C   UNL     1      33.103 -22.598 -18.205  0.00  0.00    +0.003 C 
ATOM      6  C   UNL     1      33.941 -21.913 -19.085  0.00  0.00    +0.005 C 
ENDROOT
BRANCH   4   9
ATOM      7  O   UNL     1      37.247 -21.354 -19.948  0.00  0.00    -0.270 OA
ATOM      8  N   UNL     1      35.625 -19.731 -20.169  0.00  0.00    -0.297 N 
ATOM      9  C   UNL     1      36.131 -20.918 -19.636  0.00  0.00    +0.246 C 
ATOM     10  H   UNL     1      34.730 -19.430 -19.888  0.00  0.00    +0.150 HD
BRANCH   8  11
ATOM     11  C   UNL     1      36.360 -18.926 -21.119  0.00  0.00    +0.117 C 
BRANCH  11  12
ATOM     12  C   UNL     1      35.513 -18.526 -22.291  0.00  0.00    -0.003 C 
ATOM     13  C   UNL     1      34.820 -19.499 -23.003  0.00  0.00    -0.003 C 
ATOM     14  C   UNL     1      35.430 -17.187 -22.656  0.00  0.00    -0.003 C 
ATOM     15  C   UNL     1      34.033 -19.128 -24.094  0.00  0.00    -0.000 C 
ATOM     16  C   UNL     1      34.642 -16.816 -23.745  0.00  0.00    -0.000 C 
ATOM     17  C   UNL     1      33.944 -17.786 -24.464  0.00  0.00    -0.000 C 
ENDBRANCH  11  12
ENDBRANCH   8  11
ENDBRANCH   4   9
BRANCH   1  18
ATOM     18  O   UNL     1      35.362 -23.110 -15.373  0.00  0.00    -0.451 OA
BRANCH  18  24
ATOM     19  O   UNL     1      36.156 -25.309 -15.004  0.00  0.00    -0.316 OA
ATOM     20  C   UNL     1      36.716 -24.929 -12.656  0.00  0.00    +0.169 C 
ATOM     21  C   UNL     1      35.491 -24.020 -12.519  0.00  0.00    +0.173 C 
ATOM     22  C   UNL     1      37.213 -24.935 -14.107  0.00  0.00    +0.177 C 
ATOM     23  C   UNL     1      34.429 -24.406 -13.548  0.00  0.00    +0.210 C 
ATOM     24  C   UNL     1      35.027 -24.432 -14.956  0.00  0.00    +0.318 C 
BRANCH  21  25
ATOM     25  O   UNL     1      34.942 -24.137 -11.209  0.00  0.00    -0.379 OA
ATOM     26  H   UNL     1      35.558 -23.755 -10.564  0.00  0.00    +0.211 HD
ENDBRANCH  21  25
BRANCH  20  27
ATOM     27  O   UNL     1      36.366 -26.263 -12.282  0.00  0.00    -0.379 OA
ATOM     28  H   UNL     1      36.497 -26.856 -13.038  0.00  0.00    +0.211 HD
ENDBRANCH  20  27
BRANCH  23  29
ATOM     29  O   UNL     1      33.347 -23.482 -13.513  0.00  0.00    -0.377 OA
ATOM     30  H   UNL     1      33.370 -22.927 -14.308  0.00  0.00    +0.211 HD
ENDBRANCH  23  29
BRANCH  22  31
ATOM     31  C   UNL     1      38.358 -25.918 -14.325  0.00  0.00    +0.169 C 
BRANCH  31  32
ATOM     32  O   UNL     1      37.825 -27.229 -14.379  0.00  0.00    -0.379 OA
ATOM     33  H   UNL     1      37.944 -27.591 -15.270  0.00  0.00    +0.211 HD
ENDBRANCH  31  32
ENDBRANCH  22  31
ENDBRANCH  18  24
ENDBRANCH   1  18
TORSDOF 10
ENDMDL
MODEL 6
REMARK VINA RESULT:     -10.7      2.418      4.331
REMARK  Name = 445579
REMARK  10 active torsions:
REMARK  status: ('A' for Active; 'I' for Inactive)
REMARK    1  A    between atoms: C_1  and  O_18
REMARK    2  A    between atoms: C_4  and  C_9
REMARK    3  A    between atoms: N_8  and  C_11
REMARK    4  A    between atoms: C_11  and  C_12
REMARK    5  A    between atoms: O_18  and  C_24
REMARK    6  A    between atoms: C_20  and  O_27
REMARK    7  A    between atoms: C_21  and  O_25
REMARK    8  A    between atoms: C_22  and  C_31
REMARK    9  A    between atoms: C_23  and  O_29
REMARK   10  A    between atoms: C_31  and  O_32
REMARK                            x       y       z     vdW  Elec       q    Type
REMARK                         _______ _______ _______ _____ _____    ______ ____
ROOT
ATOM      1  C   UNL     1      34.722 -22.341 -17.976  0.00  0.00    +0.142 C 
ATOM      2  C   UNL     1      35.503 -21.528 -18.792  0.00  0.00    +0.042 C 
ATOM      3  C   UNL     1      33.339 -22.379 -18.133  0.00  0.00    +0.037 C 
ATOM      4  C   UNL     1      34.895 -20.744 -19.773  0.00  0.00    +0.056 C 
ATOM      5  C   UNL     1      32.733 -21.596 -19.114  0.00  0.00    +0.003 C 
ATOM      6  C   UNL     1      33.510 -20.779 -19.934  0.00  0.00    +0.005 C 
ENDROOT
BRANCH   4   9
ATOM      7  O   UNL     1      36.863 -19.571 -20.325  0.00  0.00    -0.270 OA
ATOM      8  N   UNL     1      35.116 -19.485 -21.826  0.00  0.00    -0.297 N 
ATOM      9  C   UNL     1      35.706 -19.892 -20.628  0.00  0.00    +0.246 C 
ATOM     10  H   UNL     1      34.193 -19.770 -22.020  0.00  0.00    +0.150 HD
BRANCH   8  11
ATOM     11  C   UNL     1      35.805 -18.664 -22.796  0.00  0.00    +0.117 C 
BRANCH  11  12
ATOM     12  C   UNL     1      35.174 -17.309 -22.934  0.00  0.00    -0.003 C 
ATOM     13  C   UNL     1      35.071 -16.482 -21.821  0.00  0.00    -0.003 C 
ATOM     14  C   UNL     1      34.699 -16.893 -24.173  0.00  0.00    -0.003 C 
ATOM     15  C   UNL     1      34.484 -15.223 -21.948  0.00  0.00    -0.000 C 
ATOM     16  C   UNL     1      34.114 -15.634 -24.300  0.00  0.00    -0.000 C 
ATOM     17  C   UNL     1      34.006 -14.799 -23.188  0.00  0.00    -0.000 C 
ENDBRANCH  11  12
ENDBRANCH   8  11
ENDBRANCH   4   9
BRANCH   1  18
ATOM     18  O   UNL     1      35.318 -23.109 -17.013  0.00  0.00    -0.451 OA
BRANCH  18  24
ATOM     19  O   UNL     1      34.476 -22.628 -14.855  0.00  0.00    -0.316 OA
ATOM     20  C   UNL     1      35.431 -24.623 -13.816  0.00  0.00    +0.169 C 
ATOM     21  C   UNL     1      36.663 -24.493 -14.718  0.00  0.00    +0.173 C 
ATOM     22  C   UNL     1      34.208 -23.992 -14.494  0.00  0.00    +0.177 C 
ATOM     23  C   UNL     1      36.856 -23.037 -15.140  0.00  0.00    +0.210 C 
ATOM     24  C   UNL     1      35.573 -22.479 -15.760  0.00  0.00    +0.318 C 
BRANCH  21  25
ATOM     25  O   UNL     1      37.824 -24.940 -14.024  0.00  0.00    -0.379 OA
ATOM     26  H   UNL     1      38.011 -24.341 -13.285  0.00  0.00    +0.211 HD
ENDBRANCH  21  25
BRANCH  20  27
ATOM     27  O   UNL     1      35.673 -23.951 -12.578  0.00  0.00    -0.379 OA
ATOM     28  H   UNL     1      36.532 -23.502 -12.616  0.00  0.00    +0.211 HD
ENDBRANCH  20  27
BRANCH  23  29
ATOM     29  O   UNL     1      37.918 -22.932 -16.083  0.00  0.00    -0.377 OA
ATOM     30  H   UNL     1      37.780 -22.150 -16.640  0.00  0.00    +0.211 HD
ENDBRANCH  23  29
BRANCH  22  31
ATOM     31  C   UNL     1      32.982 -23.986 -13.589  0.00  0.00    +0.169 C 
BRANCH  31  32
ATOM     32  O   UNL     1      33.093 -25.057 -12.668  0.00  0.00    -0.379 OA
ATOM     33  H   UNL     1      32.508 -24.897 -11.912  0.00  0.00    +0.211 HD
ENDBRANCH  31  32
ENDBRANCH  22  31
ENDBRANCH  18  24
ENDBRANCH   1  18
TORSDOF 10
ENDMDL
MODEL 7
REMARK VINA RESULT:     -10.6      1.591      2.422
REMARK  Name = 445579
REMARK  10 active torsions:
REMARK  status: ('A' for Active; 'I' for Inactive)
REMARK    1  A    between atoms: C_1  and  O_18
REMARK    2  A    between atoms: C_4  and  C_9
REMARK    3  A    between atoms: N_8  and  C_11
REMARK    4  A    between atoms: C_11  and  C_12
REMARK    5  A    between atoms: O_18  and  C_24
REMARK    6  A    between atoms: C_20  and  O_27
REMARK    7  A    between atoms: C_21  and  O_25
REMARK    8  A    between atoms: C_22  and  C_31
REMARK    9  A    between atoms: C_23  and  O_29
REMARK   10  A    between atoms: C_31  and  O_32
REMARK                            x       y       z     vdW  Elec       q    Type
REMARK                         _______ _______ _______ _____ _____    ______ ____
ROOT
ATOM      1  C   UNL     1      35.931 -22.643 -15.212  0.00  0.00    +0.142 C 
ATOM      2  C   UNL     1      35.030 -22.553 -16.269  0.00  0.00    +0.042 C 
ATOM      3  C   UNL     1      37.266 -22.294 -15.390  0.00  0.00    +0.037 C 
ATOM      4  C   UNL     1      35.470 -22.111 -17.518  0.00  0.00    +0.056 C 
ATOM      5  C   UNL     1      37.705 -21.852 -16.638  0.00  0.00    +0.003 C 
ATOM      6  C   UNL     1      36.808 -21.760 -17.701  0.00  0.00    +0.005 C 
ENDROOT
BRANCH   4   9
ATOM      7  O   UNL     1      33.687 -22.891 -18.846  0.00  0.00    -0.270 OA
ATOM      8  N   UNL     1      34.623 -20.861 -19.407  0.00  0.00    -0.297 N 
ATOM      9  C   UNL     1      34.534 -22.014 -18.626  0.00  0.00    +0.246 C 
ATOM     10  H   UNL     1      35.314 -20.194 -19.187  0.00  0.00    +0.150 HD
BRANCH   8  11
ATOM     11  C   UNL     1      33.742 -20.603 -20.523  0.00  0.00    +0.117 C 
BRANCH  11  12
ATOM     12  C   UNL     1      34.281 -19.536 -21.431  0.00  0.00    -0.003 C 
ATOM     13  C   UNL     1      35.147 -18.575 -20.922  0.00  0.00    -0.003 C 
ATOM     14  C   UNL     1      33.909 -19.519 -22.770  0.00  0.00    -0.003 C 
ATOM     15  C   UNL     1      35.648 -17.582 -21.766  0.00  0.00    -0.000 C 
ATOM     16  C   UNL     1      34.411 -18.527 -23.613  0.00  0.00    -0.000 C 
ATOM     17  C   UNL     1      35.280 -17.559 -23.111  0.00  0.00    -0.000 C 
ENDBRANCH  11  12
ENDBRANCH   8  11
ENDBRANCH   4   9
BRANCH   1  18
ATOM     18  O   UNL     1      35.499 -23.076 -13.988  0.00  0.00    -0.451 OA
BRANCH  18  24
ATOM     19  O   UNL     1      36.390 -25.264 -14.130  0.00  0.00    -0.316 OA
ATOM     20  C   UNL     1      37.017 -25.380 -11.771  0.00  0.00    +0.169 C 
ATOM     21  C   UNL     1      35.763 -24.579 -11.407  0.00  0.00    +0.173 C 
ATOM     22  C   UNL     1      37.463 -25.047 -13.201  0.00  0.00    +0.177 C 
ATOM     23  C   UNL     1      34.682 -24.780 -12.468  0.00  0.00    +0.210 C 
ATOM     24  C   UNL     1      35.230 -24.472 -13.863  0.00  0.00    +0.318 C 
BRANCH  21  25
ATOM     25  O   UNL     1      35.265 -25.003 -10.141  0.00  0.00    -0.379 OA
ATOM     26  H   UNL     1      34.309 -25.154 -10.203  0.00  0.00    +0.211 HD
ENDBRANCH  21  25
BRANCH  20  27
ATOM     27  O   UNL     1      36.732 -26.778 -11.689  0.00  0.00    -0.379 OA
ATOM     28  H   UNL     1      37.093 -27.228 -12.469  0.00  0.00    +0.211 HD
ENDBRANCH  20  27
BRANCH  23  29
ATOM     29  O   UNL     1      33.566 -23.936 -12.204  0.00  0.00    -0.377 OA
ATOM     30  H   UNL     1      33.881 -23.075 -11.885  0.00  0.00    +0.211 HD
ENDBRANCH  23  29
BRANCH  22  31
ATOM     31  C   UNL     1      38.637 -25.905 -13.658  0.00  0.00    +0.169 C 
BRANCH  31  32
ATOM     32  O   UNL     1      38.130 -27.097 -14.233  0.00  0.00    -0.379 OA
ATOM     33  H   UNL     1      37.235 -27.263 -13.897  0.00  0.00    +0.211 HD
ENDBRANCH  31  32
ENDBRANCH  22  31
ENDBRANCH  18  24
ENDBRANCH   1  18
TORSDOF 10
ENDMDL
MODEL 8
REMARK VINA RESULT:     -10.0      1.863      3.259
REMARK  Name = 445579
REMARK  10 active torsions:
REMARK  status: ('A' for Active; 'I' for Inactive)
REMARK    1  A    between atoms: C_1  and  O_18
REMARK    2  A    between atoms: C_4  and  C_9
REMARK    3  A    between atoms: N_8  and  C_11
REMARK    4  A    between atoms: C_11  and  C_12
REMARK    5  A    between atoms: O_18  and  C_24
REMARK    6  A    between atoms: C_20  and  O_27
REMARK    7  A    between atoms: C_21  and  O_25
REMARK    8  A    between atoms: C_22  and  C_31
REMARK    9  A    between atoms: C_23  and  O_29
REMARK   10  A    between atoms: C_31  and  O_32
REMARK                            x       y       z     vdW  Elec       q    Type
REMARK                         _______ _______ _______ _____ _____    ______ ____
ROOT
ATOM      1  C   UNL     1      34.897 -23.257 -16.170  0.00  0.00    +0.142 C 
ATOM      2  C   UNL     1      35.765 -22.407 -16.849  0.00  0.00    +0.042 C 
ATOM      3  C   UNL     1      33.625 -23.516 -16.671  0.00  0.00    +0.037 C 
ATOM      4  C   UNL     1      35.355 -21.809 -18.041  0.00  0.00    +0.056 C 
ATOM      5  C   UNL     1      33.217 -22.919 -17.864  0.00  0.00    +0.003 C 
ATOM      6  C   UNL     1      34.082 -22.066 -18.549  0.00  0.00    +0.005 C 
ENDROOT
BRANCH   4   9
ATOM      7  O   UNL     1      37.403 -20.684 -18.348  0.00  0.00    -0.270 OA
ATOM      8  N   UNL     1      35.770 -20.375 -19.944  0.00  0.00    -0.297 N 
ATOM      9  C   UNL     1      36.258 -20.920 -18.756  0.00  0.00    +0.246 C 
ATOM     10  H   UNL     1      34.851 -20.596 -20.224  0.00  0.00    +0.150 HD
BRANCH   8  11
ATOM     11  C   UNL     1      36.556 -19.499 -20.783  0.00  0.00    +0.117 C 
BRANCH  11  12
ATOM     12  C   UNL     1      35.739 -18.894 -21.887  0.00  0.00    -0.003 C 
ATOM     13  C   UNL     1      35.766 -17.519 -22.088  0.00  0.00    -0.003 C 
ATOM     14  C   UNL     1      34.963 -19.715 -22.698  0.00  0.00    -0.003 C 
ATOM     15  C   UNL     1      35.005 -16.956 -23.114  0.00  0.00    -0.000 C 
ATOM     16  C   UNL     1      34.204 -19.152 -23.724  0.00  0.00    -0.000 C 
ATOM     17  C   UNL     1      34.225 -17.773 -23.932  0.00  0.00    -0.000 C 
ENDBRANCH  11  12
ENDBRANCH   8  11
ENDBRANCH   4   9
BRANCH   1  18
ATOM     18  O   UNL     1      35.298 -23.843 -15.000  0.00  0.00    -0.451 OA
BRANCH  18  24
ATOM     19  O   UNL     1      37.255 -23.247 -13.810  0.00  0.00    -0.316 OA
ATOM     20  C   UNL     1      36.996 -24.986 -12.113  0.00  0.00    +0.169 C 
ATOM     21  C   UNL     1      36.442 -25.934 -13.181  0.00  0.00    +0.173 C 
ATOM     22  C   UNL     1      36.725 -23.528 -12.505  0.00  0.00    +0.177 C 
ATOM     23  C   UNL     1      36.971 -25.543 -14.560  0.00  0.00    +0.210 C 
ATOM     24  C   UNL     1      36.699 -24.064 -14.843  0.00  0.00    +0.318 C 
BRANCH  21  25
ATOM     25  O   UNL     1      36.829 -27.274 -12.891  0.00  0.00    -0.379 OA
ATOM     26  H   UNL     1      37.797 -27.330 -12.848  0.00  0.00    +0.211 HD
ENDBRANCH  21  25
BRANCH  20  27
ATOM     27  O   UNL     1      38.408 -25.177 -11.990  0.00  0.00    -0.379 OA
ATOM     28  H   UNL     1      38.659 -26.012 -12.417  0.00  0.00    +0.211 HD
ENDBRANCH  20  27
BRANCH  23  29
ATOM     29  O   UNL     1      36.355 -26.337 -15.569  0.00  0.00    -0.377 OA
ATOM     30  H   UNL     1      35.813 -25.770 -16.140  0.00  0.00    +0.211 HD
ENDBRANCH  23  29
BRANCH  22  31
ATOM     31  C   UNL     1      37.362 -22.538 -11.537  0.00  0.00    +0.169 C 
BRANCH  31  32
ATOM     32  O   UNL     1      37.244 -23.051 -10.222  0.00  0.00    -0.379 OA
ATOM     33  H   UNL     1      37.016 -23.992 -10.261  0.00  0.00    +0.211 HD
ENDBRANCH  31  32
ENDBRANCH  22  31
ENDBRANCH  18  24
ENDBRANCH   1  18
TORSDOF 10
ENDMDL
MODEL 9
REMARK VINA RESULT:      -9.9     10.250     14.627
REMARK  Name = 445579
REMARK  10 active torsions:
REMARK  status: ('A' for Active; 'I' for Inactive)
REMARK    1  A    between atoms: C_1  and  O_18
REMARK    2  A    between atoms: C_4  and  C_9
REMARK    3  A    between atoms: N_8  and  C_11
REMARK    4  A    between atoms: C_11  and  C_12
REMARK    5  A    between atoms: O_18  and  C_24
REMARK    6  A    between atoms: C_20  and  O_27
REMARK    7  A    between atoms: C_21  and  O_25
REMARK    8  A    between atoms: C_22  and  C_31
REMARK    9  A    between atoms: C_23  and  O_29
REMARK   10  A    between atoms: C_31  and  O_32
REMARK                            x       y       z     vdW  Elec       q    Type
REMARK                         _______ _______ _______ _____ _____    ______ ____
ROOT
ATOM      1  C   UNL     1      32.214 -12.147 -21.706  0.00  0.00    +0.142 C 
ATOM      2  C   UNL     1      32.092 -10.858 -22.215  0.00  0.00    +0.042 C 
ATOM      3  C   UNL     1      31.991 -12.397 -20.355  0.00  0.00    +0.037 C 
ATOM      4  C   UNL     1      31.744  -9.808 -21.365  0.00  0.00    +0.056 C 
ATOM      5  C   UNL     1      31.643 -11.346 -19.506  0.00  0.00    +0.003 C 
ATOM      6  C   UNL     1      31.519 -10.052 -20.010  0.00  0.00    +0.005 C 
ENDROOT
BRANCH   4   9
ATOM      7  O   UNL     1      30.771  -8.170 -22.753  0.00  0.00    -0.270 OA
ATOM      8  N   UNL     1      32.472  -7.501 -21.348  0.00  0.00    -0.297 N 
ATOM      9  C   UNL     1      31.614  -8.458 -21.892  0.00  0.00    +0.246 C 
ATOM     10  H   UNL     1      33.124  -7.784 -20.665  0.00  0.00    +0.150 HD
BRANCH   8  11
ATOM     11  C   UNL     1      32.444  -6.111 -21.744  0.00  0.00    +0.117 C 
BRANCH  11  12
ATOM     12  C   UNL     1      33.117  -5.890 -23.067  0.00  0.00    -0.003 C 
ATOM     13  C   UNL     1      32.517  -5.069 -24.015  0.00  0.00    -0.003 C 
ATOM     14  C   UNL     1      34.334  -6.509 -23.333  0.00  0.00    -0.003 C 
ATOM     15  C   UNL     1      33.143  -4.864 -25.246  0.00  0.00    -0.000 C 
ATOM     16  C   UNL     1      34.959  -6.303 -24.562  0.00  0.00    -0.000 C 
ATOM     17  C   UNL     1      34.364  -5.480 -25.518  0.00  0.00    -0.000 C 
ENDBRANCH  11  12
ENDBRANCH   8  11
ENDBRANCH   4   9
BRANCH   1  18
ATOM     18  O   UNL     1      32.556 -13.177 -22.539  0.00  0.00    -0.451 OA
BRANCH  18  24
ATOM     19  O   UNL     1      34.670 -14.167 -22.153  0.00  0.00    -0.316 OA
ATOM     20  C   UNL     1      34.322 -16.004 -23.727  0.00  0.00    +0.169 C 
ATOM     21  C   UNL     1      33.554 -15.056 -24.652  0.00  0.00    +0.173 C 
ATOM     22  C   UNL     1      34.220 -15.526 -22.272  0.00  0.00    +0.177 C 
ATOM     23  C   UNL     1      34.012 -13.615 -24.428  0.00  0.00    +0.210 C 
ATOM     24  C   UNL     1      33.921 -13.243 -22.947  0.00  0.00    +0.318 C 
BRANCH  21  25
ATOM     25  O   UNL     1      33.778 -15.415 -26.013  0.00  0.00    -0.379 OA
ATOM     26  H   UNL     1      33.135 -14.959 -26.578  0.00  0.00    +0.211 HD
ENDBRANCH  21  25
BRANCH  20  27
ATOM     27  O   UNL     1      35.699 -16.034 -24.109  0.00  0.00    -0.379 OA
ATOM     28  H   UNL     1      36.110 -15.180 -23.903  0.00  0.00    +0.211 HD
ENDBRANCH  20  27
BRANCH  23  29
ATOM     29  O   UNL     1      33.210 -12.717 -25.189  0.00  0.00    -0.377 OA
ATOM     30  H   UNL     1      33.218 -11.842 -24.770  0.00  0.00    +0.211 HD
ENDBRANCH  23  29
BRANCH  22  31
ATOM     31  C   UNL     1      35.066 -16.367 -21.324  0.00  0.00    +0.169 C 
BRANCH  31  32
ATOM     32  O   UNL     1      35.139 -17.687 -21.832  0.00  0.00    -0.379 OA
ATOM     33  H   UNL     1      35.258 -18.310 -21.098  0.00  0.00    +0.211 HD
ENDBRANCH  31  32
ENDBRANCH  22  31
ENDBRANCH  18  24
ENDBRANCH   1  18
TORSDOF 10
ENDMDL
