MODEL 1
REMARK VINA RESULT:     -12.3      0.000      0.000
REMARK  Name = 10297043
REMARK  6 active torsions:
REMARK  status: ('A' for Active; 'I' for Inactive)
REMARK    1  A    between atoms: N_2  and  C_30
REMARK    2  A    between atoms: C_5  and  C_16
REMARK    3  A    between atoms: C_13  and  C_19
REMARK    4  A    between atoms: C_19  and  N_20
REMARK    5  A    between atoms: N_21  and  C_28
REMARK    6  A    between atoms: C_30  and  C_32
REMARK                            x       y       z     vdW  Elec       q    Type
REMARK                         _______ _______ _______ _____ _____    ______ ____
ROOT
ATOM      1  N   UNL     1      32.312 -22.105 -18.035  0.00  0.00    -0.301 N 
ATOM      2  N   UNL     1      34.935 -24.138 -14.756  0.00  0.00    -0.319 N 
ATOM      3  N   UNL     1      31.097 -23.251 -16.296  0.00  0.00    -0.233 NA
ATOM      4  N   UNL     1      32.555 -24.275 -14.636  0.00  0.00    -0.233 NA
ATOM      5  C   UNL     1      33.627 -21.873 -18.345  0.00  0.00    +0.046 C 
ATOM      6  C   UNL     1      33.531 -23.091 -16.447  0.00  0.00    +0.131 C 
ATOM      7  C   UNL     1      34.406 -22.473 -17.377  0.00  0.00    +0.003 C 
ATOM      8  C   UNL     1      32.235 -22.845 -16.885  0.00  0.00    +0.117 C 
ATOM      9  C   UNL     1      33.664 -23.837 -15.277  0.00  0.00    +0.113 C 
ATOM     10  C   UNL     1      31.356 -23.960 -15.178  0.00  0.00    +0.252 C 
ATOM     11  H   UNL     1      31.541 -21.789 -18.560  0.00  0.00    +0.153 HD
ATOM     12  H   UNL     1      35.729 -23.810 -15.237  0.00  0.00    +0.148 HD
ENDROOT
BRANCH   5  16
ATOM     13  C   UNL     1      34.767 -19.668 -21.760  0.00  0.00    -0.043 C 
ATOM     14  C   UNL     1      33.419 -19.815 -21.454  0.00  0.00    -0.006 C 
ATOM     15  C   UNL     1      35.744 -20.240 -20.954  0.00  0.00    -0.006 C 
ATOM     16  C   UNL     1      34.017 -21.120 -19.511  0.00  0.00    +0.013 C 
ATOM     17  C   UNL     1      33.043 -20.543 -20.325  0.00  0.00    +0.001 C 
ATOM     18  C   UNL     1      35.367 -20.968 -19.825  0.00  0.00    +0.001 C 
BRANCH  13  19
ATOM     19  C   UNL     1      35.172 -18.885 -22.975  0.00  0.00    -0.050 C 
BRANCH  19  20
ATOM     20  N   UNL     1      34.522 -17.577 -23.023  0.00  0.00    +0.387 N 
ATOM     21  N   UNL     1      34.505 -14.727 -23.507  0.00  0.00    +0.384 N 
ATOM     22  C   UNL     1      35.165 -16.641 -22.091  0.00  0.00    -0.100 C 
ATOM     23  C   UNL     1      34.540 -17.035 -24.388  0.00  0.00    -0.100 C 
ATOM     24  C   UNL     1      34.488 -15.268 -22.143  0.00  0.00    -0.101 C 
ATOM     25  C   UNL     1      33.862 -15.662 -24.437  0.00  0.00    -0.101 C 
ATOM     26  H   UNL     1      33.550 -17.698 -22.738  0.00  0.00    -0.079 HD
ATOM     27  H   UNL     1      35.477 -14.607 -23.793  0.00  0.00    -0.080 HD
BRANCH  21  28
ATOM     28  C   UNL     1      33.857 -13.418 -23.555  0.00  0.00    -0.078 C 
ATOM     29  C   UNL     1      32.808 -13.284 -22.465  0.00  0.00    -0.025 C 
ENDBRANCH  21  28
ENDBRANCH  19  20
ENDBRANCH  13  19
ENDBRANCH   5  16
BRANCH   2  30
ATOM     30  C   UNL     1      35.129 -24.900 -13.560  0.00  0.00    +0.093 C 
ATOM     31  C   UNL     1      34.569 -24.120 -12.372  0.00  0.00    +0.026 C 
BRANCH  30  32
ATOM     32  C   UNL     1      36.589 -25.261 -13.398  0.00  0.00    -0.005 C 
ATOM     33  C   UNL     1      37.085 -25.521 -12.132  0.00  0.00    -0.003 C 
ATOM     34  C   UNL     1      37.399 -25.322 -14.518  0.00  0.00    -0.003 C 
ATOM     35  C   UNL     1      38.430 -25.853 -11.982  0.00  0.00    -0.000 C 
ATOM     36  C   UNL     1      38.745 -25.654 -14.369  0.00  0.00    -0.000 C 
ATOM     37  C   UNL     1      39.261 -25.919 -13.101  0.00  0.00    -0.000 C 
ENDBRANCH  30  32
ENDBRANCH   2  30
TORSDOF 6
ENDMDL
MODEL 2
REMARK VINA RESULT:     -12.2      2.659     12.161
REMARK  Name = 10297043
REMARK  6 active torsions:
REMARK  status: ('A' for Active; 'I' for Inactive)
REMARK    1  A    between atoms: N_2  and  C_30
REMARK    2  A    between atoms: C_5  and  C_16
REMARK    3  A    between atoms: C_13  and  C_19
REMARK    4  A    between atoms: C_19  and  N_20
REMARK    5  A    between atoms: N_21  and  C_28
REMARK    6  A    between atoms: C_30  and  C_32
REMARK                            x       y       z     vdW  Elec       q    Type
REMARK                         _______ _______ _______ _____ _____    ______ ____
ROOT
ATOM      1  N   UNL     1      34.517 -17.253 -24.094  0.00  0.00    -0.301 N 
ATOM      2  N   UNL     1      33.673 -12.771 -23.112  0.00  0.00    -0.319 N 
ATOM      3  N   UNL     1      33.730 -15.916 -25.940  0.00  0.00    -0.233 NA
ATOM      4  N   UNL     1      33.320 -13.596 -25.325  0.00  0.00    -0.233 NA
ATOM      5  C   UNL     1      34.799 -17.052 -22.767  0.00  0.00    +0.046 C 
ATOM      6  C   UNL     1      34.101 -15.103 -23.665  0.00  0.00    +0.131 C 
ATOM      7  C   UNL     1      34.551 -15.728 -22.474  0.00  0.00    +0.003 C 
ATOM      8  C   UNL     1      34.090 -16.079 -24.655  0.00  0.00    +0.117 C 
ATOM      9  C   UNL     1      33.695 -13.824 -24.044  0.00  0.00    +0.113 C 
ATOM     10  C   UNL     1      33.359 -14.642 -26.181  0.00  0.00    +0.252 C 
ATOM     11  H   UNL     1      34.606 -18.110 -24.570  0.00  0.00    +0.153 HD
ATOM     12  H   UNL     1      33.949 -12.958 -22.186  0.00  0.00    +0.148 HD
ENDROOT
BRANCH   5  16
ATOM     13  C   UNL     1      36.170 -20.171 -20.273  0.00  0.00    -0.043 C 
ATOM     14  C   UNL     1      34.847 -20.164 -20.702  0.00  0.00    -0.006 C 
ATOM     15  C   UNL     1      37.046 -19.162 -20.656  0.00  0.00    -0.006 C 
ATOM     16  C   UNL     1      35.268 -18.118 -21.916  0.00  0.00    +0.013 C 
ATOM     17  C   UNL     1      34.395 -19.134 -21.527  0.00  0.00    +0.001 C 
ATOM     18  C   UNL     1      36.593 -18.132 -21.481  0.00  0.00    +0.001 C 
BRANCH  13  19
ATOM     19  C   UNL     1      36.657 -21.280 -19.385  0.00  0.00    -0.050 C 
BRANCH  19  20
ATOM     20  N   UNL     1      35.727 -21.551 -18.291  0.00  0.00    +0.387 N 
ATOM     21  N   UNL     1      34.408 -23.305 -16.409  0.00  0.00    +0.384 N 
ATOM     22  C   UNL     1      34.671 -22.476 -18.722  0.00  0.00    -0.100 C 
ATOM     23  C   UNL     1      36.437 -22.091 -17.125  0.00  0.00    -0.100 C 
ATOM     24  C   UNL     1      33.697 -22.766 -17.575  0.00  0.00    -0.101 C 
ATOM     25  C   UNL     1      35.462 -22.380 -15.979  0.00  0.00    -0.101 C 
ATOM     26  H   UNL     1      35.291 -20.669 -18.022  0.00  0.00    -0.079 HD
ATOM     27  H   UNL     1      34.845 -24.187 -16.679  0.00  0.00    -0.080 HD
BRANCH  21  28
ATOM     28  C   UNL     1      33.478 -23.579 -15.316  0.00  0.00    -0.078 C 
ATOM     29  C   UNL     1      32.061 -23.174 -15.685  0.00  0.00    -0.025 C 
ENDBRANCH  21  28
ENDBRANCH  19  20
ENDBRANCH  13  19
ENDBRANCH   5  16
BRANCH   2  30
ATOM     30  C   UNL     1      33.264 -11.440 -23.447  0.00  0.00    +0.093 C 
ATOM     31  C   UNL     1      34.471 -10.662 -23.967  0.00  0.00    +0.026 C 
BRANCH  30  32
ATOM     32  C   UNL     1      32.599 -10.781 -22.259  0.00  0.00    -0.005 C 
ATOM     33  C   UNL     1      32.041 -11.574 -21.271  0.00  0.00    -0.003 C 
ATOM     34  C   UNL     1      32.562  -9.399 -22.185  0.00  0.00    -0.003 C 
ATOM     35  C   UNL     1      31.427 -10.967 -20.176  0.00  0.00    -0.000 C 
ATOM     36  C   UNL     1      31.949  -8.792 -21.090  0.00  0.00    -0.000 C 
ATOM     37  C   UNL     1      31.380  -9.575 -20.086  0.00  0.00    -0.000 C 
ENDBRANCH  30  32
ENDBRANCH   2  30
TORSDOF 6
ENDMDL
MODEL 3
REMARK VINA RESULT:     -11.0      2.044      4.223
REMARK  Name = 10297043
REMARK  6 active torsions:
REMARK  status: ('A' for Active; 'I' for Inactive)
REMARK    1  A    between atoms: N_2  and  C_30
REMARK    2  A    between atoms: C_5  and  C_16
REMARK    3  A    between atoms: C_13  and  C_19
REMARK    4  A    between atoms: C_19  and  N_20
REMARK    5  A    between atoms: N_21  and  C_28
REMARK    6  A    between atoms: C_30  and  C_32
REMARK                            x       y       z     vdW  Elec       q    Type
REMARK                         _______ _______ _______ _____ _____    ______ ____
ROOT
ATOM      1  N   UNL     1      36.990 -21.036 -18.491  0.00  0.00    -0.301 N 
ATOM      2  N   UNL     1      33.945 -23.279 -15.760  0.00  0.00    -0.319 N 
ATOM      3  N   UNL     1      37.927 -22.080 -16.530  0.00  0.00    -0.233 NA
ATOM      4  N   UNL     1      36.258 -23.223 -15.174  0.00  0.00    -0.233 NA
ATOM      5  C   UNL     1      35.746 -20.911 -19.056  0.00  0.00    +0.046 C 
ATOM      6  C   UNL     1      35.566 -22.120 -17.159  0.00  0.00    +0.131 C 
ATOM      7  C   UNL     1      34.844 -21.574 -18.251  0.00  0.00    +0.003 C 
ATOM      8  C   UNL     1      36.898 -21.767 -17.337  0.00  0.00    +0.117 C 
ATOM      9  C   UNL     1      35.265 -22.875 -16.026  0.00  0.00    +0.113 C 
ATOM     10  C   UNL     1      37.510 -22.808 -15.474  0.00  0.00    +0.252 C 
ATOM     11  H   UNL     1      37.821 -20.657 -18.859  0.00  0.00    +0.153 HD
ATOM     12  H   UNL     1      33.237 -23.016 -16.392  0.00  0.00    +0.148 HD
ENDROOT
BRANCH   5  16
ATOM     13  C   UNL     1      35.124 -18.787 -22.651  0.00  0.00    -0.043 C 
ATOM     14  C   UNL     1      36.395 -18.831 -22.089  0.00  0.00    -0.006 C 
ATOM     15  C   UNL     1      34.056 -19.434 -22.042  0.00  0.00    -0.006 C 
ATOM     16  C   UNL     1      35.534 -20.186 -20.284  0.00  0.00    +0.013 C 
ATOM     17  C   UNL     1      36.600 -19.534 -20.902  0.00  0.00    +0.001 C 
ATOM     18  C   UNL     1      34.262 -20.136 -20.854  0.00  0.00    +0.001 C 
BRANCH  13  19
ATOM     19  C   UNL     1      34.903 -18.030 -23.929  0.00  0.00    -0.050 C 
BRANCH  19  20
ATOM     20  N   UNL     1      34.249 -16.744 -23.696  0.00  0.00    +0.387 N 
ATOM     21  N   UNL     1      34.160 -13.855 -23.741  0.00  0.00    +0.384 N 
ATOM     22  C   UNL     1      35.005 -15.943 -22.725  0.00  0.00    -0.100 C 
ATOM     23  C   UNL     1      34.086 -16.006 -24.954  0.00  0.00    -0.100 C 
ATOM     24  C   UNL     1      34.323 -14.593 -22.482  0.00  0.00    -0.101 C 
ATOM     25  C   UNL     1      33.403 -14.656 -24.710  0.00  0.00    -0.101 C 
ATOM     26  H   UNL     1      33.323 -16.928 -23.309  0.00  0.00    -0.079 HD
ATOM     27  H   UNL     1      35.087 -13.673 -24.129  0.00  0.00    -0.080 HD
BRANCH  21  28
ATOM     28  C   UNL     1      33.508 -12.568 -23.508  0.00  0.00    -0.078 C 
ATOM     29  C   UNL     1      34.080 -11.491 -24.414  0.00  0.00    -0.025 C 
ENDBRANCH  21  28
ENDBRANCH  19  20
ENDBRANCH  13  19
ENDBRANCH   5  16
BRANCH   2  30
ATOM     30  C   UNL     1      33.581 -24.055 -14.613  0.00  0.00    +0.093 C 
ATOM     31  C   UNL     1      34.346 -25.376 -14.638  0.00  0.00    +0.026 C 
BRANCH  30  32
ATOM     32  C   UNL     1      32.080 -24.239 -14.558  0.00  0.00    -0.005 C 
ATOM     33  C   UNL     1      31.536 -25.066 -13.590  0.00  0.00    -0.003 C 
ATOM     34  C   UNL     1      31.283 -23.577 -15.476  0.00  0.00    -0.003 C 
ATOM     35  C   UNL     1      30.153 -25.236 -13.539  0.00  0.00    -0.000 C 
ATOM     36  C   UNL     1      29.900 -23.748 -15.425  0.00  0.00    -0.000 C 
ATOM     37  C   UNL     1      29.335 -24.577 -14.458  0.00  0.00    -0.000 C 
ENDBRANCH  30  32
ENDBRANCH   2  30
TORSDOF 6
ENDMDL
MODEL 4
REMARK VINA RESULT:     -10.7      5.139      9.975
REMARK  Name = 10297043
REMARK  6 active torsions:
REMARK  status: ('A' for Active; 'I' for Inactive)
REMARK    1  A    between atoms: N_2  and  C_30
REMARK    2  A    between atoms: C_5  and  C_16
REMARK    3  A    between atoms: C_13  and  C_19
REMARK    4  A    between atoms: C_19  and  N_20
REMARK    5  A    between atoms: N_21  and  C_28
REMARK    6  A    between atoms: C_30  and  C_32
REMARK                            x       y       z     vdW  Elec       q    Type
REMARK                         _______ _______ _______ _____ _____    ______ ____
ROOT
ATOM      1  N   UNL     1      33.142 -14.421 -24.002  0.00  0.00    -0.301 N 
ATOM      2  N   UNL     1      35.558 -17.500 -21.462  0.00  0.00    -0.319 N 
ATOM      3  N   UNL     1      33.652 -16.504 -25.103  0.00  0.00    -0.233 NA
ATOM      4  N   UNL     1      34.912 -18.040 -23.696  0.00  0.00    -0.233 NA
ATOM      5  C   UNL     1      33.378 -13.861 -22.773  0.00  0.00    +0.046 C 
ATOM      6  C   UNL     1      34.297 -15.921 -22.820  0.00  0.00    +0.131 C 
ATOM      7  C   UNL     1      34.092 -14.768 -22.019  0.00  0.00    +0.003 C 
ATOM      8  C   UNL     1      33.695 -15.674 -24.048  0.00  0.00    +0.117 C 
ATOM      9  C   UNL     1      34.921 -17.158 -22.668  0.00  0.00    +0.113 C 
ATOM     10  C   UNL     1      34.288 -17.663 -24.834  0.00  0.00    +0.252 C 
ATOM     11  H   UNL     1      32.652 -13.989 -24.738  0.00  0.00    +0.153 HD
ATOM     12  H   UNL     1      35.554 -16.844 -20.727  0.00  0.00    +0.148 HD
ENDROOT
BRANCH   5  16
ATOM     13  C   UNL     1      32.021  -9.987 -21.783  0.00  0.00    -0.043 C 
ATOM     14  C   UNL     1      32.909 -10.156 -22.839  0.00  0.00    -0.006 C 
ATOM     15  C   UNL     1      31.576 -11.079 -21.049  0.00  0.00    -0.006 C 
ATOM     16  C   UNL     1      32.914 -12.538 -22.435  0.00  0.00    +0.013 C 
ATOM     17  C   UNL     1      33.356 -11.436 -23.167  0.00  0.00    +0.001 C 
ATOM     18  C   UNL     1      32.024 -12.359 -21.376  0.00  0.00    +0.001 C 
BRANCH  13  19
ATOM     19  C   UNL     1      31.539  -8.609 -21.430  0.00  0.00    -0.050 C 
BRANCH  19  20
ATOM     20  N   UNL     1      31.755  -7.660 -22.520  0.00  0.00    +0.387 N 
ATOM     21  N   UNL     1      32.336  -5.027 -23.564  0.00  0.00    +0.384 N 
ATOM     22  C   UNL     1      30.754  -6.586 -22.481  0.00  0.00    -0.100 C 
ATOM     23  C   UNL     1      33.111  -7.100 -22.463  0.00  0.00    -0.100 C 
ATOM     24  C   UNL     1      30.980  -5.587 -23.620  0.00  0.00    -0.101 C 
ATOM     25  C   UNL     1      33.336  -6.101 -23.604  0.00  0.00    -0.101 C 
ATOM     26  H   UNL     1      31.651  -8.164 -23.401  0.00  0.00    -0.079 HD
ATOM     27  H   UNL     1      32.440  -4.525 -22.681  0.00  0.00    -0.080 HD
BRANCH  21  28
ATOM     28  C   UNL     1      32.551  -4.076 -24.652  0.00  0.00    -0.078 C 
ATOM     29  C   UNL     1      33.383  -4.692 -25.764  0.00  0.00    -0.025 C 
ENDBRANCH  21  28
ENDBRANCH  19  20
ENDBRANCH  13  19
ENDBRANCH   5  16
BRANCH   2  30
ATOM     30  C   UNL     1      36.214 -18.755 -21.252  0.00  0.00    +0.093 C 
ATOM     31  C   UNL     1      36.781 -19.251 -22.581  0.00  0.00    +0.026 C 
BRANCH  30  32
ATOM     32  C   UNL     1      35.267 -19.741 -20.605  0.00  0.00    -0.005 C 
ATOM     33  C   UNL     1      35.782 -20.750 -19.809  0.00  0.00    -0.003 C 
ATOM     34  C   UNL     1      33.906 -19.615 -20.824  0.00  0.00    -0.003 C 
ATOM     35  C   UNL     1      34.909 -21.659 -19.212  0.00  0.00    -0.000 C 
ATOM     36  C   UNL     1      33.033 -20.525 -20.228  0.00  0.00    -0.000 C 
ATOM     37  C   UNL     1      33.534 -21.547 -19.422  0.00  0.00    -0.000 C 
ENDBRANCH  30  32
ENDBRANCH   2  30
TORSDOF 6
ENDMDL
MODEL 5
REMARK VINA RESULT:     -10.5      2.389      5.460
REMARK  Name = 10297043
REMARK  6 active torsions:
REMARK  status: ('A' for Active; 'I' for Inactive)
REMARK    1  A    between atoms: N_2  and  C_30
REMARK    2  A    between atoms: C_5  and  C_16
REMARK    3  A    between atoms: C_13  and  C_19
REMARK    4  A    between atoms: C_19  and  N_20
REMARK    5  A    between atoms: N_21  and  C_28
REMARK    6  A    between atoms: C_30  and  C_32
REMARK                            x       y       z     vdW  Elec       q    Type
REMARK                         _______ _______ _______ _____ _____    ______ ____
ROOT
ATOM      1  N   UNL     1      34.999 -22.076 -18.197  0.00  0.00    -0.301 N 
ATOM      2  N   UNL     1      30.762 -22.970 -16.458  0.00  0.00    -0.319 N 
ATOM      3  N   UNL     1      34.950 -23.530 -16.274  0.00  0.00    -0.233 NA
ATOM      4  N   UNL     1      32.697 -23.934 -15.445  0.00  0.00    -0.233 NA
ATOM      5  C   UNL     1      34.079 -21.404 -18.961  0.00  0.00    +0.046 C 
ATOM      6  C   UNL     1      32.991 -22.529 -17.335  0.00  0.00    +0.131 C 
ATOM      7  C   UNL     1      32.826 -21.667 -18.450  0.00  0.00    +0.003 C 
ATOM      8  C   UNL     1      34.354 -22.765 -17.204  0.00  0.00    +0.117 C 
ATOM      9  C   UNL     1      32.156 -23.149 -16.406  0.00  0.00    +0.113 C 
ATOM     10  C   UNL     1      34.042 -24.073 -15.438  0.00  0.00    +0.252 C 
ATOM     11  H   UNL     1      35.972 -22.065 -18.340  0.00  0.00    +0.153 HD
ATOM     12  H   UNL     1      30.389 -22.395 -17.166  0.00  0.00    +0.148 HD
ENDROOT
BRANCH   5  16
ATOM     13  C   UNL     1      35.222 -19.013 -22.247  0.00  0.00    -0.043 C 
ATOM     14  C   UNL     1      36.178 -19.408 -21.319  0.00  0.00    -0.006 C 
ATOM     15  C   UNL     1      33.894 -19.396 -22.106  0.00  0.00    -0.006 C 
ATOM     16  C   UNL     1      34.469 -20.588 -20.084  0.00  0.00    +0.013 C 
ATOM     17  C   UNL     1      35.800 -20.199 -20.233  0.00  0.00    +0.001 C 
ATOM     18  C   UNL     1      33.517 -20.187 -21.020  0.00  0.00    +0.001 C 
BRANCH  13  19
ATOM     19  C   UNL     1      35.628 -18.162 -23.416  0.00  0.00    -0.050 C 
BRANCH  19  20
ATOM     20  N   UNL     1      34.732 -17.023 -23.599  0.00  0.00    +0.387 N 
ATOM     21  N   UNL     1      34.175 -14.265 -24.267  0.00  0.00    +0.384 N 
ATOM     22  C   UNL     1      35.083 -15.930 -22.683  0.00  0.00    -0.100 C 
ATOM     23  C   UNL     1      34.761 -16.554 -24.990  0.00  0.00    -0.100 C 
ATOM     24  C   UNL     1      34.146 -14.733 -22.876  0.00  0.00    -0.101 C 
ATOM     25  C   UNL     1      33.823 -15.357 -25.182  0.00  0.00    -0.101 C 
ATOM     26  H   UNL     1      33.783 -17.331 -23.384  0.00  0.00    -0.079 HD
ATOM     27  H   UNL     1      35.124 -13.958 -24.484  0.00  0.00    -0.080 HD
BRANCH  21  28
ATOM     28  C   UNL     1      33.280 -13.125 -24.451  0.00  0.00    -0.078 C 
ATOM     29  C   UNL     1      33.810 -11.891 -23.740  0.00  0.00    -0.025 C 
ENDBRANCH  21  28
ENDBRANCH  19  20
ENDBRANCH  13  19
ENDBRANCH   5  16
BRANCH   2  30
ATOM     30  C   UNL     1      29.861 -23.582 -15.530  0.00  0.00    +0.093 C 
ATOM     31  C   UNL     1      29.916 -25.098 -15.704  0.00  0.00    +0.026 C 
BRANCH  30  32
ATOM     32  C   UNL     1      28.468 -23.016 -15.699  0.00  0.00    -0.005 C 
ATOM     33  C   UNL     1      27.747 -22.647 -14.576  0.00  0.00    -0.003 C 
ATOM     34  C   UNL     1      27.943 -22.878 -16.973  0.00  0.00    -0.003 C 
ATOM     35  C   UNL     1      26.464 -22.125 -14.731  0.00  0.00    -0.000 C 
ATOM     36  C   UNL     1      26.660 -22.357 -17.128  0.00  0.00    -0.000 C 
ATOM     37  C   UNL     1      25.920 -21.980 -16.008  0.00  0.00    -0.000 C 
ENDBRANCH  30  32
ENDBRANCH   2  30
TORSDOF 6
ENDMDL
MODEL 6
REMARK VINA RESULT:     -10.3      5.018     14.537
REMARK  Name = 10297043
REMARK  6 active torsions:
REMARK  status: ('A' for Active; 'I' for Inactive)
REMARK    1  A    between atoms: N_2  and  C_30
REMARK    2  A    between atoms: C_5  and  C_16
REMARK    3  A    between atoms: C_13  and  C_19
REMARK    4  A    between atoms: C_19  and  N_20
REMARK    5  A    between atoms: N_21  and  C_28
REMARK    6  A    between atoms: C_30  and  C_32
REMARK                            x       y       z     vdW  Elec       q    Type
REMARK                         _______ _______ _______ _____ _____    ______ ____
ROOT
ATOM      1  N   UNL     1      32.346 -11.830 -20.516  0.00  0.00    -0.301 N 
ATOM      2  N   UNL     1      32.544  -7.826 -22.901  0.00  0.00    -0.319 N 
ATOM      3  N   UNL     1      31.370  -9.919 -19.418  0.00  0.00    -0.233 NA
ATOM      4  N   UNL     1      31.524  -7.882 -20.743  0.00  0.00    -0.233 NA
ATOM      5  C   UNL     1      32.976 -12.081 -21.708  0.00  0.00    +0.046 C 
ATOM      6  C   UNL     1      32.420  -9.895 -21.624  0.00  0.00    +0.131 C 
ATOM      7  C   UNL     1      33.036 -10.899 -22.416  0.00  0.00    +0.003 C 
ATOM      8  C   UNL     1      32.003 -10.506 -20.448  0.00  0.00    +0.117 C 
ATOM      9  C   UNL     1      32.158  -8.531 -21.747  0.00  0.00    +0.113 C 
ATOM     10  C   UNL     1      31.175  -8.605 -19.655  0.00  0.00    +0.252 C 
ATOM     11  H   UNL     1      32.169 -12.500 -19.816  0.00  0.00    +0.153 HD
ATOM     12  H   UNL     1      33.004  -8.317 -23.620  0.00  0.00    +0.148 HD
ENDROOT
BRANCH   5  16
ATOM     13  C   UNL     1      34.385 -15.927 -22.730  0.00  0.00    -0.043 C 
ATOM     14  C   UNL     1      34.507 -15.476 -21.421  0.00  0.00    -0.006 C 
ATOM     15  C   UNL     1      33.804 -15.126 -23.706  0.00  0.00    -0.006 C 
ATOM     16  C   UNL     1      33.457 -13.395 -22.057  0.00  0.00    +0.013 C 
ATOM     17  C   UNL     1      34.040 -14.205 -21.084  0.00  0.00    +0.001 C 
ATOM     18  C   UNL     1      33.339 -13.855 -23.368  0.00  0.00    +0.001 C 
BRANCH  13  19
ATOM     19  C   UNL     1      34.886 -17.295 -23.094  0.00  0.00    -0.050 C 
BRANCH  19  20
ATOM     20  N   UNL     1      35.149 -18.113 -21.912  0.00  0.00    +0.387 N 
ATOM     21  N   UNL     1      35.947 -20.563 -20.601  0.00  0.00    +0.384 N 
ATOM     22  C   UNL     1      34.264 -19.285 -21.882  0.00  0.00    -0.100 C 
ATOM     23  C   UNL     1      36.555 -18.530 -21.867  0.00  0.00    -0.100 C 
ATOM     24  C   UNL     1      34.540 -20.146 -20.645  0.00  0.00    -0.101 C 
ATOM     25  C   UNL     1      36.830 -19.391 -20.629  0.00  0.00    -0.101 C 
ATOM     26  H   UNL     1      34.956 -17.544 -21.087  0.00  0.00    -0.079 HD
ATOM     27  H   UNL     1      36.140 -21.130 -21.427  0.00  0.00    -0.080 HD
BRANCH  21  28
ATOM     28  C   UNL     1      36.209 -21.383 -19.420  0.00  0.00    -0.078 C 
ATOM     29  C   UNL     1      34.923 -21.961 -18.856  0.00  0.00    -0.025 C 
ENDBRANCH  21  28
ENDBRANCH  19  20
ENDBRANCH  13  19
ENDBRANCH   5  16
BRANCH   2  30
ATOM     30  C   UNL     1      32.300  -6.426 -23.079  0.00  0.00    +0.093 C 
ATOM     31  C   UNL     1      30.824  -6.212 -23.406  0.00  0.00    +0.026 C 
BRANCH  30  32
ATOM     32  C   UNL     1      33.229  -5.861 -24.130  0.00  0.00    -0.005 C 
ATOM     33  C   UNL     1      34.549  -6.278 -24.160  0.00  0.00    -0.003 C 
ATOM     34  C   UNL     1      32.741  -4.938 -25.040  0.00  0.00    -0.003 C 
ATOM     35  C   UNL     1      35.407  -5.757 -25.128  0.00  0.00    -0.000 C 
ATOM     36  C   UNL     1      33.598  -4.418 -26.008  0.00  0.00    -0.000 C 
ATOM     37  C   UNL     1      34.931  -4.826 -26.053  0.00  0.00    -0.000 C 
ENDBRANCH  30  32
ENDBRANCH   2  30
TORSDOF 6
ENDMDL
MODEL 7
REMARK VINA RESULT:      -9.9      5.517     15.383
REMARK  Name = 10297043
REMARK  6 active torsions:
REMARK  status: ('A' for Active; 'I' for Inactive)
REMARK    1  A    between atoms: N_2  and  C_30
REMARK    2  A    between atoms: C_5  and  C_16
REMARK    3  A    between atoms: C_13  and  C_19
REMARK    4  A    between atoms: C_19  and  N_20
REMARK    5  A    between atoms: N_21  and  C_28
REMARK    6  A    between atoms: C_30  and  C_32
REMARK                            x       y       z     vdW  Elec       q    Type
REMARK                         _______ _______ _______ _____ _____    ______ ____
ROOT
ATOM      1  N   UNL     1      32.428 -10.886 -21.768  0.00  0.00    -0.301 N 
ATOM      2  N   UNL     1      33.479  -6.914 -23.978  0.00  0.00    -0.319 N 
ATOM      3  N   UNL     1      31.581  -8.873 -20.746  0.00  0.00    -0.233 NA
ATOM      4  N   UNL     1      32.183  -6.859 -21.975  0.00  0.00    -0.233 NA
ATOM      5  C   UNL     1      33.172 -11.204 -22.876  0.00  0.00    +0.046 C 
ATOM      6  C   UNL     1      32.909  -8.964 -22.795  0.00  0.00    +0.131 C 
ATOM      7  C   UNL     1      33.484 -10.032 -23.532  0.00  0.00    +0.003 C 
ATOM      8  C   UNL     1      32.260  -9.528 -21.704  0.00  0.00    +0.117 C 
ATOM      9  C   UNL     1      32.852  -7.576 -22.908  0.00  0.00    +0.113 C 
ATOM     10  C   UNL     1      31.598  -7.542 -20.965  0.00  0.00    +0.252 C 
ATOM     11  H   UNL     1      32.071 -11.534 -21.119  0.00  0.00    +0.153 HD
ATOM     12  H   UNL     1      33.961  -7.454 -24.646  0.00  0.00    +0.148 HD
ENDROOT
BRANCH   5  16
ATOM     13  C   UNL     1      34.171 -15.193 -23.830  0.00  0.00    -0.043 C 
ATOM     14  C   UNL     1      33.753 -14.329 -24.836  0.00  0.00    -0.006 C 
ATOM     15  C   UNL     1      34.263 -14.759 -22.514  0.00  0.00    -0.006 C 
ATOM     16  C   UNL     1      33.514 -12.567 -23.201  0.00  0.00    +0.013 C 
ATOM     17  C   UNL     1      33.424 -13.011 -24.520  0.00  0.00    +0.001 C 
ATOM     18  C   UNL     1      33.934 -13.440 -22.198  0.00  0.00    +0.001 C 
BRANCH  13  19
ATOM     19  C   UNL     1      34.526 -16.613 -24.170  0.00  0.00    -0.050 C 
BRANCH  19  20
ATOM     20  N   UNL     1      34.507 -17.477 -22.992  0.00  0.00    +0.387 N 
ATOM     21  N   UNL     1      35.457 -19.711 -21.423  0.00  0.00    +0.384 N 
ATOM     22  C   UNL     1      34.190 -18.862 -23.367  0.00  0.00    -0.100 C 
ATOM     23  C   UNL     1      35.790 -17.418 -22.281  0.00  0.00    -0.100 C 
ATOM     24  C   UNL     1      34.174 -19.771 -22.133  0.00  0.00    -0.101 C 
ATOM     25  C   UNL     1      35.772 -18.328 -21.047  0.00  0.00    -0.101 C 
ATOM     26  H   UNL     1      33.776 -17.139 -22.365  0.00  0.00    -0.079 HD
ATOM     27  H   UNL     1      36.188 -20.048 -22.050  0.00  0.00    -0.080 HD
BRANCH  21  28
ATOM     28  C   UNL     1      35.440 -20.577 -20.246  0.00  0.00    -0.078 C 
ATOM     29  C   UNL     1      34.017 -20.876 -19.805  0.00  0.00    -0.025 C 
ENDBRANCH  21  28
ENDBRANCH  19  20
ENDBRANCH  13  19
ENDBRANCH   5  16
BRANCH   2  30
ATOM     30  C   UNL     1      33.452  -5.492 -24.142  0.00  0.00    +0.093 C 
ATOM     31  C   UNL     1      32.003  -5.010 -24.098  0.00  0.00    +0.026 C 
BRANCH  30  32
ATOM     32  C   UNL     1      34.171  -5.095 -25.412  0.00  0.00    -0.005 C 
ATOM     33  C   UNL     1      33.450  -4.524 -26.447  0.00  0.00    -0.003 C 
ATOM     34  C   UNL     1      35.535  -5.313 -25.514  0.00  0.00    -0.003 C 
ATOM     35  C   UNL     1      34.112  -4.159 -27.618  0.00  0.00    -0.000 C 
ATOM     36  C   UNL     1      36.197  -4.948 -26.685  0.00  0.00    -0.000 C 
ATOM     37  C   UNL     1      35.486  -4.371 -27.738  0.00  0.00    -0.000 C 
ENDBRANCH  30  32
ENDBRANCH   2  30
TORSDOF 6
ENDMDL
MODEL 8
REMARK VINA RESULT:      -9.6      1.689      2.816
REMARK  Name = 10297043
REMARK  6 active torsions:
REMARK  status: ('A' for Active; 'I' for Inactive)
REMARK    1  A    between atoms: N_2  and  C_30
REMARK    2  A    between atoms: C_5  and  C_16
REMARK    3  A    between atoms: C_13  and  C_19
REMARK    4  A    between atoms: C_19  and  N_20
REMARK    5  A    between atoms: N_21  and  C_28
REMARK    6  A    between atoms: C_30  and  C_32
REMARK                            x       y       z     vdW  Elec       q    Type
REMARK                         _______ _______ _______ _____ _____    ______ ____
ROOT
ATOM      1  N   UNL     1      36.897 -20.900 -18.262  0.00  0.00    -0.301 N 
ATOM      2  N   UNL     1      34.151 -23.769 -15.814  0.00  0.00    -0.319 N 
ATOM      3  N   UNL     1      37.858 -21.775 -16.231  0.00  0.00    -0.233 NA
ATOM      4  N   UNL     1      36.348 -23.260 -15.029  0.00  0.00    -0.233 NA
ATOM      5  C   UNL     1      35.706 -21.016 -18.931  0.00  0.00    +0.046 C 
ATOM      6  C   UNL     1      35.615 -22.277 -17.062  0.00  0.00    +0.131 C 
ATOM      7  C   UNL     1      34.892 -21.864 -18.210  0.00  0.00    +0.003 C 
ATOM      8  C   UNL     1      36.858 -21.659 -17.122  0.00  0.00    +0.117 C 
ATOM      9  C   UNL     1      35.380 -23.101 -15.962  0.00  0.00    +0.113 C 
ATOM     10  C   UNL     1      37.511 -22.596 -15.218  0.00  0.00    +0.252 C 
ATOM     11  H   UNL     1      37.662 -20.354 -18.555  0.00  0.00    +0.153 HD
ATOM     12  H   UNL     1      33.460 -23.640 -16.504  0.00  0.00    +0.148 HD
ENDROOT
BRANCH   5  16
ATOM     13  C   UNL     1      34.971 -18.983 -22.558  0.00  0.00    -0.043 C 
ATOM     14  C   UNL     1      36.261 -19.021 -22.040  0.00  0.00    -0.006 C 
ATOM     15  C   UNL     1      33.921 -19.608 -21.896  0.00  0.00    -0.006 C 
ATOM     16  C   UNL     1      35.455 -20.322 -20.170  0.00  0.00    +0.013 C 
ATOM     17  C   UNL     1      36.503 -19.693 -20.842  0.00  0.00    +0.001 C 
ATOM     18  C   UNL     1      34.164 -20.280 -20.697  0.00  0.00    +0.001 C 
BRANCH  13  19
ATOM     19  C   UNL     1      34.709 -18.260 -23.847  0.00  0.00    -0.050 C 
BRANCH  19  20
ATOM     20  N   UNL     1      34.161 -16.924 -23.622  0.00  0.00    +0.387 N 
ATOM     21  N   UNL     1      34.328 -14.038 -23.629  0.00  0.00    +0.384 N 
ATOM     22  C   UNL     1      34.945 -16.203 -22.611  0.00  0.00    -0.100 C 
ATOM     23  C   UNL     1      34.115 -16.160 -24.875  0.00  0.00    -0.100 C 
ATOM     24  C   UNL     1      34.374 -14.800 -22.376  0.00  0.00    -0.101 C 
ATOM     25  C   UNL     1      33.544 -14.758 -24.639  0.00  0.00    -0.101 C 
ATOM     26  H   UNL     1      33.208 -17.029 -23.275  0.00  0.00    -0.079 HD
ATOM     27  H   UNL     1      35.282 -13.933 -23.977  0.00  0.00    -0.080 HD
BRANCH  21  28
ATOM     28  C   UNL     1      33.782 -12.701 -23.404  0.00  0.00    -0.078 C 
ATOM     29  C   UNL     1      33.872 -11.852 -24.661  0.00  0.00    -0.025 C 
ENDBRANCH  21  28
ENDBRANCH  19  20
ENDBRANCH  13  19
ENDBRANCH   5  16
BRANCH   2  30
ATOM     30  C   UNL     1      33.857 -24.626 -14.705  0.00  0.00    +0.093 C 
ATOM     31  C   UNL     1      33.151 -23.817 -13.620  0.00  0.00    +0.026 C 
BRANCH  30  32
ATOM     32  C   UNL     1      35.119 -25.303 -14.216  0.00  0.00    -0.005 C 
ATOM     33  C   UNL     1      35.774 -26.193 -15.049  0.00  0.00    -0.003 C 
ATOM     34  C   UNL     1      35.590 -25.019 -12.946  0.00  0.00    -0.003 C 
ATOM     35  C   UNL     1      36.937 -26.818 -14.599  0.00  0.00    -0.000 C 
ATOM     36  C   UNL     1      36.753 -25.643 -12.496  0.00  0.00    -0.000 C 
ATOM     37  C   UNL     1      37.426 -26.543 -13.321  0.00  0.00    -0.000 C 
ENDBRANCH  30  32
ENDBRANCH   2  30
TORSDOF 6
ENDMDL
MODEL 9
REMARK VINA RESULT:      -9.5      6.533     16.149
REMARK  Name = 10297043
REMARK  6 active torsions:
REMARK  status: ('A' for Active; 'I' for Inactive)
REMARK    1  A    between atoms: N_2  and  C_30
REMARK    2  A    between atoms: C_5  and  C_16
REMARK    3  A    between atoms: C_13  and  C_19
REMARK    4  A    between atoms: C_19  and  N_20
REMARK    5  A    between atoms: N_21  and  C_28
REMARK    6  A    between atoms: C_30  and  C_32
REMARK                            x       y       z     vdW  Elec       q    Type
REMARK                         _______ _______ _______ _____ _____    ______ ____
ROOT
ATOM      1  N   UNL     1      32.654  -9.808 -21.206  0.00  0.00    -0.301 N 
ATOM      2  N   UNL     1      32.204  -5.675 -23.322  0.00  0.00    -0.319 N 
ATOM      3  N   UNL     1      32.269  -7.930 -19.744  0.00  0.00    -0.233 NA
ATOM      4  N   UNL     1      32.048  -5.823 -20.944  0.00  0.00    -0.233 NA
ATOM      5  C   UNL     1      32.785 -10.010 -22.556  0.00  0.00    +0.046 C 
ATOM      6  C   UNL     1      32.433  -7.813 -22.180  0.00  0.00    +0.131 C 
ATOM      7  C   UNL     1      32.651  -8.790 -23.185  0.00  0.00    +0.003 C 
ATOM      8  C   UNL     1      32.441  -8.478 -20.960  0.00  0.00    +0.117 C 
ATOM      9  C   UNL     1      32.227  -6.434 -22.139  0.00  0.00    +0.113 C 
ATOM     10  C   UNL     1      32.080  -6.597 -19.836  0.00  0.00    +0.252 C 
ATOM     11  H   UNL     1      32.706 -10.512 -20.519  0.00  0.00    +0.153 HD
ATOM     12  H   UNL     1      32.336  -6.139 -24.180  0.00  0.00    +0.148 HD
ENDROOT
BRANCH   5  16
ATOM     13  C   UNL     1      33.479 -13.841 -24.188  0.00  0.00    -0.043 C 
ATOM     14  C   UNL     1      32.809 -13.721 -22.976  0.00  0.00    -0.006 C 
ATOM     15  C   UNL     1      33.923 -12.714 -24.869  0.00  0.00    -0.006 C 
ATOM     16  C   UNL     1      33.022 -11.318 -23.114  0.00  0.00    +0.013 C 
ATOM     17  C   UNL     1      32.579 -12.455 -22.438  0.00  0.00    +0.001 C 
ATOM     18  C   UNL     1      33.693 -11.448 -24.330  0.00  0.00    +0.001 C 
BRANCH  13  19
ATOM     19  C   UNL     1      33.727 -15.204 -24.769  0.00  0.00    -0.050 C 
BRANCH  19  20
ATOM     20  N   UNL     1      33.891 -16.218 -23.729  0.00  0.00    +0.387 N 
ATOM     21  N   UNL     1      35.432 -18.180 -22.267  0.00  0.00    +0.384 N 
ATOM     22  C   UNL     1      34.226 -17.520 -24.321  0.00  0.00    -0.100 C 
ATOM     23  C   UNL     1      34.921 -15.814 -22.764  0.00  0.00    -0.100 C 
ATOM     24  C   UNL     1      34.403 -18.585 -23.233  0.00  0.00    -0.101 C 
ATOM     25  C   UNL     1      35.096 -16.879 -21.676  0.00  0.00    -0.101 C 
ATOM     26  H   UNL     1      33.004 -16.308 -23.234  0.00  0.00    -0.079 HD
ATOM     27  H   UNL     1      36.319 -18.088 -22.763  0.00  0.00    -0.080 HD
BRANCH  21  28
ATOM     28  C   UNL     1      35.598 -19.195 -21.229  0.00  0.00    -0.078 C 
ATOM     29  C   UNL     1      37.023 -19.213 -20.703  0.00  0.00    -0.025 C 
ENDBRANCH  21  28
ENDBRANCH  19  20
ENDBRANCH  13  19
ENDBRANCH   5  16
BRANCH   2  30
ATOM     30  C   UNL     1      31.997  -4.258 -23.337  0.00  0.00    +0.093 C 
ATOM     31  C   UNL     1      30.552  -3.958 -22.946  0.00  0.00    +0.026 C 
BRANCH  30  32
ATOM     32  C   UNL     1      32.378  -3.687 -24.686  0.00  0.00    -0.005 C 
ATOM     33  C   UNL     1      31.866  -2.458 -25.068  0.00  0.00    -0.003 C 
ATOM     34  C   UNL     1      33.229  -4.404 -25.508  0.00  0.00    -0.003 C 
ATOM     35  C   UNL     1      32.217  -1.931 -26.310  0.00  0.00    -0.000 C 
ATOM     36  C   UNL     1      33.579  -3.877 -26.751  0.00  0.00    -0.000 C 
ATOM     37  C   UNL     1      33.073  -2.641 -27.152  0.00  0.00    -0.000 C 
ENDBRANCH  30  32
ENDBRANCH   2  30
TORSDOF 6
ENDMDL
