MODEL 1
REMARK VINA RESULT:     -11.3      0.000      0.000
REMARK  Name = 491941
REMARK  5 active torsions:
REMARK  status: ('A' for Active; 'I' for Inactive)
REMARK    1  A    between atoms: C_5  and  C_17
REMARK    2  A    between atoms: C_7  and  S_11
REMARK    3  A    between atoms: S_11  and  N_14
REMARK    4  A    between atoms: C_17  and  C_18
REMARK    5  A    between atoms: C_21  and  C_25
REMARK                            x       y       z     vdW  Elec       q    Type
REMARK                         _______ _______ _______ _____ _____    ______ ____
ROOT
ATOM      1  S   UNL     1      34.299 -24.515 -13.285  0.00  0.00    -0.035 S 
ATOM      2  O   UNL     1      35.645 -22.758 -17.090  0.00  0.00    -0.274 OA
ATOM      3  N   UNL     1      33.925 -23.297 -15.576  0.00  0.00    -0.227 N 
ATOM      4  N   UNL     1      35.903 -22.763 -14.307  0.00  0.00    -0.386 NA
ATOM      5  C   UNL     1      34.452 -22.965 -16.848  0.00  0.00    +0.236 C 
ATOM      6  C   UNL     1      34.809 -23.411 -14.461  0.00  0.00    +0.217 C 
ATOM      7  C   UNL     1      35.716 -24.114 -12.406  0.00  0.00    +0.247 C 
ATOM      8  C   UNL     1      36.441 -23.170 -13.103  0.00  0.00    +0.123 C 
ATOM      9  C   UNL     1      32.484 -23.528 -15.379  0.00  0.00    +0.123 C 
ATOM     10  C   UNL     1      37.721 -22.572 -12.672  0.00  0.00    +0.064 C 
ENDROOT
BRANCH   7  11
ATOM     11  S   UNL     1      35.920 -24.952 -10.881  0.00  0.00    +0.052 S 
ATOM     12  O   UNL     1      34.579 -25.312 -10.432  0.00  0.00    -0.157 OA
ATOM     13  O   UNL     1      36.914 -25.987 -11.141  0.00  0.00    -0.157 OA
BRANCH  11  14
ATOM     14  N   UNL     1      36.576 -23.855  -9.729  0.00  0.00    -0.206 NA
ATOM     15  H   UNL     1      37.526 -23.604 -10.001  0.00  0.00    +0.144 HD
ATOM     16  H   UNL     1      36.591 -24.297  -8.809  0.00  0.00    +0.144 HD
ENDBRANCH  11  14
ENDBRANCH   7  11
BRANCH   5  17
ATOM     17  C   UNL     1      33.445 -22.905 -18.003  0.00  0.00    +0.112 C 
BRANCH  17  18
ATOM     18  C   UNL     1      33.729 -21.835 -19.002  0.00  0.00    -0.013 C 
ATOM     19  C   UNL     1      35.047 -21.535 -19.348  0.00  0.00    -0.004 C 
ATOM     20  C   UNL     1      32.677 -21.133 -19.591  0.00  0.00    -0.004 C 
ATOM     21  C   UNL     1      34.261 -19.833 -20.870  0.00  0.00    +0.018 C 
ATOM     22  C   UNL     1      35.313 -20.535 -20.282  0.00  0.00    +0.001 C 
ATOM     23  C   UNL     1      32.943 -20.132 -20.525  0.00  0.00    +0.001 C 
BRANCH  21  25
ATOM     24  N   UNL     1      35.078 -17.669 -21.328  0.00  0.00    -0.244 NA
ATOM     25  C   UNL     1      34.536 -18.794 -21.840  0.00  0.00    +0.081 C 
ATOM     26  C   UNL     1      34.250 -18.982 -23.181  0.00  0.00    +0.019 C 
ATOM     27  C   UNL     1      34.541 -17.942 -24.057  0.00  0.00    +0.003 C 
ATOM     28  C   UNL     1      35.347 -16.679 -22.210  0.00  0.00    +0.099 C 
ATOM     29  C   UNL     1      35.100 -16.766 -23.570  0.00  0.00    +0.021 C 
ENDBRANCH  21  25
ENDBRANCH  17  18
ENDBRANCH   5  17
TORSDOF 5
ENDMDL
MODEL 2
REMARK VINA RESULT:     -10.7      6.334     11.281
REMARK  Name = 491941
REMARK  5 active torsions:
REMARK  status: ('A' for Active; 'I' for Inactive)
REMARK    1  A    between atoms: C_5  and  C_17
REMARK    2  A    between atoms: C_7  and  S_11
REMARK    3  A    between atoms: S_11  and  N_14
REMARK    4  A    between atoms: C_17  and  C_18
REMARK    5  A    between atoms: C_21  and  C_25
REMARK                            x       y       z     vdW  Elec       q    Type
REMARK                         _______ _______ _______ _____ _____    ______ ____
ROOT
ATOM      1  S   UNL     1      34.675 -15.646 -23.789  0.00  0.00    -0.035 S 
ATOM      2  O   UNL     1      34.962 -20.028 -23.489  0.00  0.00    -0.274 OA
ATOM      3  N   UNL     1      35.053 -17.895 -22.497  0.00  0.00    -0.227 N 
ATOM      4  N   UNL     1      33.390 -17.844 -24.241  0.00  0.00    -0.386 NA
ATOM      5  C   UNL     1      35.330 -19.283 -22.576  0.00  0.00    +0.236 C 
ATOM      6  C   UNL     1      34.293 -17.274 -23.534  0.00  0.00    +0.217 C 
ATOM      7  C   UNL     1      33.486 -15.642 -25.024  0.00  0.00    +0.247 C 
ATOM      8  C   UNL     1      32.911 -16.892 -25.118  0.00  0.00    +0.123 C 
ATOM      9  C   UNL     1      35.532 -17.081 -21.368  0.00  0.00    +0.123 C 
ATOM     10  C   UNL     1      31.846 -17.285 -26.063  0.00  0.00    +0.064 C 
ENDROOT
BRANCH   7  11
ATOM     11  S   UNL     1      33.269 -14.115 -25.858  0.00  0.00    +0.052 S 
ATOM     12  O   UNL     1      33.434 -13.074 -24.848  0.00  0.00    -0.157 OA
ATOM     13  O   UNL     1      34.161 -14.176 -27.010  0.00  0.00    -0.157 OA
BRANCH  11  14
ATOM     14  N   UNL     1      31.651 -14.024 -26.436  0.00  0.00    -0.206 NA
ATOM     15  H   UNL     1      31.648 -13.627 -27.375  0.00  0.00    +0.144 HD
ATOM     16  H   UNL     1      31.101 -13.433 -25.813  0.00  0.00    +0.144 HD
ENDBRANCH  11  14
ENDBRANCH   7  11
BRANCH   5  17
ATOM     17  C   UNL     1      36.188 -19.867 -21.447  0.00  0.00    +0.112 C 
BRANCH  17  18
ATOM     18  C   UNL     1      35.404 -20.560 -20.385  0.00  0.00    -0.013 C 
ATOM     19  C   UNL     1      34.012 -20.463 -20.369  0.00  0.00    -0.004 C 
ATOM     20  C   UNL     1      36.062 -21.307 -19.408  0.00  0.00    -0.004 C 
ATOM     21  C   UNL     1      33.937 -21.858 -18.399  0.00  0.00    +0.018 C 
ATOM     22  C   UNL     1      33.279 -21.112 -19.376  0.00  0.00    +0.001 C 
ATOM     23  C   UNL     1      35.329 -21.956 -18.414  0.00  0.00    +0.001 C 
BRANCH  21  25
ATOM     24  N   UNL     1      31.838 -22.391 -17.466  0.00  0.00    -0.244 NA
ATOM     25  C   UNL     1      33.177 -22.532 -17.368  0.00  0.00    +0.081 C 
ATOM     26  C   UNL     1      33.814 -23.257 -16.377  0.00  0.00    +0.019 C 
ATOM     27  C   UNL     1      33.022 -23.879 -15.418  0.00  0.00    +0.003 C 
ATOM     28  C   UNL     1      31.100 -23.009 -16.517  0.00  0.00    +0.099 C 
ATOM     29  C   UNL     1      31.638 -23.758 -15.483  0.00  0.00    +0.021 C 
ENDBRANCH  21  25
ENDBRANCH  17  18
ENDBRANCH   5  17
TORSDOF 5
ENDMDL
MODEL 3
REMARK VINA RESULT:     -10.3      1.661      2.057
REMARK  Name = 491941
REMARK  5 active torsions:
REMARK  status: ('A' for Active; 'I' for Inactive)
REMARK    1  A    between atoms: C_5  and  C_17
REMARK    2  A    between atoms: C_7  and  S_11
REMARK    3  A    between atoms: S_11  and  N_14
REMARK    4  A    between atoms: C_17  and  C_18
REMARK    5  A    between atoms: C_21  and  C_25
REMARK                            x       y       z     vdW  Elec       q    Type
REMARK                         _______ _______ _______ _____ _____    ______ ____
ROOT
ATOM      1  S   UNL     1      35.200 -25.004 -14.271  0.00  0.00    -0.035 S 
ATOM      2  O   UNL     1      35.683 -22.762 -18.028  0.00  0.00    -0.274 OA
ATOM      3  N   UNL     1      34.450 -23.271 -16.089  0.00  0.00    -0.227 N 
ATOM      4  N   UNL     1      36.794 -23.419 -15.550  0.00  0.00    -0.386 NA
ATOM      5  C   UNL     1      34.616 -22.781 -17.408  0.00  0.00    +0.236 C 
ATOM      6  C   UNL     1      35.579 -23.793 -15.389  0.00  0.00    +0.217 C 
ATOM      7  C   UNL     1      36.874 -25.086 -13.910  0.00  0.00    +0.247 C 
ATOM      8  C   UNL     1      37.560 -24.174 -14.684  0.00  0.00    +0.123 C 
ATOM      9  C   UNL     1      33.136 -23.254 -15.424  0.00  0.00    +0.123 C 
ATOM     10  C   UNL     1      39.019 -23.944 -14.661  0.00  0.00    +0.064 C 
ENDROOT
BRANCH   7  11
ATOM     11  S   UNL     1      37.327 -26.258 -12.688  0.00  0.00    +0.052 S 
ATOM     12  O   UNL     1      36.896 -27.558 -13.192  0.00  0.00    -0.157 OA
ATOM     13  O   UNL     1      38.736 -26.002 -12.414  0.00  0.00    -0.157 OA
BRANCH  11  14
ATOM     14  N   UNL     1      36.434 -25.936 -11.253  0.00  0.00    -0.206 NA
ATOM     15  H   UNL     1      36.038 -26.805 -10.898  0.00  0.00    +0.144 HD
ATOM     16  H   UNL     1      35.682 -25.279 -11.461  0.00  0.00    +0.144 HD
ENDBRANCH  11  14
ENDBRANCH   7  11
BRANCH   5  17
ATOM     17  C   UNL     1      33.347 -22.277 -18.107  0.00  0.00    +0.112 C 
BRANCH  17  18
ATOM     18  C   UNL     1      33.606 -21.331 -19.229  0.00  0.00    -0.013 C 
ATOM     19  C   UNL     1      32.539 -20.796 -19.952  0.00  0.00    -0.004 C 
ATOM     20  C   UNL     1      34.916 -20.981 -19.558  0.00  0.00    -0.004 C 
ATOM     21  C   UNL     1      34.092 -19.562 -21.331  0.00  0.00    +0.018 C 
ATOM     22  C   UNL     1      32.782 -19.911 -21.002  0.00  0.00    +0.001 C 
ATOM     23  C   UNL     1      35.159 -20.096 -20.609  0.00  0.00    +0.001 C 
BRANCH  21  25
ATOM     24  N   UNL     1      33.793 -18.997 -23.600  0.00  0.00    -0.244 NA
ATOM     25  C   UNL     1      34.345 -18.644 -22.420  0.00  0.00    +0.081 C 
ATOM     26  C   UNL     1      35.099 -17.500 -22.224  0.00  0.00    +0.019 C 
ATOM     27  C   UNL     1      35.302 -16.662 -23.315  0.00  0.00    +0.003 C 
ATOM     28  C   UNL     1      34.012 -18.159 -24.639  0.00  0.00    +0.099 C 
ATOM     29  C   UNL     1      34.751 -16.990 -24.549  0.00  0.00    +0.021 C 
ENDBRANCH  21  25
ENDBRANCH  17  18
ENDBRANCH   5  17
TORSDOF 5
ENDMDL
MODEL 4
REMARK VINA RESULT:     -10.3      5.908     10.865
REMARK  Name = 491941
REMARK  5 active torsions:
REMARK  status: ('A' for Active; 'I' for Inactive)
REMARK    1  A    between atoms: C_5  and  C_17
REMARK    2  A    between atoms: C_7  and  S_11
REMARK    3  A    between atoms: S_11  and  N_14
REMARK    4  A    between atoms: C_17  and  C_18
REMARK    5  A    between atoms: C_21  and  C_25
REMARK                            x       y       z     vdW  Elec       q    Type
REMARK                         _______ _______ _______ _____ _____    ______ ____
ROOT
ATOM      1  S   UNL     1      34.135 -17.778 -24.514  0.00  0.00    -0.035 S 
ATOM      2  O   UNL     1      35.106 -18.386 -20.264  0.00  0.00    -0.274 OA
ATOM      3  N   UNL     1      35.323 -19.004 -22.525  0.00  0.00    -0.227 N 
ATOM      4  N   UNL     1      35.098 -16.607 -22.419  0.00  0.00    -0.386 NA
ATOM      5  C   UNL     1      35.382 -19.225 -21.127  0.00  0.00    +0.236 C 
ATOM      6  C   UNL     1      34.916 -17.726 -23.015  0.00  0.00    +0.217 C 
ATOM      7  C   UNL     1      33.990 -16.073 -24.409  0.00  0.00    +0.247 C 
ATOM      8  C   UNL     1      34.556 -15.631 -23.232  0.00  0.00    +0.123 C 
ATOM      9  C   UNL     1      35.672 -20.065 -23.484  0.00  0.00    +0.123 C 
ATOM     10  C   UNL     1      34.629 -14.227 -22.781  0.00  0.00    +0.064 C 
ENDROOT
BRANCH   7  11
ATOM     11  S   UNL     1      33.191 -15.298 -25.763  0.00  0.00    +0.052 S 
ATOM     12  O   UNL     1      34.253 -14.840 -26.654  0.00  0.00    -0.157 OA
ATOM     13  O   UNL     1      32.201 -16.264 -26.229  0.00  0.00    -0.157 OA
BRANCH  11  14
ATOM     14  N   UNL     1      32.356 -13.907 -25.193  0.00  0.00    -0.206 NA
ATOM     15  H   UNL     1      31.382 -14.145 -25.011  0.00  0.00    +0.144 HD
ATOM     16  H   UNL     1      32.401 -13.171 -25.898  0.00  0.00    +0.144 HD
ENDBRANCH  11  14
ENDBRANCH   7  11
BRANCH   5  17
ATOM     17  C   UNL     1      35.787 -20.636 -20.681  0.00  0.00    +0.112 C 
BRANCH  17  18
ATOM     18  C   UNL     1      34.908 -21.215 -19.626  0.00  0.00    -0.013 C 
ATOM     19  C   UNL     1      35.471 -21.888 -18.541  0.00  0.00    -0.004 C 
ATOM     20  C   UNL     1      33.523 -21.083 -19.722  0.00  0.00    -0.004 C 
ATOM     21  C   UNL     1      33.264 -22.299 -17.650  0.00  0.00    +0.018 C 
ATOM     22  C   UNL     1      34.649 -22.430 -17.553  0.00  0.00    +0.001 C 
ATOM     23  C   UNL     1      32.700 -21.626 -18.734  0.00  0.00    +0.001 C 
BRANCH  21  25
ATOM     24  N   UNL     1      31.086 -22.694 -16.835  0.00  0.00    -0.244 NA
ATOM     25  C   UNL     1      32.410 -22.861 -16.626  0.00  0.00    +0.081 C 
ATOM     26  C   UNL     1      32.950 -23.513 -15.531  0.00  0.00    +0.019 C 
ATOM     27  C   UNL     1      32.071 -24.029 -14.585  0.00  0.00    +0.003 C 
ATOM     28  C   UNL     1      30.262 -23.209 -15.895  0.00  0.00    +0.099 C 
ATOM     29  C   UNL     1      30.699 -23.878 -14.763  0.00  0.00    +0.021 C 
ENDBRANCH  21  25
ENDBRANCH  17  18
ENDBRANCH   5  17
TORSDOF 5
ENDMDL
MODEL 5
REMARK VINA RESULT:     -10.3      2.776      4.074
REMARK  Name = 491941
REMARK  5 active torsions:
REMARK  status: ('A' for Active; 'I' for Inactive)
REMARK    1  A    between atoms: C_5  and  C_17
REMARK    2  A    between atoms: C_7  and  S_11
REMARK    3  A    between atoms: S_11  and  N_14
REMARK    4  A    between atoms: C_17  and  C_18
REMARK    5  A    between atoms: C_21  and  C_25
REMARK                            x       y       z     vdW  Elec       q    Type
REMARK                         _______ _______ _______ _____ _____    ______ ____
ROOT
ATOM      1  S   UNL     1      34.758 -22.768 -15.706  0.00  0.00    -0.035 S 
ATOM      2  O   UNL     1      33.599 -20.918 -19.528  0.00  0.00    -0.274 OA
ATOM      3  N   UNL     1      35.186 -22.017 -18.181  0.00  0.00    -0.227 N 
ATOM      4  N   UNL     1      33.001 -22.851 -17.601  0.00  0.00    -0.386 NA
ATOM      5  C   UNL     1      34.770 -21.212 -19.270  0.00  0.00    +0.236 C 
ATOM      6  C   UNL     1      34.206 -22.548 -17.290  0.00  0.00    +0.217 C 
ATOM      7  C   UNL     1      33.194 -23.356 -15.325  0.00  0.00    +0.247 C 
ATOM      8  C   UNL     1      32.400 -23.326 -16.453  0.00  0.00    +0.123 C 
ATOM      9  C   UNL     1      36.608 -22.318 -17.948  0.00  0.00    +0.123 C 
ATOM     10  C   UNL     1      30.988 -23.754 -16.528  0.00  0.00    +0.064 C 
ENDROOT
BRANCH   7  11
ATOM     11  S   UNL     1      32.957 -23.848 -13.659  0.00  0.00    +0.052 S 
ATOM     12  O   UNL     1      34.282 -23.857 -13.047  0.00  0.00    -0.157 OA
ATOM     13  O   UNL     1      31.911 -22.971 -13.145  0.00  0.00    -0.157 OA
BRANCH  11  14
ATOM     14  N   UNL     1      32.363 -25.462 -13.637  0.00  0.00    -0.206 NA
ATOM     15  H   UNL     1      31.405 -25.477 -13.985  0.00  0.00    +0.144 HD
ATOM     16  H   UNL     1      32.384 -25.818 -12.681  0.00  0.00    +0.144 HD
ENDBRANCH  11  14
ENDBRANCH   7  11
BRANCH   5  17
ATOM     17  C   UNL     1      35.886 -20.644 -20.156  0.00  0.00    +0.112 C 
BRANCH  17  18
ATOM     18  C   UNL     1      35.451 -19.525 -21.039  0.00  0.00    -0.013 C 
ATOM     19  C   UNL     1      35.676 -18.203 -20.653  0.00  0.00    -0.004 C 
ATOM     20  C   UNL     1      34.818 -19.798 -22.252  0.00  0.00    -0.004 C 
ATOM     21  C   UNL     1      34.635 -17.429 -22.691  0.00  0.00    +0.018 C 
ATOM     22  C   UNL     1      35.269 -17.155 -21.478  0.00  0.00    +0.001 C 
ATOM     23  C   UNL     1      34.410 -18.750 -23.078  0.00  0.00    +0.001 C 
BRANCH  21  25
ATOM     24  N   UNL     1      34.207 -15.127 -22.963  0.00  0.00    -0.244 NA
ATOM     25  C   UNL     1      34.213 -16.343 -23.548  0.00  0.00    +0.081 C 
ATOM     26  C   UNL     1      33.851 -16.577 -24.863  0.00  0.00    +0.019 C 
ATOM     27  C   UNL     1      33.456 -15.487 -25.631  0.00  0.00    +0.003 C 
ATOM     28  C   UNL     1      33.816 -14.090 -23.739  0.00  0.00    +0.099 C 
ATOM     29  C   UNL     1      33.435 -14.216 -25.065  0.00  0.00    +0.021 C 
ENDBRANCH  21  25
ENDBRANCH  17  18
ENDBRANCH   5  17
TORSDOF 5
ENDMDL
MODEL 6
REMARK VINA RESULT:     -10.2      2.438      3.574
REMARK  Name = 491941
REMARK  5 active torsions:
REMARK  status: ('A' for Active; 'I' for Inactive)
REMARK    1  A    between atoms: C_5  and  C_17
REMARK    2  A    between atoms: C_7  and  S_11
REMARK    3  A    between atoms: S_11  and  N_14
REMARK    4  A    between atoms: C_17  and  C_18
REMARK    5  A    between atoms: C_21  and  C_25
REMARK                            x       y       z     vdW  Elec       q    Type
REMARK                         _______ _______ _______ _____ _____    ______ ____
ROOT
ATOM      1  S   UNL     1      34.666 -22.943 -14.796  0.00  0.00    -0.035 S 
ATOM      2  O   UNL     1      33.830 -21.591 -18.900  0.00  0.00    -0.274 OA
ATOM      3  N   UNL     1      35.315 -22.446 -17.286  0.00  0.00    -0.227 N 
ATOM      4  N   UNL     1      33.120 -23.331 -16.832  0.00  0.00    -0.386 NA
ATOM      5  C   UNL     1      34.979 -21.789 -18.496  0.00  0.00    +0.236 C 
ATOM      6  C   UNL     1      34.271 -22.929 -16.440  0.00  0.00    +0.217 C 
ATOM      7  C   UNL     1      33.098 -23.572 -14.505  0.00  0.00    +0.247 C 
ATOM      8  C   UNL     1      32.425 -23.710 -15.701  0.00  0.00    +0.123 C 
ATOM      9  C   UNL     1      36.717 -22.640 -16.882  0.00  0.00    +0.123 C 
ATOM     10  C   UNL     1      31.049 -24.221 -15.865  0.00  0.00    +0.064 C 
ENDROOT
BRANCH   7  11
ATOM     11  S   UNL     1      32.711 -23.890 -12.825  0.00  0.00    +0.052 S 
ATOM     12  O   UNL     1      33.989 -23.974 -12.123  0.00  0.00    -0.157 OA
ATOM     13  O   UNL     1      31.732 -22.874 -12.457  0.00  0.00    -0.157 OA
BRANCH  11  14
ATOM     14  N   UNL     1      31.956 -25.431 -12.712  0.00  0.00    -0.206 NA
ATOM     15  H   UNL     1      30.949 -25.326 -12.832  0.00  0.00    +0.144 HD
ATOM     16  H   UNL     1      32.149 -25.838 -11.797  0.00  0.00    +0.144 HD
ENDBRANCH  11  14
ENDBRANCH   7  11
BRANCH   5  17
ATOM     17  C   UNL     1      36.155 -21.261 -19.328  0.00  0.00    +0.112 C 
BRANCH  17  18
ATOM     18  C   UNL     1      35.778 -20.205 -20.309  0.00  0.00    -0.013 C 
ATOM     19  C   UNL     1      34.531 -20.245 -20.935  0.00  0.00    -0.004 C 
ATOM     20  C   UNL     1      36.672 -19.174 -20.602  0.00  0.00    -0.004 C 
ATOM     21  C   UNL     1      35.073 -18.227 -22.147  0.00  0.00    +0.018 C 
ATOM     22  C   UNL     1      34.179 -19.257 -21.853  0.00  0.00    +0.001 C 
ATOM     23  C   UNL     1      36.319 -18.185 -21.521  0.00  0.00    +0.001 C 
BRANCH  21  25
ATOM     24  N   UNL     1      34.885 -15.935 -22.666  0.00  0.00    -0.244 NA
ATOM     25  C   UNL     1      34.708 -17.201 -23.099  0.00  0.00    +0.081 C 
ATOM     26  C   UNL     1      34.219 -17.536 -24.350  0.00  0.00    +0.019 C 
ATOM     27  C   UNL     1      33.889 -16.499 -25.216  0.00  0.00    +0.003 C 
ATOM     28  C   UNL     1      34.553 -14.953 -23.534  0.00  0.00    +0.099 C 
ATOM     29  C   UNL     1      34.056 -15.179 -24.807  0.00  0.00    +0.021 C 
ENDBRANCH  21  25
ENDBRANCH  17  18
ENDBRANCH   5  17
TORSDOF 5
ENDMDL
MODEL 7
REMARK VINA RESULT:     -10.0      9.004     13.475
REMARK  Name = 491941
REMARK  5 active torsions:
REMARK  status: ('A' for Active; 'I' for Inactive)
REMARK    1  A    between atoms: C_5  and  C_17
REMARK    2  A    between atoms: C_7  and  S_11
REMARK    3  A    between atoms: S_11  and  N_14
REMARK    4  A    between atoms: C_17  and  C_18
REMARK    5  A    between atoms: C_21  and  C_25
REMARK                            x       y       z     vdW  Elec       q    Type
REMARK                         _______ _______ _______ _____ _____    ______ ____
ROOT
ATOM      1  S   UNL     1      32.861  -8.715 -23.296  0.00  0.00    -0.035 S 
ATOM      2  O   UNL     1      32.258 -12.940 -22.217  0.00  0.00    -0.274 OA
ATOM      3  N   UNL     1      33.512 -11.254 -23.279  0.00  0.00    -0.227 N 
ATOM      4  N   UNL     1      32.519 -10.315 -21.294  0.00  0.00    -0.386 NA
ATOM      5  C   UNL     1      33.095 -12.590 -23.054  0.00  0.00    +0.236 C 
ATOM      6  C   UNL     1      32.945 -10.203 -22.497  0.00  0.00    +0.217 C 
ATOM      7  C   UNL     1      32.156  -8.077 -21.870  0.00  0.00    +0.247 C 
ATOM      8  C   UNL     1      32.055  -9.071 -20.918  0.00  0.00    +0.123 C 
ATOM      9  C   UNL     1      34.520 -10.927 -24.301  0.00  0.00    +0.123 C 
ATOM     10  C   UNL     1      31.501  -8.912 -19.558  0.00  0.00    +0.064 C 
ENDROOT
BRANCH   7  11
ATOM     11  S   UNL     1      31.740  -6.375 -21.929  0.00  0.00    +0.052 S 
ATOM     12  O   UNL     1      32.576  -5.789 -22.972  0.00  0.00    -0.157 OA
ATOM     13  O   UNL     1      30.287  -6.339 -22.040  0.00  0.00    -0.157 OA
BRANCH  11  14
ATOM     14  N   UNL     1      32.184  -5.644 -20.437  0.00  0.00    -0.206 NA
ATOM     15  H   UNL     1      33.197  -5.684 -20.326  0.00  0.00    +0.144 HD
ATOM     16  H   UNL     1      31.737  -6.142 -19.667  0.00  0.00    +0.144 HD
ENDBRANCH  11  14
ENDBRANCH   7  11
BRANCH   5  17
ATOM     17  C   UNL     1      33.719 -13.655 -23.964  0.00  0.00    +0.112 C 
BRANCH  17  18
ATOM     18  C   UNL     1      34.147 -14.890 -23.247  0.00  0.00    -0.013 C 
ATOM     19  C   UNL     1      34.372 -16.069 -23.961  0.00  0.00    -0.004 C 
ATOM     20  C   UNL     1      34.322 -14.869 -21.863  0.00  0.00    -0.004 C 
ATOM     21  C   UNL     1      34.946 -17.203 -21.907  0.00  0.00    +0.018 C 
ATOM     22  C   UNL     1      34.772 -17.224 -23.291  0.00  0.00    +0.001 C 
ATOM     23  C   UNL     1      34.722 -16.026 -21.193  0.00  0.00    +0.001 C 
BRANCH  21  25
ATOM     24  N   UNL     1      36.660 -18.423 -20.842  0.00  0.00    -0.244 NA
ATOM     25  C   UNL     1      35.362 -18.402 -21.211  0.00  0.00    +0.081 C 
ATOM     26  C   UNL     1      34.463 -19.424 -20.961  0.00  0.00    +0.019 C 
ATOM     27  C   UNL     1      34.930 -20.547 -20.287  0.00  0.00    +0.003 C 
ATOM     28  C   UNL     1      37.079 -19.531 -20.189  0.00  0.00    +0.099 C 
ATOM     29  C   UNL     1      36.262 -20.609 -19.890  0.00  0.00    +0.021 C 
ENDBRANCH  21  25
ENDBRANCH  17  18
ENDBRANCH   5  17
TORSDOF 5
ENDMDL
MODEL 8
REMARK VINA RESULT:      -9.5      1.878      2.448
REMARK  Name = 491941
REMARK  5 active torsions:
REMARK  status: ('A' for Active; 'I' for Inactive)
REMARK    1  A    between atoms: C_5  and  C_17
REMARK    2  A    between atoms: C_7  and  S_11
REMARK    3  A    between atoms: S_11  and  N_14
REMARK    4  A    between atoms: C_17  and  C_18
REMARK    5  A    between atoms: C_21  and  C_25
REMARK                            x       y       z     vdW  Elec       q    Type
REMARK                         _______ _______ _______ _____ _____    ______ ____
ROOT
ATOM      1  S   UNL     1      36.619 -24.702 -14.266  0.00  0.00    -0.035 S 
ATOM      2  O   UNL     1      32.854 -22.472 -14.739  0.00  0.00    -0.274 OA
ATOM      3  N   UNL     1      34.295 -24.220 -15.378  0.00  0.00    -0.227 N 
ATOM      4  N   UNL     1      34.513 -23.897 -13.000  0.00  0.00    -0.386 NA
ATOM      5  C   UNL     1      33.235 -23.300 -15.571  0.00  0.00    +0.236 C 
ATOM      6  C   UNL     1      35.003 -24.221 -14.139  0.00  0.00    +0.217 C 
ATOM      7  C   UNL     1      36.743 -24.463 -12.573  0.00  0.00    +0.247 C 
ATOM      8  C   UNL     1      35.529 -24.037 -12.076  0.00  0.00    +0.123 C 
ATOM      9  C   UNL     1      34.683 -25.175 -16.429  0.00  0.00    +0.123 C 
ATOM     10  C   UNL     1      35.235 -23.726 -10.662  0.00  0.00    +0.064 C 
ENDROOT
BRANCH   7  11
ATOM     11  S   UNL     1      38.315 -24.800 -11.876  0.00  0.00    +0.052 S 
ATOM     12  O   UNL     1      38.697 -23.600 -11.137  0.00  0.00    -0.157 OA
ATOM     13  O   UNL     1      38.163 -26.075 -11.185  0.00  0.00    -0.157 OA
BRANCH  11  14
ATOM     14  N   UNL     1      39.453 -25.010 -13.148  0.00  0.00    -0.206 NA
ATOM     15  H   UNL     1      39.757 -25.983 -13.174  0.00  0.00    +0.144 HD
ATOM     16  H   UNL     1      40.259 -24.405 -12.986  0.00  0.00    +0.144 HD
ENDBRANCH  11  14
ENDBRANCH   7  11
BRANCH   5  17
ATOM     17  C   UNL     1      32.553 -23.332 -16.945  0.00  0.00    +0.112 C 
BRANCH  17  18
ATOM     18  C   UNL     1      33.180 -22.434 -17.956  0.00  0.00    -0.013 C 
ATOM     19  C   UNL     1      32.378 -21.641 -18.778  0.00  0.00    -0.004 C 
ATOM     20  C   UNL     1      34.569 -22.385 -18.080  0.00  0.00    -0.004 C 
ATOM     21  C   UNL     1      34.353 -20.753 -19.848  0.00  0.00    +0.018 C 
ATOM     22  C   UNL     1      32.964 -20.800 -19.724  0.00  0.00    +0.001 C 
ATOM     23  C   UNL     1      35.155 -21.544 -19.027  0.00  0.00    +0.001 C 
BRANCH  21  25
ATOM     24  N   UNL     1      36.211 -19.468 -20.524  0.00  0.00    -0.244 NA
ATOM     25  C   UNL     1      34.962 -19.881 -20.829  0.00  0.00    +0.081 C 
ATOM     26  C   UNL     1      34.282 -19.523 -21.980  0.00  0.00    +0.019 C 
ATOM     27  C   UNL     1      34.927 -18.682 -22.880  0.00  0.00    +0.003 C 
ATOM     28  C   UNL     1      36.807 -18.651 -21.422  0.00  0.00    +0.099 C 
ATOM     29  C   UNL     1      36.215 -18.233 -22.603  0.00  0.00    +0.021 C 
ENDBRANCH  21  25
ENDBRANCH  17  18
ENDBRANCH   5  17
TORSDOF 5
ENDMDL
MODEL 9
REMARK VINA RESULT:      -9.4      2.865      3.863
REMARK  Name = 491941
REMARK  5 active torsions:
REMARK  status: ('A' for Active; 'I' for Inactive)
REMARK    1  A    between atoms: C_5  and  C_17
REMARK    2  A    between atoms: C_7  and  S_11
REMARK    3  A    between atoms: S_11  and  N_14
REMARK    4  A    between atoms: C_17  and  C_18
REMARK    5  A    between atoms: C_21  and  C_25
REMARK                            x       y       z     vdW  Elec       q    Type
REMARK                         _______ _______ _______ _____ _____    ______ ____
ROOT
ATOM      1  S   UNL     1      33.463 -23.282 -14.770  0.00  0.00    -0.035 S 
ATOM      2  O   UNL     1      33.147 -21.656 -18.848  0.00  0.00    -0.274 OA
ATOM      3  N   UNL     1      34.388 -22.726 -17.159  0.00  0.00    -0.227 N 
ATOM      4  N   UNL     1      32.089 -23.420 -16.957  0.00  0.00    -0.386 NA
ATOM      5  C   UNL     1      34.230 -21.982 -18.354  0.00  0.00    +0.236 C 
ATOM      6  C   UNL     1      33.230 -23.149 -16.440  0.00  0.00    +0.217 C 
ATOM      7  C   UNL     1      31.824 -23.772 -14.659  0.00  0.00    +0.247 C 
ATOM      8  C   UNL     1      31.258 -23.786 -15.917  0.00  0.00    +0.123 C 
ATOM      9  C   UNL     1      35.722 -23.072 -16.641  0.00  0.00    +0.123 C 
ATOM     10  C   UNL     1      29.864 -24.156 -16.234  0.00  0.00    +0.064 C 
ENDROOT
BRANCH   7  11
ATOM     11  S   UNL     1      31.252 -24.135 -13.042  0.00  0.00    +0.052 S 
ATOM     12  O   UNL     1      31.567 -22.964 -12.228  0.00  0.00    -0.157 OA
ATOM     13  O   UNL     1      29.869 -24.565 -13.212  0.00  0.00    -0.157 OA
BRANCH  11  14
ATOM     14  N   UNL     1      32.154 -25.459 -12.418  0.00  0.00    -0.206 NA
ATOM     15  H   UNL     1      31.536 -26.072 -11.888  0.00  0.00    +0.144 HD
ATOM     16  H   UNL     1      32.893 -25.109 -11.808  0.00  0.00    +0.144 HD
ENDBRANCH  11  14
ENDBRANCH   7  11
BRANCH   5  17
ATOM     17  C   UNL     1      35.522 -21.527 -19.044  0.00  0.00    +0.112 C 
BRANCH  17  18
ATOM     18  C   UNL     1      35.319 -20.480 -20.085  0.00  0.00    -0.013 C 
ATOM     19  C   UNL     1      36.354 -19.597 -20.398  0.00  0.00    -0.004 C 
ATOM     20  C   UNL     1      34.095 -20.383 -20.747  0.00  0.00    -0.004 C 
ATOM     21  C   UNL     1      34.940 -18.520 -22.033  0.00  0.00    +0.018 C 
ATOM     22  C   UNL     1      36.164 -18.617 -21.372  0.00  0.00    +0.001 C 
ATOM     23  C   UNL     1      33.905 -19.402 -21.721  0.00  0.00    +0.001 C 
BRANCH  21  25
ATOM     24  N   UNL     1      34.273 -17.961 -24.225  0.00  0.00    -0.244 NA
ATOM     25  C   UNL     1      34.742 -17.503 -23.044  0.00  0.00    +0.081 C 
ATOM     26  C   UNL     1      35.023 -16.175 -22.779  0.00  0.00    +0.019 C 
ATOM     27  C   UNL     1      34.810 -15.251 -23.796  0.00  0.00    +0.003 C 
ATOM     28  C   UNL     1      34.078 -17.034 -25.190  0.00  0.00    +0.099 C 
ATOM     29  C   UNL     1      34.328 -15.681 -25.028  0.00  0.00    +0.021 C 
ENDBRANCH  21  25
ENDBRANCH  17  18
ENDBRANCH   5  17
TORSDOF 5
ENDMDL
