MODEL 1
REMARK VINA RESULT:     -11.5      0.000      0.000
REMARK  Name = 6420159
REMARK  9 active torsions:
REMARK  status: ('A' for Active; 'I' for Inactive)
REMARK    1  A    between atoms: C_1  and  N_3
REMARK    2  A    between atoms: C_1  and  C_15
REMARK    3  A    between atoms: C_1  and  C_29
REMARK    4  A    between atoms: N_14  and  C_17
REMARK    5  A    between atoms: C_17  and  C_18
REMARK    6  A    between atoms: C_18  and  N_19
REMARK    7  A    between atoms: N_19  and  C_21
REMARK    8  A    between atoms: C_26  and  O_27
REMARK    9  A    between atoms: C_29  and  C_30
REMARK                            x       y       z     vdW  Elec       q    Type
REMARK                         _______ _______ _______ _____ _____    ______ ____
ROOT
ATOM      1  C   UNL     1      33.439 -23.380 -16.797  0.00  0.00    +0.151 C 
ENDROOT
BRANCH   1   3
ATOM      2  O   UNL     1      36.007 -22.930 -14.219  0.00  0.00    -0.414 OA
ATOM      3  N   UNL     1      34.381 -22.841 -15.839  0.00  0.00    -0.271 N 
ATOM      4  N   UNL     1      35.272 -24.920 -15.018  0.00  0.00    -0.356 NA
ATOM      5  C   UNL     1      35.201 -23.627 -15.047  0.00  0.00    +0.345 C 
ATOM      6  C   UNL     1      36.689 -23.921 -13.572  0.00  0.00    +0.175 C 
ATOM      7  C   UNL     1      36.236 -25.137 -14.064  0.00  0.00    +0.152 C 
ATOM      8  C   UNL     1      37.664 -23.778 -12.594  0.00  0.00    +0.040 C 
ATOM      9  C   UNL     1      36.787 -26.321 -13.554  0.00  0.00    +0.088 C 
ATOM     10  C   UNL     1      38.204 -24.968 -12.095  0.00  0.00    -0.001 C 
ATOM     11  C   UNL     1      37.775 -26.216 -12.565  0.00  0.00    -0.018 C 
ATOM     12  H   UNL     1      34.442 -21.863 -15.745  0.00  0.00    +0.153 HD
ENDBRANCH   1   3
BRANCH   1  15
ATOM     13  O   UNL     1      33.750 -23.829 -19.157  0.00  0.00    -0.273 OA
ATOM     14  N   UNL     1      34.667 -21.898 -18.261  0.00  0.00    -0.301 N 
ATOM     15  C   UNL     1      33.951 -23.083 -18.200  0.00  0.00    +0.240 C 
ATOM     16  H   UNL     1      34.777 -21.364 -17.441  0.00  0.00    +0.150 HD
BRANCH  14  17
ATOM     17  C   UNL     1      35.258 -21.421 -19.488  0.00  0.00    +0.111 C 
BRANCH  17  18
ATOM     18  C   UNL     1      34.350 -20.447 -20.223  0.00  0.00    +0.109 C 
BRANCH  18  19
ATOM     19  N   UNL     1      35.086 -19.269 -20.615  0.00  0.00    -0.331 N 
ATOM     20  H   UNL     1      35.762 -18.914 -19.992  0.00  0.00    +0.147 HD
BRANCH  19  21
ATOM     21  C   UNL     1      34.897 -18.607 -21.818  0.00  0.00    +0.045 C 
ATOM     22  C   UNL     1      34.344 -19.272 -22.928  0.00  0.00    +0.017 C 
ATOM     23  C   UNL     1      35.254 -17.254 -21.962  0.00  0.00    +0.017 C 
ATOM     24  C   UNL     1      34.155 -18.607 -24.140  0.00  0.00    +0.038 C 
ATOM     25  C   UNL     1      35.065 -16.589 -23.174  0.00  0.00    +0.038 C 
ATOM     26  C   UNL     1      34.516 -17.266 -24.262  0.00  0.00    +0.139 C 
BRANCH  26  27
ATOM     27  O   UNL     1      34.330 -16.616 -25.444  0.00  0.00    -0.471 OA
ATOM     28  C   UNL     1      33.392 -15.541 -25.454  0.00  0.00    +0.252 C 
ENDBRANCH  26  27
ENDBRANCH  19  21
ENDBRANCH  18  19
ENDBRANCH  17  18
ENDBRANCH  14  17
ENDBRANCH   1  15
BRANCH   1  29
ATOM     29  C   UNL     1      32.059 -22.751 -16.597  0.00  0.00    +0.029 C 
BRANCH  29  30
ATOM     30  C   UNL     1      31.024 -23.758 -16.100  0.00  0.00    +0.002 C 
ATOM     31  C   UNL     1      29.622 -23.134 -16.089  0.00  0.00    +0.000 C 
ATOM     32  C   UNL     1      31.401 -24.280 -14.707  0.00  0.00    +0.000 C 
ATOM     33  C   UNL     1      28.577 -24.106 -15.545  0.00  0.00    +0.000 C 
ATOM     34  C   UNL     1      30.353 -25.248 -14.165  0.00  0.00    +0.000 C 
ATOM     35  C   UNL     1      28.959 -24.628 -14.164  0.00  0.00    +0.000 C 
ENDBRANCH  29  30
ENDBRANCH   1  29
TORSDOF 9
ENDMDL
MODEL 2
REMARK VINA RESULT:     -10.7      1.387      5.000
REMARK  Name = 6420159
REMARK  9 active torsions:
REMARK  status: ('A' for Active; 'I' for Inactive)
REMARK    1  A    between atoms: C_1  and  N_3
REMARK    2  A    between atoms: C_1  and  C_15
REMARK    3  A    between atoms: C_1  and  C_29
REMARK    4  A    between atoms: N_14  and  C_17
REMARK    5  A    between atoms: C_17  and  C_18
REMARK    6  A    between atoms: C_18  and  N_19
REMARK    7  A    between atoms: N_19  and  C_21
REMARK    8  A    between atoms: C_26  and  O_27
REMARK    9  A    between atoms: C_29  and  C_30
REMARK                            x       y       z     vdW  Elec       q    Type
REMARK                         _______ _______ _______ _____ _____    ______ ____
ROOT
ATOM      1  C   UNL     1      35.588 -22.626 -15.840  0.00  0.00    +0.151 C 
ENDROOT
BRANCH   1   3
ATOM      2  O   UNL     1      32.085 -23.600 -16.308  0.00  0.00    -0.414 OA
ATOM      3  N   UNL     1      34.271 -22.899 -16.375  0.00  0.00    -0.271 N 
ATOM      4  N   UNL     1      33.246 -23.737 -14.365  0.00  0.00    -0.356 NA
ATOM      5  C   UNL     1      33.233 -23.418 -15.621  0.00  0.00    +0.345 C 
ATOM      6  C   UNL     1      31.249 -24.106 -15.353  0.00  0.00    +0.175 C 
ATOM      7  C   UNL     1      31.964 -24.189 -14.166  0.00  0.00    +0.152 C 
ATOM      8  C   UNL     1      29.921 -24.482 -15.504  0.00  0.00    +0.040 C 
ATOM      9  C   UNL     1      31.322 -24.683 -13.022  0.00  0.00    +0.088 C 
ATOM     10  C   UNL     1      29.295 -24.973 -14.354  0.00  0.00    -0.001 C 
ATOM     11  C   UNL     1      29.979 -25.073 -13.136  0.00  0.00    -0.018 C 
ATOM     12  H   UNL     1      34.106 -22.707 -17.325  0.00  0.00    +0.153 HD
ENDBRANCH   1   3
BRANCH   1  15
ATOM     13  O   UNL     1      37.456 -21.306 -16.639  0.00  0.00    -0.273 OA
ATOM     14  N   UNL     1      35.773 -21.872 -18.130  0.00  0.00    -0.301 N 
ATOM     15  C   UNL     1      36.390 -21.865 -16.888  0.00  0.00    +0.240 C 
ATOM     16  H   UNL     1      34.918 -22.348 -18.236  0.00  0.00    +0.150 HD
BRANCH  14  17
ATOM     17  C   UNL     1      36.345 -21.203 -19.274  0.00  0.00    +0.111 C 
BRANCH  17  18
ATOM     18  C   UNL     1      35.282 -20.640 -20.203  0.00  0.00    +0.109 C 
BRANCH  18  19
ATOM     19  N   UNL     1      35.601 -19.281 -20.571  0.00  0.00    -0.331 N 
ATOM     20  H   UNL     1      36.120 -18.737 -19.934  0.00  0.00    +0.147 HD
BRANCH  19  21
ATOM     21  C   UNL     1      35.219 -18.697 -21.768  0.00  0.00    +0.045 C 
ATOM     22  C   UNL     1      34.664 -19.471 -22.804  0.00  0.00    +0.017 C 
ATOM     23  C   UNL     1      35.378 -17.315 -21.980  0.00  0.00    +0.017 C 
ATOM     24  C   UNL     1      34.281 -18.883 -24.010  0.00  0.00    +0.038 C 
ATOM     25  C   UNL     1      34.994 -16.727 -23.186  0.00  0.00    +0.038 C 
ATOM     26  C   UNL     1      34.447 -17.511 -24.201  0.00  0.00    +0.139 C 
BRANCH  26  27
ATOM     27  O   UNL     1      34.072 -16.937 -25.377  0.00  0.00    -0.471 OA
ATOM     28  C   UNL     1      33.493 -15.635 -25.309  0.00  0.00    +0.252 C 
ENDBRANCH  26  27
ENDBRANCH  19  21
ENDBRANCH  18  19
ENDBRANCH  17  18
ENDBRANCH  14  17
ENDBRANCH   1  15
BRANCH   1  29
ATOM     29  C   UNL     1      36.299 -23.932 -15.481  0.00  0.00    +0.029 C 
BRANCH  29  30
ATOM     30  C   UNL     1      37.188 -23.794 -14.247  0.00  0.00    +0.002 C 
ATOM     31  C   UNL     1      37.814 -25.144 -13.876  0.00  0.00    +0.000 C 
ATOM     32  C   UNL     1      36.393 -23.218 -13.067  0.00  0.00    +0.000 C 
ATOM     33  C   UNL     1      38.666 -25.043 -12.612  0.00  0.00    +0.000 C 
ATOM     34  C   UNL     1      37.246 -23.120 -11.806  0.00  0.00    +0.000 C 
ATOM     35  C   UNL     1      37.874 -24.463 -11.445  0.00  0.00    +0.000 C 
ENDBRANCH  29  30
ENDBRANCH   1  29
TORSDOF 9
ENDMDL
MODEL 3
REMARK VINA RESULT:     -10.6      3.228      7.479
REMARK  Name = 6420159
REMARK  9 active torsions:
REMARK  status: ('A' for Active; 'I' for Inactive)
REMARK    1  A    between atoms: C_1  and  N_3
REMARK    2  A    between atoms: C_1  and  C_15
REMARK    3  A    between atoms: C_1  and  C_29
REMARK    4  A    between atoms: N_14  and  C_17
REMARK    5  A    between atoms: C_17  and  C_18
REMARK    6  A    between atoms: C_18  and  N_19
REMARK    7  A    between atoms: N_19  and  C_21
REMARK    8  A    between atoms: C_26  and  O_27
REMARK    9  A    between atoms: C_29  and  C_30
REMARK                            x       y       z     vdW  Elec       q    Type
REMARK                         _______ _______ _______ _____ _____    ______ ____
ROOT
ATOM      1  C   UNL     1      33.671 -22.983 -16.590  0.00  0.00    +0.151 C 
ENDROOT
BRANCH   1   3
ATOM      2  O   UNL     1      35.846 -25.434 -14.946  0.00  0.00    -0.414 OA
ATOM      3  N   UNL     1      34.406 -24.172 -16.214  0.00  0.00    -0.271 N 
ATOM      4  N   UNL     1      35.535 -23.289 -14.282  0.00  0.00    -0.356 NA
ATOM      5  C   UNL     1      35.256 -24.234 -15.124  0.00  0.00    +0.345 C 
ATOM      6  C   UNL     1      36.609 -25.224 -13.833  0.00  0.00    +0.175 C 
ATOM      7  C   UNL     1      36.416 -23.910 -13.430  0.00  0.00    +0.152 C 
ATOM      8  C   UNL     1      37.440 -26.134 -13.193  0.00  0.00    +0.040 C 
ATOM      9  C   UNL     1      37.097 -23.443 -12.297  0.00  0.00    +0.088 C 
ATOM     10  C   UNL     1      38.111 -25.652 -12.064  0.00  0.00    -0.001 C 
ATOM     11  C   UNL     1      37.945 -24.334 -11.623  0.00  0.00    -0.018 C 
ATOM     12  H   UNL     1      34.296 -24.980 -16.765  0.00  0.00    +0.153 HD
ENDBRANCH   1   3
BRANCH   1  15
ATOM     13  O   UNL     1      31.258 -22.786 -16.494  0.00  0.00    -0.273 OA
ATOM     14  N   UNL     1      32.410 -23.317 -14.553  0.00  0.00    -0.301 N 
ATOM     15  C   UNL     1      32.312 -23.016 -15.903  0.00  0.00    +0.240 C 
ATOM     16  H   UNL     1      33.298 -23.487 -14.166  0.00  0.00    +0.150 HD
BRANCH  14  17
ATOM     17  C   UNL     1      31.250 -23.392 -13.698  0.00  0.00    +0.111 C 
BRANCH  17  18
ATOM     18  C   UNL     1      30.866 -24.827 -13.372  0.00  0.00    +0.109 C 
BRANCH  18  19
ATOM     19  N   UNL     1      29.493 -25.077 -13.738  0.00  0.00    -0.331 N 
ATOM     20  H   UNL     1      29.007 -25.790 -13.262  0.00  0.00    +0.147 HD
BRANCH  19  21
ATOM     21  C   UNL     1      28.818 -24.373 -14.722  0.00  0.00    +0.045 C 
ATOM     22  C   UNL     1      28.249 -23.115 -14.449  0.00  0.00    +0.017 C 
ATOM     23  C   UNL     1      28.681 -24.897 -16.021  0.00  0.00    +0.017 C 
ATOM     24  C   UNL     1      27.568 -22.406 -15.439  0.00  0.00    +0.038 C 
ATOM     25  C   UNL     1      28.001 -24.188 -17.011  0.00  0.00    +0.038 C 
ATOM     26  C   UNL     1      27.444 -22.943 -16.720  0.00  0.00    +0.139 C 
BRANCH  26  27
ATOM     27  O   UNL     1      26.781 -22.252 -17.687  0.00  0.00    -0.471 OA
ATOM     28  C   UNL     1      25.877 -21.235 -17.256  0.00  0.00    +0.252 C 
ENDBRANCH  26  27
ENDBRANCH  19  21
ENDBRANCH  18  19
ENDBRANCH  17  18
ENDBRANCH  14  17
ENDBRANCH   1  15
BRANCH   1  29
ATOM     29  C   UNL     1      33.491 -22.924 -18.107  0.00  0.00    +0.029 C 
BRANCH  29  30
ATOM     30  C   UNL     1      34.070 -21.649 -18.716  0.00  0.00    +0.002 C 
ATOM     31  C   UNL     1      33.191 -21.152 -19.871  0.00  0.00    +0.000 C 
ATOM     32  C   UNL     1      35.513 -21.879 -19.188  0.00  0.00    +0.000 C 
ATOM     33  C   UNL     1      33.779 -19.906 -20.531  0.00  0.00    +0.000 C 
ATOM     34  C   UNL     1      36.096 -20.633 -19.849  0.00  0.00    +0.000 C 
ATOM     35  C   UNL     1      35.214 -20.137 -20.991  0.00  0.00    +0.000 C 
ENDBRANCH  29  30
ENDBRANCH   1  29
TORSDOF 9
ENDMDL
MODEL 4
REMARK VINA RESULT:     -10.2      1.203      5.166
REMARK  Name = 6420159
REMARK  9 active torsions:
REMARK  status: ('A' for Active; 'I' for Inactive)
REMARK    1  A    between atoms: C_1  and  N_3
REMARK    2  A    between atoms: C_1  and  C_15
REMARK    3  A    between atoms: C_1  and  C_29
REMARK    4  A    between atoms: N_14  and  C_17
REMARK    5  A    between atoms: C_17  and  C_18
REMARK    6  A    between atoms: C_18  and  N_19
REMARK    7  A    between atoms: N_19  and  C_21
REMARK    8  A    between atoms: C_26  and  O_27
REMARK    9  A    between atoms: C_29  and  C_30
REMARK                            x       y       z     vdW  Elec       q    Type
REMARK                         _______ _______ _______ _____ _____    ______ ____
ROOT
ATOM      1  C   UNL     1      35.001 -22.623 -15.830  0.00  0.00    +0.151 C 
ENDROOT
BRANCH   1   3
ATOM      2  O   UNL     1      32.311 -24.796 -14.612  0.00  0.00    -0.414 OA
ATOM      3  N   UNL     1      34.225 -23.689 -15.232  0.00  0.00    -0.271 N 
ATOM      4  N   UNL     1      32.028 -22.835 -15.714  0.00  0.00    -0.356 NA
ATOM      5  C   UNL     1      32.842 -23.714 -15.220  0.00  0.00    +0.345 C 
ATOM      6  C   UNL     1      30.969 -24.574 -14.739  0.00  0.00    +0.175 C 
ATOM      7  C   UNL     1      30.800 -23.373 -15.413  0.00  0.00    +0.152 C 
ATOM      8  C   UNL     1      29.932 -25.380 -14.287  0.00  0.00    +0.040 C 
ATOM      9  C   UNL     1      29.500 -22.917 -15.671  0.00  0.00    +0.088 C 
ATOM     10  C   UNL     1      28.640 -24.911 -14.552  0.00  0.00    -0.001 C 
ATOM     11  C   UNL     1      28.426 -23.705 -15.230  0.00  0.00    -0.018 C 
ATOM     12  H   UNL     1      34.708 -24.437 -14.812  0.00  0.00    +0.153 HD
ENDBRANCH   1   3
BRANCH   1  15
ATOM     13  O   UNL     1      34.131 -23.527 -17.903  0.00  0.00    -0.273 OA
ATOM     14  N   UNL     1      35.675 -21.800 -18.002  0.00  0.00    -0.301 N 
ATOM     15  C   UNL     1      34.868 -22.716 -17.344  0.00  0.00    +0.240 C 
ATOM     16  H   UNL     1      36.233 -21.188 -17.470  0.00  0.00    +0.150 HD
BRANCH  14  17
ATOM     17  C   UNL     1      35.722 -21.714 -19.442  0.00  0.00    +0.111 C 
BRANCH  17  18
ATOM     18  C   UNL     1      34.748 -20.682 -19.989  0.00  0.00    +0.109 C 
BRANCH  18  19
ATOM     19  N   UNL     1      35.460 -19.521 -20.468  0.00  0.00    -0.331 N 
ATOM     20  H   UNL     1      36.212 -19.182 -19.929  0.00  0.00    +0.147 HD
BRANCH  19  21
ATOM     21  C   UNL     1      35.146 -18.856 -21.642  0.00  0.00    +0.045 C 
ATOM     22  C   UNL     1      34.574 -19.543 -22.730  0.00  0.00    +0.017 C 
ATOM     23  C   UNL     1      35.391 -17.478 -21.780  0.00  0.00    +0.017 C 
ATOM     24  C   UNL     1      34.259 -18.873 -23.913  0.00  0.00    +0.038 C 
ATOM     25  C   UNL     1      35.076 -16.809 -22.962  0.00  0.00    +0.038 C 
ATOM     26  C   UNL     1      34.510 -17.506 -24.029  0.00  0.00    +0.139 C 
BRANCH  26  27
ATOM     27  O   UNL     1      34.202 -16.853 -25.182  0.00  0.00    -0.471 OA
ATOM     28  C   UNL     1      33.408 -15.673 -25.068  0.00  0.00    +0.252 C 
ENDBRANCH  26  27
ENDBRANCH  19  21
ENDBRANCH  18  19
ENDBRANCH  17  18
ENDBRANCH  14  17
ENDBRANCH   1  15
BRANCH   1  29
ATOM     29  C   UNL     1      36.471 -22.742 -15.424  0.00  0.00    +0.029 C 
BRANCH  29  30
ATOM     30  C   UNL     1      36.686 -23.748 -14.296  0.00  0.00    +0.002 C 
ATOM     31  C   UNL     1      36.922 -23.026 -12.963  0.00  0.00    +0.000 C 
ATOM     32  C   UNL     1      37.855 -24.688 -14.621  0.00  0.00    +0.000 C 
ATOM     33  C   UNL     1      37.192 -24.011 -11.827  0.00  0.00    +0.000 C 
ATOM     34  C   UNL     1      38.124 -25.669 -13.484  0.00  0.00    +0.000 C 
ATOM     35  C   UNL     1      38.349 -24.947 -12.159  0.00  0.00    +0.000 C 
ENDBRANCH  29  30
ENDBRANCH   1  29
TORSDOF 9
ENDMDL
MODEL 5
REMARK VINA RESULT:     -10.1      2.903      8.456
REMARK  Name = 6420159
REMARK  9 active torsions:
REMARK  status: ('A' for Active; 'I' for Inactive)
REMARK    1  A    between atoms: C_1  and  N_3
REMARK    2  A    between atoms: C_1  and  C_15
REMARK    3  A    between atoms: C_1  and  C_29
REMARK    4  A    between atoms: N_14  and  C_17
REMARK    5  A    between atoms: C_17  and  C_18
REMARK    6  A    between atoms: C_18  and  N_19
REMARK    7  A    between atoms: N_19  and  C_21
REMARK    8  A    between atoms: C_26  and  O_27
REMARK    9  A    between atoms: C_29  and  C_30
REMARK                            x       y       z     vdW  Elec       q    Type
REMARK                         _______ _______ _______ _____ _____    ______ ____
ROOT
ATOM      1  C   UNL     1      34.155 -24.110 -15.248  0.00  0.00    +0.151 C 
ENDROOT
BRANCH   1   3
ATOM      2  O   UNL     1      32.824 -22.141 -18.040  0.00  0.00    -0.414 OA
ATOM      3  N   UNL     1      33.302 -23.430 -16.200  0.00  0.00    -0.271 N 
ATOM      4  N   UNL     1      35.020 -22.494 -17.601  0.00  0.00    -0.356 NA
ATOM      5  C   UNL     1      33.783 -22.697 -17.271  0.00  0.00    +0.345 C 
ATOM      6  C   UNL     1      33.553 -21.493 -18.996  0.00  0.00    +0.175 C 
ATOM      7  C   UNL     1      34.896 -21.712 -18.724  0.00  0.00    +0.152 C 
ATOM      8  C   UNL     1      33.073 -20.743 -20.062  0.00  0.00    +0.040 C 
ATOM      9  C   UNL     1      35.859 -21.145 -19.571  0.00  0.00    +0.088 C 
ATOM     10  C   UNL     1      34.046 -20.185 -20.897  0.00  0.00    -0.001 C 
ATOM     11  C   UNL     1      35.413 -20.381 -20.659  0.00  0.00    -0.018 C 
ATOM     12  H   UNL     1      32.328 -23.492 -16.079  0.00  0.00    +0.153 HD
ENDBRANCH   1   3
BRANCH   1  15
ATOM     13  O   UNL     1      33.842 -24.105 -12.846  0.00  0.00    -0.273 OA
ATOM     14  N   UNL     1      32.091 -24.803 -14.196  0.00  0.00    -0.301 N 
ATOM     15  C   UNL     1      33.371 -24.325 -13.961  0.00  0.00    +0.240 C 
ATOM     16  H   UNL     1      31.800 -24.950 -15.125  0.00  0.00    +0.150 HD
BRANCH  14  17
ATOM     17  C   UNL     1      31.171 -25.092 -13.123  0.00  0.00    +0.111 C 
BRANCH  17  18
ATOM     18  C   UNL     1      29.828 -25.589 -13.634  0.00  0.00    +0.109 C 
BRANCH  18  19
ATOM     19  N   UNL     1      29.675 -25.278 -15.036  0.00  0.00    -0.331 N 
ATOM     20  H   UNL     1      30.181 -25.815 -15.689  0.00  0.00    +0.147 HD
BRANCH  19  21
ATOM     21  C   UNL     1      28.858 -24.266 -15.515  0.00  0.00    +0.045 C 
ATOM     22  C   UNL     1      28.646 -23.094 -14.766  0.00  0.00    +0.017 C 
ATOM     23  C   UNL     1      28.218 -24.385 -16.762  0.00  0.00    +0.017 C 
ATOM     24  C   UNL     1      27.822 -22.076 -15.248  0.00  0.00    +0.038 C 
ATOM     25  C   UNL     1      27.394 -23.367 -17.244  0.00  0.00    +0.038 C 
ATOM     26  C   UNL     1      27.196 -22.214 -16.486  0.00  0.00    +0.139 C 
BRANCH  26  27
ATOM     27  O   UNL     1      26.393 -21.220 -16.958  0.00  0.00    -0.471 OA
ATOM     28  C   UNL     1      25.750 -21.444 -18.211  0.00  0.00    +0.252 C 
ENDBRANCH  26  27
ENDBRANCH  19  21
ENDBRANCH  18  19
ENDBRANCH  17  18
ENDBRANCH  14  17
ENDBRANCH   1  15
BRANCH   1  29
ATOM     29  C   UNL     1      35.408 -23.278 -14.967  0.00  0.00    +0.029 C 
BRANCH  29  30
ATOM     30  C   UNL     1      36.631 -24.145 -14.674  0.00  0.00    +0.002 C 
ATOM     31  C   UNL     1      36.287 -25.634 -14.814  0.00  0.00    +0.000 C 
ATOM     32  C   UNL     1      37.188 -23.842 -13.277  0.00  0.00    +0.000 C 
ATOM     33  C   UNL     1      37.481 -26.523 -14.474  0.00  0.00    +0.000 C 
ATOM     34  C   UNL     1      38.380 -24.734 -12.939  0.00  0.00    +0.000 C 
ATOM     35  C   UNL     1      38.036 -26.213 -13.088  0.00  0.00    +0.000 C 
ENDBRANCH  29  30
ENDBRANCH   1  29
TORSDOF 9
ENDMDL
MODEL 6
REMARK VINA RESULT:      -9.7      8.648     16.232
REMARK  Name = 6420159
REMARK  9 active torsions:
REMARK  status: ('A' for Active; 'I' for Inactive)
REMARK    1  A    between atoms: C_1  and  N_3
REMARK    2  A    between atoms: C_1  and  C_15
REMARK    3  A    between atoms: C_1  and  C_29
REMARK    4  A    between atoms: N_14  and  C_17
REMARK    5  A    between atoms: C_17  and  C_18
REMARK    6  A    between atoms: C_18  and  N_19
REMARK    7  A    between atoms: N_19  and  C_21
REMARK    8  A    between atoms: C_26  and  O_27
REMARK    9  A    between atoms: C_29  and  C_30
REMARK                            x       y       z     vdW  Elec       q    Type
REMARK                         _______ _______ _______ _____ _____    ______ ____
ROOT
ATOM      1  C   UNL     1      33.465  -8.160 -23.108  0.00  0.00    +0.151 C 
ENDROOT
BRANCH   1   3
ATOM      2  O   UNL     1      33.210  -4.957 -24.874  0.00  0.00    -0.414 OA
ATOM      3  N   UNL     1      33.622  -7.051 -24.026  0.00  0.00    -0.271 N 
ATOM      4  N   UNL     1      32.037  -5.542 -23.025  0.00  0.00    -0.356 NA
ATOM      5  C   UNL     1      32.919  -5.864 -23.919  0.00  0.00    +0.345 C 
ATOM      6  C   UNL     1      32.400  -3.909 -24.541  0.00  0.00    +0.175 C 
ATOM      7  C   UNL     1      31.684  -4.271 -23.409  0.00  0.00    +0.152 C 
ATOM      8  C   UNL     1      32.286  -2.687 -25.192  0.00  0.00    +0.040 C 
ATOM      9  C   UNL     1      30.773  -3.357 -22.863  0.00  0.00    +0.088 C 
ATOM     10  C   UNL     1      31.373  -1.786 -24.635  0.00  0.00    -0.001 C 
ATOM     11  C   UNL     1      30.630  -2.112 -23.493  0.00  0.00    -0.018 C 
ATOM     12  H   UNL     1      34.262  -7.147 -24.767  0.00  0.00    +0.153 HD
ENDBRANCH   1   3
BRANCH   1  15
ATOM     13  O   UNL     1      35.557  -9.245 -23.668  0.00  0.00    -0.273 OA
ATOM     14  N   UNL     1      33.582 -10.430 -23.933  0.00  0.00    -0.301 N 
ATOM     15  C   UNL     1      34.332  -9.315 -23.590  0.00  0.00    +0.240 C 
ATOM     16  H   UNL     1      32.603 -10.395 -23.837  0.00  0.00    +0.150 HD
BRANCH  14  17
ATOM     17  C   UNL     1      34.191 -11.641 -24.428  0.00  0.00    +0.111 C 
BRANCH  17  18
ATOM     18  C   UNL     1      33.839 -12.851 -23.577  0.00  0.00    +0.109 C 
BRANCH  18  19
ATOM     19  N   UNL     1      33.596 -14.002 -24.413  0.00  0.00    -0.331 N 
ATOM     20  H   UNL     1      33.141 -13.863 -25.276  0.00  0.00    +0.147 HD
BRANCH  19  21
ATOM     21  C   UNL     1      33.966 -15.294 -24.072  0.00  0.00    +0.045 C 
ATOM     22  C   UNL     1      34.682 -15.551 -22.888  0.00  0.00    +0.017 C 
ATOM     23  C   UNL     1      33.638 -16.382 -24.901  0.00  0.00    +0.017 C 
ATOM     24  C   UNL     1      35.056 -16.850 -22.545  0.00  0.00    +0.038 C 
ATOM     25  C   UNL     1      34.012 -17.682 -24.558  0.00  0.00    +0.038 C 
ATOM     26  C   UNL     1      34.721 -17.915 -23.381  0.00  0.00    +0.139 C 
BRANCH  26  27
ATOM     27  O   UNL     1      35.084 -19.184 -23.046  0.00  0.00    -0.471 OA
ATOM     28  C   UNL     1      34.828 -19.601 -21.706  0.00  0.00    +0.252 C 
ENDBRANCH  26  27
ENDBRANCH  19  21
ENDBRANCH  18  19
ENDBRANCH  17  18
ENDBRANCH  14  17
ENDBRANCH   1  15
BRANCH   1  29
ATOM     29  C   UNL     1      31.999  -8.594 -23.044  0.00  0.00    +0.029 C 
BRANCH  29  30
ATOM     30  C   UNL     1      31.536  -8.880 -21.618  0.00  0.00    +0.002 C 
ATOM     31  C   UNL     1      32.513  -8.277 -20.599  0.00  0.00    +0.000 C 
ATOM     32  C   UNL     1      31.375 -10.390 -21.391  0.00  0.00    +0.000 C 
ATOM     33  C   UNL     1      32.099  -8.595 -19.164  0.00  0.00    +0.000 C 
ATOM     34  C   UNL     1      30.964 -10.704 -19.955  0.00  0.00    +0.000 C 
ATOM     35  C   UNL     1      31.933 -10.095 -18.946  0.00  0.00    +0.000 C 
ENDBRANCH  29  30
ENDBRANCH   1  29
TORSDOF 9
ENDMDL
MODEL 7
REMARK VINA RESULT:      -9.5      2.703      8.506
REMARK  Name = 6420159
REMARK  9 active torsions:
REMARK  status: ('A' for Active; 'I' for Inactive)
REMARK    1  A    between atoms: C_1  and  N_3
REMARK    2  A    between atoms: C_1  and  C_15
REMARK    3  A    between atoms: C_1  and  C_29
REMARK    4  A    between atoms: N_14  and  C_17
REMARK    5  A    between atoms: C_17  and  C_18
REMARK    6  A    between atoms: C_18  and  N_19
REMARK    7  A    between atoms: N_19  and  C_21
REMARK    8  A    between atoms: C_26  and  O_27
REMARK    9  A    between atoms: C_29  and  C_30
REMARK                            x       y       z     vdW  Elec       q    Type
REMARK                         _______ _______ _______ _____ _____    ______ ____
ROOT
ATOM      1  C   UNL     1      36.859 -23.307 -15.919  0.00  0.00    +0.151 C 
ENDROOT
BRANCH   1   3
ATOM      2  O   UNL     1      36.579 -21.095 -18.830  0.00  0.00    -0.414 OA
ATOM      3  N   UNL     1      37.116 -22.395 -17.014  0.00  0.00    -0.271 N 
ATOM      4  N   UNL     1      34.870 -22.226 -17.860  0.00  0.00    -0.356 NA
ATOM      5  C   UNL     1      36.133 -21.938 -17.875  0.00  0.00    +0.345 C 
ATOM      6  C   UNL     1      35.437 -20.804 -19.521  0.00  0.00    +0.175 C 
ATOM      7  C   UNL     1      34.394 -21.498 -18.925  0.00  0.00    +0.152 C 
ATOM      8  C   UNL     1      35.305 -19.971 -20.624  0.00  0.00    +0.040 C 
ATOM      9  C   UNL     1      33.103 -21.366 -19.454  0.00  0.00    +0.088 C 
ATOM     10  C   UNL     1      34.011 -19.850 -21.141  0.00  0.00    -0.001 C 
ATOM     11  C   UNL     1      32.930 -20.532 -20.569  0.00  0.00    -0.018 C 
ATOM     12  H   UNL     1      38.039 -22.085 -17.154  0.00  0.00    +0.153 HD
ENDBRANCH   1   3
BRANCH   1  15
ATOM     13  O   UNL     1      35.677 -21.808 -14.428  0.00  0.00    -0.273 OA
ATOM     14  N   UNL     1      34.532 -23.609 -15.334  0.00  0.00    -0.301 N 
ATOM     15  C   UNL     1      35.647 -22.806 -15.144  0.00  0.00    +0.240 C 
ATOM     16  H   UNL     1      34.602 -24.390 -15.928  0.00  0.00    +0.150 HD
BRANCH  14  17
ATOM     17  C   UNL     1      33.271 -23.333 -14.689  0.00  0.00    +0.111 C 
BRANCH  17  18
ATOM     18  C   UNL     1      32.945 -24.349 -13.605  0.00  0.00    +0.109 C 
BRANCH  18  19
ATOM     19  N   UNL     1      31.548 -24.277 -13.249  0.00  0.00    -0.331 N 
ATOM     20  H   UNL     1      31.307 -24.345 -12.296  0.00  0.00    +0.147 HD
BRANCH  19  21
ATOM     21  C   UNL     1      30.526 -24.117 -14.172  0.00  0.00    +0.045 C 
ATOM     22  C   UNL     1      30.002 -25.223 -14.867  0.00  0.00    +0.017 C 
ATOM     23  C   UNL     1      29.987 -22.846 -14.439  0.00  0.00    +0.017 C 
ATOM     24  C   UNL     1      28.975 -25.062 -15.797  0.00  0.00    +0.038 C 
ATOM     25  C   UNL     1      28.959 -22.685 -15.369  0.00  0.00    +0.038 C 
ATOM     26  C   UNL     1      28.454 -23.793 -16.048  0.00  0.00    +0.139 C 
BRANCH  26  27
ATOM     27  O   UNL     1      27.451 -23.635 -16.954  0.00  0.00    -0.471 OA
ATOM     28  C   UNL     1      26.891 -22.330 -17.084  0.00  0.00    +0.252 C 
ENDBRANCH  26  27
ENDBRANCH  19  21
ENDBRANCH  18  19
ENDBRANCH  17  18
ENDBRANCH  14  17
ENDBRANCH   1  15
BRANCH   1  29
ATOM     29  C   UNL     1      38.076 -23.386 -14.996  0.00  0.00    +0.029 C 
BRANCH  29  30
ATOM     30  C   UNL     1      38.153 -24.712 -14.242  0.00  0.00    +0.002 C 
ATOM     31  C   UNL     1      37.130 -25.711 -14.797  0.00  0.00    +0.000 C 
ATOM     32  C   UNL     1      37.941 -24.494 -12.737  0.00  0.00    +0.000 C 
ATOM     33  C   UNL     1      37.151 -27.028 -14.025  0.00  0.00    +0.000 C 
ATOM     34  C   UNL     1      37.960 -25.812 -11.968  0.00  0.00    +0.000 C 
ATOM     35  C   UNL     1      36.948 -26.806 -12.529  0.00  0.00    +0.000 C 
ENDBRANCH  29  30
ENDBRANCH   1  29
TORSDOF 9
ENDMDL
MODEL 8
REMARK VINA RESULT:      -9.4      3.333      7.265
REMARK  Name = 6420159
REMARK  9 active torsions:
REMARK  status: ('A' for Active; 'I' for Inactive)
REMARK    1  A    between atoms: C_1  and  N_3
REMARK    2  A    between atoms: C_1  and  C_15
REMARK    3  A    between atoms: C_1  and  C_29
REMARK    4  A    between atoms: N_14  and  C_17
REMARK    5  A    between atoms: C_17  and  C_18
REMARK    6  A    between atoms: C_18  and  N_19
REMARK    7  A    between atoms: N_19  and  C_21
REMARK    8  A    between atoms: C_26  and  O_27
REMARK    9  A    between atoms: C_29  and  C_30
REMARK                            x       y       z     vdW  Elec       q    Type
REMARK                         _______ _______ _______ _____ _____    ______ ____
ROOT
ATOM      1  C   UNL     1      34.008 -22.641 -16.647  0.00  0.00    +0.151 C 
ENDROOT
BRANCH   1   3
ATOM      2  O   UNL     1      37.217 -23.131 -14.944  0.00  0.00    -0.414 OA
ATOM      3  N   UNL     1      35.305 -22.467 -16.029  0.00  0.00    -0.271 N 
ATOM      4  N   UNL     1      35.700 -24.754 -15.397  0.00  0.00    -0.356 NA
ATOM      5  C   UNL     1      36.031 -23.503 -15.469  0.00  0.00    +0.345 C 
ATOM      6  C   UNL     1      37.712 -24.313 -14.472  0.00  0.00    +0.175 C 
ATOM      7  C   UNL     1      36.782 -25.304 -14.751  0.00  0.00    +0.152 C 
ATOM      8  C   UNL     1      38.923 -24.525 -13.824  0.00  0.00    +0.040 C 
ATOM      9  C   UNL     1      37.058 -26.622 -14.363  0.00  0.00    +0.088 C 
ATOM     10  C   UNL     1      39.184 -25.846 -13.444  0.00  0.00    -0.001 C 
ATOM     11  C   UNL     1      38.272 -26.875 -13.707  0.00  0.00    -0.018 C 
ATOM     12  H   UNL     1      35.692 -21.562 -16.006  0.00  0.00    +0.153 HD
ENDBRANCH   1   3
BRANCH   1  15
ATOM     13  O   UNL     1      32.217 -24.168 -16.074  0.00  0.00    -0.273 OA
ATOM     14  N   UNL     1      33.427 -23.178 -14.362  0.00  0.00    -0.301 N 
ATOM     15  C   UNL     1      33.115 -23.421 -15.692  0.00  0.00    +0.240 C 
ATOM     16  H   UNL     1      34.165 -22.563 -14.150  0.00  0.00    +0.150 HD
BRANCH  14  17
ATOM     17  C   UNL     1      32.704 -23.800 -13.279  0.00  0.00    +0.111 C 
BRANCH  17  18
ATOM     18  C   UNL     1      31.332 -23.178 -13.070  0.00  0.00    +0.109 C 
BRANCH  18  19
ATOM     19  N   UNL     1      30.297 -24.076 -13.522  0.00  0.00    -0.331 N 
ATOM     20  H   UNL     1      30.200 -24.942 -13.063  0.00  0.00    +0.147 HD
BRANCH  19  21
ATOM     21  C   UNL     1      29.431 -23.790 -14.566  0.00  0.00    +0.045 C 
ATOM     22  C   UNL     1      28.909 -22.494 -14.737  0.00  0.00    +0.017 C 
ATOM     23  C   UNL     1      29.048 -24.788 -15.481  0.00  0.00    +0.017 C 
ATOM     24  C   UNL     1      28.036 -22.207 -15.787  0.00  0.00    +0.038 C 
ATOM     25  C   UNL     1      28.176 -24.501 -16.531  0.00  0.00    +0.038 C 
ATOM     26  C   UNL     1      27.670 -23.210 -16.683  0.00  0.00    +0.139 C 
BRANCH  26  27
ATOM     27  O   UNL     1      26.819 -22.930 -17.708  0.00  0.00    -0.471 OA
ATOM     28  C   UNL     1      26.155 -21.668 -17.676  0.00  0.00    +0.252 C 
ENDBRANCH  26  27
ENDBRANCH  19  21
ENDBRANCH  18  19
ENDBRANCH  17  18
ENDBRANCH  14  17
ENDBRANCH   1  15
BRANCH   1  29
ATOM     29  C   UNL     1      34.145 -23.395 -17.971  0.00  0.00    +0.029 C 
BRANCH  29  30
ATOM     30  C   UNL     1      34.142 -22.462 -19.179  0.00  0.00    +0.002 C 
ATOM     31  C   UNL     1      35.474 -21.709 -19.287  0.00  0.00    +0.000 C 
ATOM     32  C   UNL     1      32.965 -21.479 -19.103  0.00  0.00    +0.000 C 
ATOM     33  C   UNL     1      35.476 -20.729 -20.458  0.00  0.00    +0.000 C 
ATOM     34  C   UNL     1      32.971 -20.500 -20.273  0.00  0.00    +0.000 C 
ATOM     35  C   UNL     1      34.300 -19.760 -20.382  0.00  0.00    +0.000 C 
ENDBRANCH  29  30
ENDBRANCH   1  29
TORSDOF 9
ENDMDL
MODEL 9
REMARK VINA RESULT:      -9.2      4.033     11.782
REMARK  Name = 6420159
REMARK  9 active torsions:
REMARK  status: ('A' for Active; 'I' for Inactive)
REMARK    1  A    between atoms: C_1  and  N_3
REMARK    2  A    between atoms: C_1  and  C_15
REMARK    3  A    between atoms: C_1  and  C_29
REMARK    4  A    between atoms: N_14  and  C_17
REMARK    5  A    between atoms: C_17  and  C_18
REMARK    6  A    between atoms: C_18  and  N_19
REMARK    7  A    between atoms: N_19  and  C_21
REMARK    8  A    between atoms: C_26  and  O_27
REMARK    9  A    between atoms: C_29  and  C_30
REMARK                            x       y       z     vdW  Elec       q    Type
REMARK                         _______ _______ _______ _____ _____    ______ ____
ROOT
ATOM      1  C   UNL     1      34.163 -15.291 -23.330  0.00  0.00    +0.151 C 
ENDROOT
BRANCH   1   3
ATOM      2  O   UNL     1      33.898 -11.635 -23.320  0.00  0.00    -0.414 OA
ATOM      3  N   UNL     1      34.365 -13.873 -23.538  0.00  0.00    -0.271 N 
ATOM      4  N   UNL     1      32.486 -13.064 -22.270  0.00  0.00    -0.356 NA
ATOM      5  C   UNL     1      33.538 -12.897 -23.009  0.00  0.00    +0.345 C 
ATOM      6  C   UNL     1      32.941 -10.892 -22.689  0.00  0.00    +0.175 C 
ATOM      7  C   UNL     1      32.079 -11.771 -22.048  0.00  0.00    +0.152 C 
ATOM      8  C   UNL     1      32.819  -9.509 -22.670  0.00  0.00    +0.040 C 
ATOM      9  C   UNL     1      30.999 -11.251 -21.321  0.00  0.00    +0.088 C 
ATOM     10  C   UNL     1      31.737  -9.006 -21.940  0.00  0.00    -0.001 C 
ATOM     11  C   UNL     1      30.843  -9.857 -21.279  0.00  0.00    -0.018 C 
ATOM     12  H   UNL     1      35.131 -13.587 -24.085  0.00  0.00    +0.153 HD
ENDBRANCH   1   3
BRANCH   1  15
ATOM     13  O   UNL     1      34.554 -14.907 -20.971  0.00  0.00    -0.273 OA
ATOM     14  N   UNL     1      35.265 -16.906 -21.907  0.00  0.00    -0.301 N 
ATOM     15  C   UNL     1      34.666 -15.655 -21.940  0.00  0.00    +0.240 C 
ATOM     16  H   UNL     1      35.309 -17.436 -22.735  0.00  0.00    +0.150 HD
BRANCH  14  17
ATOM     17  C   UNL     1      35.826 -17.455 -20.696  0.00  0.00    +0.111 C 
BRANCH  17  18
ATOM     18  C   UNL     1      36.678 -18.686 -20.963  0.00  0.00    +0.109 C 
BRANCH  18  19
ATOM     19  N   UNL     1      35.846 -19.800 -21.352  0.00  0.00    -0.331 N 
ATOM     20  H   UNL     1      35.878 -20.099 -22.290  0.00  0.00    +0.147 HD
BRANCH  19  21
ATOM     21  C   UNL     1      35.002 -20.472 -20.481  0.00  0.00    +0.045 C 
ATOM     22  C   UNL     1      35.519 -21.345 -19.506  0.00  0.00    +0.017 C 
ATOM     23  C   UNL     1      33.608 -20.300 -20.550  0.00  0.00    +0.017 C 
ATOM     24  C   UNL     1      34.670 -22.022 -18.630  0.00  0.00    +0.038 C 
ATOM     25  C   UNL     1      32.759 -20.977 -19.675  0.00  0.00    +0.038 C 
ATOM     26  C   UNL     1      33.290 -21.838 -18.715  0.00  0.00    +0.139 C 
BRANCH  26  27
ATOM     27  O   UNL     1      32.461 -22.498 -17.860  0.00  0.00    -0.471 OA
ATOM     28  C   UNL     1      33.061 -23.433 -16.965  0.00  0.00    +0.252 C 
ENDBRANCH  26  27
ENDBRANCH  19  21
ENDBRANCH  18  19
ENDBRANCH  17  18
ENDBRANCH  14  17
ENDBRANCH   1  15
BRANCH   1  29
ATOM     29  C   UNL     1      34.917 -16.097 -24.389  0.00  0.00    +0.029 C 
BRANCH  29  30
ATOM     30  C   UNL     1      34.012 -17.074 -25.136  0.00  0.00    +0.002 C 
ATOM     31  C   UNL     1      32.650 -16.432 -25.434  0.00  0.00    +0.000 C 
ATOM     32  C   UNL     1      33.839 -18.373 -24.336  0.00  0.00    +0.000 C 
ATOM     33  C   UNL     1      31.708 -17.409 -26.134  0.00  0.00    +0.000 C 
ATOM     34  C   UNL     1      32.895 -19.346 -25.037  0.00  0.00    +0.000 C 
ATOM     35  C   UNL     1      31.546 -18.701 -25.340  0.00  0.00    +0.000 C 
ENDBRANCH  29  30
ENDBRANCH   1  29
TORSDOF 9
ENDMDL
