MODEL 1
REMARK VINA RESULT:     -11.8      0.000      0.000
REMARK  Name = 11610553
REMARK  5 active torsions:
REMARK  status: ('A' for Active; 'I' for Inactive)
REMARK    1  A    between atoms: C_1  and  C_9
REMARK    2  A    between atoms: C_4  and  O_19
REMARK    3  A    between atoms: C_10  and  C_14
REMARK    4  A    between atoms: O_19  and  C_20
REMARK    5  A    between atoms: C_20  and  C_22
REMARK                            x       y       z     vdW  Elec       q    Type
REMARK                         _______ _______ _______ _____ _____    ______ ____
ROOT
ATOM      1  C   UNL     1      33.823 -22.756 -16.971  0.00  0.00    +0.015 C 
ATOM      2  C   UNL     1      33.080 -22.431 -18.105  0.00  0.00    +0.004 C 
ATOM      3  C   UNL     1      35.197 -22.518 -16.944  0.00  0.00    +0.004 C 
ATOM      4  C   UNL     1      35.082 -21.633 -19.181  0.00  0.00    +0.139 C 
ATOM      5  C   UNL     1      33.712 -21.867 -19.214  0.00  0.00    +0.037 C 
ATOM      6  C   UNL     1      35.829 -21.954 -18.052  0.00  0.00    +0.037 C 
ENDROOT
BRANCH   1   9
ATOM      7  N   UNL     1      31.812 -23.332 -15.681  0.00  0.00    -0.236 N 
ATOM      8  N   UNL     1      31.383 -23.921 -14.552  0.00  0.00    -0.180 NA
ATOM      9  C   UNL     1      33.169 -23.339 -15.825  0.00  0.00    +0.067 C 
ATOM     10  C   UNL     1      33.661 -23.977 -14.711  0.00  0.00    +0.036 C 
ATOM     11  C   UNL     1      32.516 -24.312 -13.963  0.00  0.00    +0.119 C 
ATOM     12  H   UNL     1      31.205 -22.934 -16.344  0.00  0.00    +0.174 HD
BRANCH  10  14
ATOM     13  N   UNL     1      37.760 -24.666 -13.918  0.00  0.00    -0.242 NA
ATOM     14  C   UNL     1      35.048 -24.210 -14.442  0.00  0.00    +0.006 C 
ATOM     15  C   UNL     1      35.647 -25.405 -14.832  0.00  0.00    +0.021 C 
ATOM     16  C   UNL     1      35.809 -23.243 -13.789  0.00  0.00    +0.021 C 
ATOM     17  C   UNL     1      36.992 -25.583 -14.549  0.00  0.00    +0.099 C 
ATOM     18  C   UNL     1      37.147 -23.518 -13.553  0.00  0.00    +0.099 C 
ENDBRANCH  10  14
ENDBRANCH   1   9
BRANCH   4  19
ATOM     19  O   UNL     1      35.702 -21.079 -20.270  0.00  0.00    -0.468 OA
BRANCH  19  20
ATOM     20  C   UNL     1      35.983 -19.687 -20.209  0.00  0.00    +0.264 C 
BRANCH  20  22
ATOM     21  N   UNL     1      35.382 -17.667 -21.399  0.00  0.00    -0.406 NA
ATOM     22  C   UNL     1      35.439 -19.018 -21.427  0.00  0.00    +0.152 C 
ATOM     23  C   UNL     1      34.450 -17.728 -23.621  0.00  0.00    +0.026 C 
ATOM     24  C   UNL     1      34.895 -17.028 -22.480  0.00  0.00    +0.113 C 
ATOM     25  C   UNL     1      35.027 -19.788 -22.496  0.00  0.00    +0.031 C 
ATOM     26  C   UNL     1      34.526 -19.127 -23.608  0.00  0.00    +0.005 C 
ATOM     27  C   UNL     1      33.947 -17.029 -24.731  0.00  0.00    +0.002 C 
ATOM     28  C   UNL     1      34.819 -15.638 -22.494  0.00  0.00    +0.085 C 
ATOM     29  C   UNL     1      33.883 -15.639 -24.718  0.00  0.00    -0.004 C 
ATOM     30  C   UNL     1      34.319 -14.943 -23.598  0.00  0.00    -0.019 C 
ENDBRANCH  20  22
ENDBRANCH  19  20
ENDBRANCH   4  19
TORSDOF 5
ENDMDL
MODEL 2
REMARK VINA RESULT:     -11.7      1.416      2.225
REMARK  Name = 11610553
REMARK  5 active torsions:
REMARK  status: ('A' for Active; 'I' for Inactive)
REMARK    1  A    between atoms: C_1  and  C_9
REMARK    2  A    between atoms: C_4  and  O_19
REMARK    3  A    between atoms: C_10  and  C_14
REMARK    4  A    between atoms: O_19  and  C_20
REMARK    5  A    between atoms: C_20  and  C_22
REMARK                            x       y       z     vdW  Elec       q    Type
REMARK                         _______ _______ _______ _____ _____    ______ ____
ROOT
ATOM      1  C   UNL     1      34.973 -22.959 -15.622  0.00  0.00    +0.015 C 
ATOM      2  C   UNL     1      34.116 -22.955 -16.722  0.00  0.00    +0.004 C 
ATOM      3  C   UNL     1      36.249 -22.407 -15.729  0.00  0.00    +0.004 C 
ATOM      4  C   UNL     1      35.810 -21.850 -18.030  0.00  0.00    +0.139 C 
ATOM      5  C   UNL     1      34.537 -22.398 -17.930  0.00  0.00    +0.037 C 
ATOM      6  C   UNL     1      36.670 -21.851 -16.936  0.00  0.00    +0.037 C 
ENDROOT
BRANCH   1   9
ATOM      7  N   UNL     1      33.382 -23.151 -13.759  0.00  0.00    -0.236 N 
ATOM      8  N   UNL     1      33.139 -23.796 -12.605  0.00  0.00    -0.180 NA
ATOM      9  C   UNL     1      34.538 -23.536 -14.373  0.00  0.00    +0.067 C 
ATOM     10  C   UNL     1      35.090 -24.499 -13.563  0.00  0.00    +0.036 C 
ATOM     11  C   UNL     1      34.185 -24.618 -12.491  0.00  0.00    +0.119 C 
ATOM     12  H   UNL     1      32.781 -22.465 -14.128  0.00  0.00    +0.174 HD
BRANCH  10  14
ATOM     13  N   UNL     1      38.722 -26.532 -14.325  0.00  0.00    -0.242 NA
ATOM     14  C   UNL     1      36.319 -25.187 -13.822  0.00  0.00    +0.006 C 
ATOM     15  C   UNL     1      37.505 -24.745 -13.242  0.00  0.00    +0.021 C 
ATOM     16  C   UNL     1      36.337 -26.304 -14.653  0.00  0.00    +0.021 C 
ATOM     17  C   UNL     1      38.668 -25.444 -13.523  0.00  0.00    +0.099 C 
ATOM     18  C   UNL     1      37.552 -26.933 -14.871  0.00  0.00    +0.099 C 
ENDBRANCH  10  14
ENDBRANCH   1   9
BRANCH   4  19
ATOM     19  O   UNL     1      36.223 -21.303 -19.216  0.00  0.00    -0.468 OA
BRANCH  19  20
ATOM     20  C   UNL     1      35.298 -21.340 -20.295  0.00  0.00    +0.264 C 
BRANCH  20  22
ATOM     21  N   UNL     1      34.648 -19.969 -22.181  0.00  0.00    -0.406 NA
ATOM     22  C   UNL     1      35.308 -20.026 -21.002  0.00  0.00    +0.152 C 
ATOM     23  C   UNL     1      35.288 -17.652 -22.351  0.00  0.00    +0.026 C 
ATOM     24  C   UNL     1      34.636 -18.800 -22.848  0.00  0.00    +0.113 C 
ATOM     25  C   UNL     1      35.974 -18.958 -20.436  0.00  0.00    +0.031 C 
ATOM     26  C   UNL     1      35.960 -17.754 -21.126  0.00  0.00    +0.005 C 
ATOM     27  C   UNL     1      35.255 -16.448 -23.074  0.00  0.00    +0.002 C 
ATOM     28  C   UNL     1      33.967 -18.697 -24.065  0.00  0.00    +0.085 C 
ATOM     29  C   UNL     1      34.579 -16.373 -24.289  0.00  0.00    -0.004 C 
ATOM     30  C   UNL     1      33.935 -17.500 -24.785  0.00  0.00    -0.019 C 
ENDBRANCH  20  22
ENDBRANCH  19  20
ENDBRANCH   4  19
TORSDOF 5
ENDMDL
MODEL 3
REMARK VINA RESULT:     -11.7      2.603      4.086
REMARK  Name = 11610553
REMARK  5 active torsions:
REMARK  status: ('A' for Active; 'I' for Inactive)
REMARK    1  A    between atoms: C_1  and  C_9
REMARK    2  A    between atoms: C_4  and  O_19
REMARK    3  A    between atoms: C_10  and  C_14
REMARK    4  A    between atoms: O_19  and  C_20
REMARK    5  A    between atoms: C_20  and  C_22
REMARK                            x       y       z     vdW  Elec       q    Type
REMARK                         _______ _______ _______ _____ _____    ______ ____
ROOT
ATOM      1  C   UNL     1      34.672 -23.791 -13.463  0.00  0.00    +0.015 C 
ATOM      2  C   UNL     1      33.345 -24.109 -13.753  0.00  0.00    +0.004 C 
ATOM      3  C   UNL     1      35.460 -23.147 -14.417  0.00  0.00    +0.004 C 
ATOM      4  C   UNL     1      33.598 -23.140 -15.944  0.00  0.00    +0.139 C 
ATOM      5  C   UNL     1      32.807 -23.781 -14.998  0.00  0.00    +0.037 C 
ATOM      6  C   UNL     1      34.922 -22.820 -15.661  0.00  0.00    +0.037 C 
ENDROOT
BRANCH   1   9
ATOM      7  N   UNL     1      34.649 -23.733 -11.007  0.00  0.00    -0.236 N 
ATOM      8  N   UNL     1      35.307 -24.141  -9.908  0.00  0.00    -0.180 NA
ATOM      9  C   UNL     1      35.229 -24.130 -12.177  0.00  0.00    +0.067 C 
ATOM     10  C   UNL     1      36.345 -24.847 -11.817  0.00  0.00    +0.036 C 
ATOM     11  C   UNL     1      36.342 -24.821 -10.410  0.00  0.00    +0.119 C 
ATOM     12  H   UNL     1      33.824 -23.198 -10.972  0.00  0.00    +0.174 HD
BRANCH  10  14
ATOM     13  N   UNL     1      39.051 -26.649 -14.525  0.00  0.00    -0.242 NA
ATOM     14  C   UNL     1      37.261 -25.458 -12.732  0.00  0.00    +0.006 C 
ATOM     15  C   UNL     1      36.822 -26.446 -13.609  0.00  0.00    +0.021 C 
ATOM     16  C   UNL     1      38.597 -25.066 -12.755  0.00  0.00    +0.021 C 
ATOM     17  C   UNL     1      37.747 -27.005 -14.477  0.00  0.00    +0.099 C 
ATOM     18  C   UNL     1      39.443 -25.687 -13.660  0.00  0.00    +0.099 C 
ENDBRANCH  10  14
ENDBRANCH   1   9
BRANCH   4  19
ATOM     19  O   UNL     1      33.069 -22.818 -17.166  0.00  0.00    -0.468 OA
BRANCH  19  20
ATOM     20  C   UNL     1      33.838 -23.169 -18.309  0.00  0.00    +0.264 C 
BRANCH  20  22
ATOM     21  N   UNL     1      35.311 -21.555 -19.349  0.00  0.00    -0.406 NA
ATOM     22  C   UNL     1      34.034 -21.961 -19.164  0.00  0.00    +0.152 C 
ATOM     23  C   UNL     1      34.468 -19.755 -20.713  0.00  0.00    +0.026 C 
ATOM     24  C   UNL     1      35.528 -20.467 -20.113  0.00  0.00    +0.113 C 
ATOM     25  C   UNL     1      32.935 -21.330 -19.708  0.00  0.00    +0.031 C 
ATOM     26  C   UNL     1      33.161 -20.210 -20.495  0.00  0.00    +0.005 C 
ATOM     27  C   UNL     1      34.731 -18.624 -21.504  0.00  0.00    +0.002 C 
ATOM     28  C   UNL     1      36.826 -20.014 -20.331  0.00  0.00    +0.085 C 
ATOM     29  C   UNL     1      36.039 -18.193 -21.705  0.00  0.00    -0.004 C 
ATOM     30  C   UNL     1      37.088 -18.889 -21.117  0.00  0.00    -0.019 C 
ENDBRANCH  20  22
ENDBRANCH  19  20
ENDBRANCH   4  19
TORSDOF 5
ENDMDL
MODEL 4
REMARK VINA RESULT:     -11.6      4.047     11.371
REMARK  Name = 11610553
REMARK  5 active torsions:
REMARK  status: ('A' for Active; 'I' for Inactive)
REMARK    1  A    between atoms: C_1  and  C_9
REMARK    2  A    between atoms: C_4  and  O_19
REMARK    3  A    between atoms: C_10  and  C_14
REMARK    4  A    between atoms: O_19  and  C_20
REMARK    5  A    between atoms: C_20  and  C_22
REMARK                            x       y       z     vdW  Elec       q    Type
REMARK                         _______ _______ _______ _____ _____    ______ ____
ROOT
ATOM      1  C   UNL     1      33.011 -13.269 -22.150  0.00  0.00    +0.015 C 
ATOM      2  C   UNL     1      33.055 -13.779 -23.447  0.00  0.00    +0.004 C 
ATOM      3  C   UNL     1      33.751 -13.876 -21.136  0.00  0.00    +0.004 C 
ATOM      4  C   UNL     1      34.574 -15.498 -22.713  0.00  0.00    +0.139 C 
ATOM      5  C   UNL     1      33.839 -14.898 -23.729  0.00  0.00    +0.037 C 
ATOM      6  C   UNL     1      34.535 -14.994 -21.417  0.00  0.00    +0.037 C 
ENDROOT
BRANCH   1   9
ATOM      7  N   UNL     1      31.074 -12.190 -21.090  0.00  0.00    -0.236 N 
ATOM      8  N   UNL     1      30.447 -11.013 -20.925  0.00  0.00    -0.180 NA
ATOM      9  C   UNL     1      32.200 -12.112 -21.858  0.00  0.00    +0.067 C 
ATOM     10  C   UNL     1      32.316 -10.791 -22.220  0.00  0.00    +0.036 C 
ATOM     11  C   UNL     1      31.210 -10.163 -21.617  0.00  0.00    +0.119 C 
ATOM     12  H   UNL     1      30.752 -13.030 -20.694  0.00  0.00    +0.174 HD
BRANCH  10  14
ATOM     13  N   UNL     1      35.406  -9.194 -24.629  0.00  0.00    -0.242 NA
ATOM     14  C   UNL     1      33.362 -10.251 -23.035  0.00  0.00    +0.006 C 
ATOM     15  C   UNL     1      34.000 -11.050 -23.980  0.00  0.00    +0.021 C 
ATOM     16  C   UNL     1      33.749  -8.921 -22.890  0.00  0.00    +0.021 C 
ATOM     17  C   UNL     1      35.005 -10.481 -24.744  0.00  0.00    +0.099 C 
ATOM     18  C   UNL     1      34.766  -8.446 -23.702  0.00  0.00    +0.099 C 
ENDBRANCH  10  14
ENDBRANCH   1   9
BRANCH   4  19
ATOM     19  O   UNL     1      35.344 -16.597 -22.991  0.00  0.00    -0.468 OA
BRANCH  19  20
ATOM     20  C   UNL     1      34.659 -17.826 -23.189  0.00  0.00    +0.264 C 
BRANCH  20  22
ATOM     21  N   UNL     1      33.974 -19.437 -21.516  0.00  0.00    -0.406 NA
ATOM     22  C   UNL     1      35.004 -18.770 -22.085  0.00  0.00    +0.152 C 
ATOM     23  C   UNL     1      35.564 -20.510 -20.057  0.00  0.00    +0.026 C 
ATOM     24  C   UNL     1      34.247 -20.296 -20.516  0.00  0.00    +0.113 C 
ATOM     25  C   UNL     1      36.323 -18.913 -21.704  0.00  0.00    +0.031 C 
ATOM     26  C   UNL     1      36.601 -19.798 -20.674  0.00  0.00    +0.005 C 
ATOM     27  C   UNL     1      35.812 -21.414 -19.010  0.00  0.00    +0.002 C 
ATOM     28  C   UNL     1      33.217 -21.004 -19.903  0.00  0.00    +0.085 C 
ATOM     29  C   UNL     1      34.763 -22.109 -18.415  0.00  0.00    -0.004 C 
ATOM     30  C   UNL     1      33.464 -21.903 -18.862  0.00  0.00    -0.019 C 
ENDBRANCH  20  22
ENDBRANCH  19  20
ENDBRANCH   4  19
TORSDOF 5
ENDMDL
MODEL 5
REMARK VINA RESULT:     -11.6      8.889     15.240
REMARK  Name = 11610553
REMARK  5 active torsions:
REMARK  status: ('A' for Active; 'I' for Inactive)
REMARK    1  A    between atoms: C_1  and  C_9
REMARK    2  A    between atoms: C_4  and  O_19
REMARK    3  A    between atoms: C_10  and  C_14
REMARK    4  A    between atoms: O_19  and  C_20
REMARK    5  A    between atoms: C_20  and  C_22
REMARK                            x       y       z     vdW  Elec       q    Type
REMARK                         _______ _______ _______ _____ _____    ______ ____
ROOT
ATOM      1  C   UNL     1      31.413  -6.926 -21.681  0.00  0.00    +0.015 C 
ATOM      2  C   UNL     1      31.958  -7.178 -20.422  0.00  0.00    +0.004 C 
ATOM      3  C   UNL     1      31.118  -7.985 -22.538  0.00  0.00    +0.004 C 
ATOM      4  C   UNL     1      31.911  -9.542 -20.881  0.00  0.00    +0.139 C 
ATOM      5  C   UNL     1      32.208  -8.491 -20.021  0.00  0.00    +0.037 C 
ATOM      6  C   UNL     1      31.367  -9.297 -22.138  0.00  0.00    +0.037 C 
ENDROOT
BRANCH   1   9
ATOM      7  N   UNL     1      30.178  -4.808 -21.523  0.00  0.00    -0.236 N 
ATOM      8  N   UNL     1      30.083  -3.569 -22.037  0.00  0.00    -0.180 NA
ATOM      9  C   UNL     1      31.156  -5.569 -22.095  0.00  0.00    +0.067 C 
ATOM     10  C   UNL     1      31.741  -4.771 -23.050  0.00  0.00    +0.036 C 
ATOM     11  C   UNL     1      31.040  -3.553 -22.969  0.00  0.00    +0.119 C 
ATOM     12  H   UNL     1      29.597  -5.136 -20.800  0.00  0.00    +0.174 HD
BRANCH  10  14
ATOM     13  N   UNL     1      34.937  -5.936 -25.566  0.00  0.00    -0.242 NA
ATOM     14  C   UNL     1      32.821  -5.166 -23.902  0.00  0.00    +0.006 C 
ATOM     15  C   UNL     1      32.867  -4.734 -25.224  0.00  0.00    +0.021 C 
ATOM     16  C   UNL     1      33.838  -5.984 -23.413  0.00  0.00    +0.021 C 
ATOM     17  C   UNL     1      33.934  -5.143 -26.008  0.00  0.00    +0.099 C 
ATOM     18  C   UNL     1      34.861  -6.337 -24.278  0.00  0.00    +0.099 C 
ENDBRANCH  10  14
ENDBRANCH   1   9
BRANCH   4  19
ATOM     19  O   UNL     1      32.157 -10.831 -20.487  0.00  0.00    -0.468 OA
BRANCH  19  20
ATOM     20  C   UNL     1      31.446 -11.856 -21.169  0.00  0.00    +0.264 C 
BRANCH  20  22
ATOM     21  N   UNL     1      32.431 -13.253 -22.883  0.00  0.00    -0.406 NA
ATOM     22  C   UNL     1      32.395 -12.936 -21.568  0.00  0.00    +0.152 C 
ATOM     23  C   UNL     1      34.107 -14.907 -22.369  0.00  0.00    +0.026 C 
ATOM     24  C   UNL     1      33.274 -14.225 -23.281  0.00  0.00    +0.113 C 
ATOM     25  C   UNL     1      33.171 -13.547 -20.604  0.00  0.00    +0.031 C 
ATOM     26  C   UNL     1      34.038 -14.547 -21.016  0.00  0.00    +0.005 C 
ATOM     27  C   UNL     1      34.975 -15.916 -22.819  0.00  0.00    +0.002 C 
ATOM     28  C   UNL     1      33.344 -14.582 -24.624  0.00  0.00    +0.085 C 
ATOM     29  C   UNL     1      35.024 -16.254 -24.168  0.00  0.00    -0.004 C 
ATOM     30  C   UNL     1      34.206 -15.586 -25.071  0.00  0.00    -0.019 C 
ENDBRANCH  20  22
ENDBRANCH  19  20
ENDBRANCH   4  19
TORSDOF 5
ENDMDL
MODEL 6
REMARK VINA RESULT:     -11.2      1.265      2.345
REMARK  Name = 11610553
REMARK  5 active torsions:
REMARK  status: ('A' for Active; 'I' for Inactive)
REMARK    1  A    between atoms: C_1  and  C_9
REMARK    2  A    between atoms: C_4  and  O_19
REMARK    3  A    between atoms: C_10  and  C_14
REMARK    4  A    between atoms: O_19  and  C_20
REMARK    5  A    between atoms: C_20  and  C_22
REMARK                            x       y       z     vdW  Elec       q    Type
REMARK                         _______ _______ _______ _____ _____    ______ ____
ROOT
ATOM      1  C   UNL     1      33.828 -21.984 -18.279  0.00  0.00    +0.015 C 
ATOM      2  C   UNL     1      35.210 -22.082 -18.445  0.00  0.00    +0.004 C 
ATOM      3  C   UNL     1      33.075 -21.200 -19.152  0.00  0.00    +0.004 C 
ATOM      4  C   UNL     1      35.080 -20.614 -20.350  0.00  0.00    +0.139 C 
ATOM      5  C   UNL     1      35.837 -21.394 -19.484  0.00  0.00    +0.037 C 
ATOM      6  C   UNL     1      33.701 -20.513 -20.190  0.00  0.00    +0.037 C 
ENDROOT
BRANCH   1   9
ATOM      7  N   UNL     1      31.834 -22.921 -17.191  0.00  0.00    -0.236 N 
ATOM      8  N   UNL     1      31.408 -23.599 -16.112  0.00  0.00    -0.180 NA
ATOM      9  C   UNL     1      33.180 -22.695 -17.204  0.00  0.00    +0.067 C 
ATOM     10  C   UNL     1      33.667 -23.264 -16.052  0.00  0.00    +0.036 C 
ATOM     11  C   UNL     1      32.531 -23.806 -15.420  0.00  0.00    +0.119 C 
ATOM     12  H   UNL     1      31.232 -22.617 -17.907  0.00  0.00    +0.174 HD
BRANCH  10  14
ATOM     13  N   UNL     1      37.729 -23.267 -14.868  0.00  0.00    -0.242 NA
ATOM     14  C   UNL     1      35.041 -23.266 -15.652  0.00  0.00    +0.006 C 
ATOM     15  C   UNL     1      35.786 -22.090 -15.696  0.00  0.00    +0.021 C 
ATOM     16  C   UNL     1      35.645 -24.442 -15.215  0.00  0.00    +0.021 C 
ATOM     17  C   UNL     1      37.112 -22.142 -15.298  0.00  0.00    +0.099 C 
ATOM     18  C   UNL     1      36.977 -24.390 -14.839  0.00  0.00    +0.099 C 
ENDBRANCH  10  14
ENDBRANCH   1   9
BRANCH   4  19
ATOM     19  O   UNL     1      35.696 -19.939 -21.370  0.00  0.00    -0.468 OA
BRANCH  19  20
ATOM     20  C   UNL     1      34.924 -19.704 -22.541  0.00  0.00    +0.264 C 
BRANCH  20  22
ATOM     21  N   UNL     1      34.210 -17.838 -23.908  0.00  0.00    -0.406 NA
ATOM     22  C   UNL     1      34.747 -18.234 -22.731  0.00  0.00    +0.152 C 
ATOM     23  C   UNL     1      34.399 -15.559 -23.150  0.00  0.00    +0.026 C 
ATOM     24  C   UNL     1      34.037 -16.519 -24.117  0.00  0.00    +0.113 C 
ATOM     25  C   UNL     1      35.132 -17.370 -21.727  0.00  0.00    +0.031 C 
ATOM     26  C   UNL     1      34.953 -16.012 -21.945  0.00  0.00    +0.005 C 
ATOM     27  C   UNL     1      34.204 -14.190 -23.401  0.00  0.00    +0.002 C 
ATOM     28  C   UNL     1      33.486 -16.068 -25.313  0.00  0.00    +0.085 C 
ATOM     29  C   UNL     1      33.652 -13.767 -24.606  0.00  0.00    -0.004 C 
ATOM     30  C   UNL     1      33.293 -14.707 -25.563  0.00  0.00    -0.019 C 
ENDBRANCH  20  22
ENDBRANCH  19  20
ENDBRANCH   4  19
TORSDOF 5
ENDMDL
MODEL 7
REMARK VINA RESULT:     -11.0      1.882      3.671
REMARK  Name = 11610553
REMARK  5 active torsions:
REMARK  status: ('A' for Active; 'I' for Inactive)
REMARK    1  A    between atoms: C_1  and  C_9
REMARK    2  A    between atoms: C_4  and  O_19
REMARK    3  A    between atoms: C_10  and  C_14
REMARK    4  A    between atoms: O_19  and  C_20
REMARK    5  A    between atoms: C_20  and  C_22
REMARK                            x       y       z     vdW  Elec       q    Type
REMARK                         _______ _______ _______ _____ _____    ______ ____
ROOT
ATOM      1  C   UNL     1      33.637 -23.050 -16.225  0.00  0.00    +0.015 C 
ATOM      2  C   UNL     1      32.522 -22.756 -17.010  0.00  0.00    +0.004 C 
ATOM      3  C   UNL     1      34.916 -22.737 -16.684  0.00  0.00    +0.004 C 
ATOM      4  C   UNL     1      33.966 -21.842 -18.708  0.00  0.00    +0.139 C 
ATOM      5  C   UNL     1      32.688 -22.151 -18.256  0.00  0.00    +0.037 C 
ATOM      6  C   UNL     1      35.082 -22.132 -17.929  0.00  0.00    +0.037 C 
ENDROOT
BRANCH   1   9
ATOM      7  N   UNL     1      34.526 -24.017 -14.148  0.00  0.00    -0.236 N 
ATOM      8  N   UNL     1      34.176 -24.590 -12.984  0.00  0.00    -0.180 NA
ATOM      9  C   UNL     1      33.466 -23.676 -14.937  0.00  0.00    +0.067 C 
ATOM     10  C   UNL     1      32.343 -24.054 -14.239  0.00  0.00    +0.036 C 
ATOM     11  C   UNL     1      32.841 -24.610 -13.046  0.00  0.00    +0.119 C 
ATOM     12  H   UNL     1      35.461 -23.856 -14.408  0.00  0.00    +0.174 HD
BRANCH  10  14
ATOM     13  N   UNL     1      28.362 -23.556 -15.581  0.00  0.00    -0.242 NA
ATOM     14  C   UNL     1      30.997 -23.885 -14.694  0.00  0.00    +0.006 C 
ATOM     15  C   UNL     1      30.324 -24.941 -15.304  0.00  0.00    +0.021 C 
ATOM     16  C   UNL     1      30.347 -22.664 -14.529  0.00  0.00    +0.021 C 
ATOM     17  C   UNL     1      29.022 -24.727 -15.726  0.00  0.00    +0.099 C 
ATOM     18  C   UNL     1      29.044 -22.552 -14.986  0.00  0.00    +0.099 C 
ENDBRANCH  10  14
ENDBRANCH   1   9
BRANCH   4  19
ATOM     19  O   UNL     1      34.128 -21.247 -19.931  0.00  0.00    -0.468 OA
BRANCH  19  20
ATOM     20  C   UNL     1      35.415 -20.716 -20.220  0.00  0.00    +0.264 C 
BRANCH  20  22
ATOM     21  N   UNL     1      34.624 -19.659 -22.248  0.00  0.00    -0.406 NA
ATOM     22  C   UNL     1      35.269 -19.499 -21.070  0.00  0.00    +0.152 C 
ATOM     23  C   UNL     1      34.970 -17.313 -22.679  0.00  0.00    +0.026 C 
ATOM     24  C   UNL     1      34.475 -18.583 -23.044  0.00  0.00    +0.113 C 
ATOM     25  C   UNL     1      35.788 -18.298 -20.629  0.00  0.00    +0.031 C 
ATOM     26  C   UNL     1      35.633 -17.191 -21.451  0.00  0.00    +0.005 C 
ATOM     27  C   UNL     1      34.797 -16.211 -23.534  0.00  0.00    +0.002 C 
ATOM     28  C   UNL     1      33.816 -18.702 -24.264  0.00  0.00    +0.085 C 
ATOM     29  C   UNL     1      34.135 -16.360 -24.750  0.00  0.00    -0.004 C 
ATOM     30  C   UNL     1      33.644 -17.607 -25.115  0.00  0.00    -0.019 C 
ENDBRANCH  20  22
ENDBRANCH  19  20
ENDBRANCH   4  19
TORSDOF 5
ENDMDL
MODEL 8
REMARK VINA RESULT:     -11.0      1.475      3.395
REMARK  Name = 11610553
REMARK  5 active torsions:
REMARK  status: ('A' for Active; 'I' for Inactive)
REMARK    1  A    between atoms: C_1  and  C_9
REMARK    2  A    between atoms: C_4  and  O_19
REMARK    3  A    between atoms: C_10  and  C_14
REMARK    4  A    between atoms: O_19  and  C_20
REMARK    5  A    between atoms: C_20  and  C_22
REMARK                            x       y       z     vdW  Elec       q    Type
REMARK                         _______ _______ _______ _____ _____    ______ ____
ROOT
ATOM      1  C   UNL     1      34.338 -23.058 -16.109  0.00  0.00    +0.015 C 
ATOM      2  C   UNL     1      35.551 -22.494 -16.504  0.00  0.00    +0.004 C 
ATOM      3  C   UNL     1      33.249 -23.052 -16.980  0.00  0.00    +0.004 C 
ATOM      4  C   UNL     1      34.584 -21.919 -18.634  0.00  0.00    +0.139 C 
ATOM      5  C   UNL     1      35.674 -21.922 -17.771  0.00  0.00    +0.037 C 
ATOM      6  C   UNL     1      33.371 -22.480 -18.246  0.00  0.00    +0.037 C 
ENDROOT
BRANCH   1   9
ATOM      7  N   UNL     1      35.298 -23.960 -14.035  0.00  0.00    -0.236 N 
ATOM      8  N   UNL     1      34.987 -24.502 -12.845  0.00  0.00    -0.180 NA
ATOM      9  C   UNL     1      34.211 -23.649 -14.799  0.00  0.00    +0.067 C 
ATOM     10  C   UNL     1      33.114 -24.013 -14.057  0.00  0.00    +0.036 C 
ATOM     11  C   UNL     1      33.652 -24.531 -12.864  0.00  0.00    +0.119 C 
ATOM     12  H   UNL     1      36.224 -23.802 -14.328  0.00  0.00    +0.174 HD
BRANCH  10  14
ATOM     13  N   UNL     1      29.091 -23.575 -15.293  0.00  0.00    -0.242 NA
ATOM     14  C   UNL     1      31.752 -23.865 -14.474  0.00  0.00    +0.006 C 
ATOM     15  C   UNL     1      31.118 -22.629 -14.375  0.00  0.00    +0.021 C 
ATOM     16  C   UNL     1      31.052 -24.954 -14.985  0.00  0.00    +0.021 C 
ATOM     17  C   UNL     1      29.800 -22.537 -14.793  0.00  0.00    +0.099 C 
ATOM     18  C   UNL     1      29.737 -24.759 -15.375  0.00  0.00    +0.099 C 
ENDBRANCH  10  14
ENDBRANCH   1   9
BRANCH   4  19
ATOM     19  O   UNL     1      34.704 -21.358 -19.878  0.00  0.00    -0.468 OA
BRANCH  19  20
ATOM     20  C   UNL     1      35.657 -20.312 -20.019  0.00  0.00    +0.264 C 
BRANCH  20  22
ATOM     21  N   UNL     1      35.288 -18.115 -20.966  0.00  0.00    -0.406 NA
ATOM     22  C   UNL     1      35.278 -19.451 -21.178  0.00  0.00    +0.152 C 
ATOM     23  C   UNL     1      34.593 -17.815 -23.253  0.00  0.00    +0.026 C 
ATOM     24  C   UNL     1      34.951 -17.305 -21.988  0.00  0.00    +0.113 C 
ATOM     25  C   UNL     1      34.942 -20.041 -22.379  0.00  0.00    +0.031 C 
ATOM     26  C   UNL     1      34.595 -19.205 -23.430  0.00  0.00    +0.005 C 
ATOM     27  C   UNL     1      34.246 -16.941 -24.298  0.00  0.00    +0.002 C 
ATOM     28  C   UNL     1      34.949 -15.924 -21.813  0.00  0.00    +0.085 C 
ATOM     29  C   UNL     1      34.252 -15.564 -24.096  0.00  0.00    -0.004 C 
ATOM     30  C   UNL     1      34.603 -15.055 -22.852  0.00  0.00    -0.019 C 
ENDBRANCH  20  22
ENDBRANCH  19  20
ENDBRANCH   4  19
TORSDOF 5
ENDMDL
MODEL 9
REMARK VINA RESULT:     -10.7      2.007     10.101
REMARK  Name = 11610553
REMARK  5 active torsions:
REMARK  status: ('A' for Active; 'I' for Inactive)
REMARK    1  A    between atoms: C_1  and  C_9
REMARK    2  A    between atoms: C_4  and  O_19
REMARK    3  A    between atoms: C_10  and  C_14
REMARK    4  A    between atoms: O_19  and  C_20
REMARK    5  A    between atoms: C_20  and  C_22
REMARK                            x       y       z     vdW  Elec       q    Type
REMARK                         _______ _______ _______ _____ _____    ______ ____
ROOT
ATOM      1  C   UNL     1      35.046 -17.996 -22.676  0.00  0.00    +0.015 C 
ATOM      2  C   UNL     1      34.164 -18.931 -22.136  0.00  0.00    +0.004 C 
ATOM      3  C   UNL     1      36.350 -17.902 -22.188  0.00  0.00    +0.004 C 
ATOM      4  C   UNL     1      35.886 -19.672 -20.623  0.00  0.00    +0.139 C 
ATOM      5  C   UNL     1      34.586 -19.772 -21.105  0.00  0.00    +0.037 C 
ATOM      6  C   UNL     1      36.771 -18.742 -21.158  0.00  0.00    +0.037 C 
ENDROOT
BRANCH   1   9
ATOM      7  N   UNL     1      34.655 -17.504 -25.052  0.00  0.00    -0.236 N 
ATOM      8  N   UNL     1      34.208 -16.565 -25.904  0.00  0.00    -0.180 NA
ATOM      9  C   UNL     1      34.610 -17.126 -23.741  0.00  0.00    +0.067 C 
ATOM     10  C   UNL     1      34.098 -15.851 -23.736  0.00  0.00    +0.036 C 
ATOM     11  C   UNL     1      33.870 -15.558 -25.094  0.00  0.00    +0.119 C 
ATOM     12  H   UNL     1      34.984 -18.384 -25.346  0.00  0.00    +0.174 HD
BRANCH  10  14
ATOM     13  N   UNL     1      33.438 -13.511 -20.274  0.00  0.00    -0.242 NA
ATOM     14  C   UNL     1      33.876 -15.059 -22.565  0.00  0.00    +0.006 C 
ATOM     15  C   UNL     1      33.012 -13.967 -22.610  0.00  0.00    +0.021 C 
ATOM     16  C   UNL     1      34.519 -15.374 -21.371  0.00  0.00    +0.021 C 
ATOM     17  C   UNL     1      32.829 -13.233 -21.449  0.00  0.00    +0.099 C 
ATOM     18  C   UNL     1      34.270 -14.576 -20.266  0.00  0.00    +0.099 C 
ENDBRANCH  10  14
ENDBRANCH   1   9
BRANCH   4  19
ATOM     19  O   UNL     1      36.300 -20.498 -19.611  0.00  0.00    -0.468 OA
BRANCH  19  20
ATOM     20  C   UNL     1      35.464 -21.606 -19.306  0.00  0.00    +0.264 C 
BRANCH  20  22
ATOM     21  N   UNL     1      34.670 -22.677 -17.286  0.00  0.00    -0.406 NA
ATOM     22  C   UNL     1      35.686 -22.019 -17.889  0.00  0.00    +0.152 C 
ATOM     23  C   UNL     1      36.023 -22.802 -15.295  0.00  0.00    +0.026 C 
ATOM     24  C   UNL     1      34.833 -23.064 -16.006  0.00  0.00    +0.113 C 
ATOM     25  C   UNL     1      36.885 -21.718 -17.276  0.00  0.00    +0.031 C 
ATOM     26  C   UNL     1      37.050 -22.118 -15.958  0.00  0.00    +0.005 C 
ATOM     27  C   UNL     1      36.159 -23.220 -13.961  0.00  0.00    +0.002 C 
ATOM     28  C   UNL     1      33.813 -23.744 -15.347  0.00  0.00    +0.085 C 
ATOM     29  C   UNL     1      35.123 -23.898 -13.325  0.00  0.00    -0.004 C 
ATOM     30  C   UNL     1      33.948 -24.160 -14.020  0.00  0.00    -0.019 C 
ENDBRANCH  20  22
ENDBRANCH  19  20
ENDBRANCH   4  19
TORSDOF 5
ENDMDL
