MODEL 1
REMARK VINA RESULT:     -11.7      0.000      0.000
REMARK  Name = 70798655
REMARK  2 active torsions:
REMARK  status: ('A' for Active; 'I' for Inactive)
REMARK    1  A    between atoms: C_3  and  C_29
REMARK    2  A    between atoms: C_5  and  C_13
REMARK                            x       y       z     vdW  Elec       q    Type
REMARK                         _______ _______ _______ _____ _____    ______ ____
ROOT
ATOM      1  N   UNL     1      33.821 -23.642 -14.882  0.00  0.00    -0.245 N 
ATOM      2  N   UNL     1      32.250 -24.614 -13.621  0.00  0.00    -0.227 NA
ATOM      3  C   UNL     1      34.449 -24.073 -13.741  0.00  0.00    +0.130 C 
ATOM      4  C   UNL     1      32.482 -23.996 -14.761  0.00  0.00    +0.139 C 
ATOM      5  C   UNL     1      33.543 -22.640 -17.013  0.00  0.00    +0.012 C 
ATOM      6  C   UNL     1      34.351 -22.977 -15.984  0.00  0.00    +0.071 C 
ATOM      7  C   UNL     1      33.465 -24.665 -12.985  0.00  0.00    +0.120 C 
ATOM      8  C   UNL     1      31.624 -23.647 -15.840  0.00  0.00    +0.035 C 
ATOM      9  C   UNL     1      32.126 -23.003 -16.912  0.00  0.00    +0.004 C 
ENDROOT
BRANCH   5  13
ATOM     10  O   UNL     1      35.509 -19.959 -21.465  0.00  0.00    -0.414 OA
ATOM     11  N   UNL     1      33.257 -19.930 -21.212  0.00  0.00    -0.356 NA
ATOM     12  N   UNL     1      34.316 -18.830 -23.071  0.00  0.00    -0.302 N 
ATOM     13  C   UNL     1      34.113 -21.941 -18.181  0.00  0.00    -0.014 C 
ATOM     14  C   UNL     1      33.254 -21.293 -19.080  0.00  0.00    +0.089 C 
ATOM     15  C   UNL     1      35.502 -21.937 -18.371  0.00  0.00    -0.001 C 
ATOM     16  C   UNL     1      33.825 -20.637 -20.181  0.00  0.00    +0.152 C 
ATOM     17  C   UNL     1      35.204 -20.658 -20.332  0.00  0.00    +0.175 C 
ATOM     18  C   UNL     1      36.086 -21.287 -19.464  0.00  0.00    +0.040 C 
ATOM     19  C   UNL     1      34.293 -19.558 -21.931  0.00  0.00    +0.341 C 
ATOM     20  H   UNL     1      35.175 -18.624 -23.507  0.00  0.00    +0.148 HD
ATOM     21  H   UNL     1      33.474 -18.507 -23.465  0.00  0.00    +0.148 HD
ENDBRANCH   5  13
BRANCH   3  29
ATOM     22  O   UNL     1      38.503 -27.048 -14.255  0.00  0.00    -0.350 OA
ATOM     23  O   UNL     1      36.174 -22.964 -12.708  0.00  0.00    -0.268 OA
ATOM     24  N   UNL     1      36.773 -24.845 -13.957  0.00  0.00    -0.270 N 
ATOM     25  C   UNL     1      38.202 -24.719 -13.672  0.00  0.00    +0.126 C 
ATOM     26  C   UNL     1      36.432 -25.941 -14.872  0.00  0.00    +0.126 C 
ATOM     27  C   UNL     1      37.094 -27.235 -14.414  0.00  0.00    +0.164 C 
ATOM     28  C   UNL     1      38.780 -26.063 -13.256  0.00  0.00    +0.164 C 
ATOM     29  C   UNL     1      35.875 -23.918 -13.424  0.00  0.00    +0.265 C 
ENDBRANCH   3  29
TORSDOF 2
ENDMDL
MODEL 2
REMARK VINA RESULT:     -11.2      1.255      1.836
REMARK  Name = 70798655
REMARK  2 active torsions:
REMARK  status: ('A' for Active; 'I' for Inactive)
REMARK    1  A    between atoms: C_3  and  C_29
REMARK    2  A    between atoms: C_5  and  C_13
REMARK                            x       y       z     vdW  Elec       q    Type
REMARK                         _______ _______ _______ _____ _____    ______ ____
ROOT
ATOM      1  N   UNL     1      33.501 -23.953 -15.216  0.00  0.00    -0.245 N 
ATOM      2  N   UNL     1      31.843 -24.653 -13.889  0.00  0.00    -0.227 NA
ATOM      3  C   UNL     1      34.085 -24.702 -14.226  0.00  0.00    +0.130 C 
ATOM      4  C   UNL     1      32.134 -23.954 -14.966  0.00  0.00    +0.139 C 
ATOM      5  C   UNL     1      33.322 -22.604 -17.158  0.00  0.00    +0.012 C 
ATOM      6  C   UNL     1      34.093 -23.294 -16.290  0.00  0.00    +0.071 C 
ATOM      7  C   UNL     1      33.048 -25.119 -13.426  0.00  0.00    +0.120 C 
ATOM      8  C   UNL     1      31.312 -23.232 -15.876  0.00  0.00    +0.035 C 
ATOM      9  C   UNL     1      31.874 -22.590 -16.919  0.00  0.00    +0.004 C 
ENDROOT
BRANCH   5  13
ATOM     10  O   UNL     1      35.531 -19.946 -21.508  0.00  0.00    -0.414 OA
ATOM     11  N   UNL     1      33.276 -19.819 -21.317  0.00  0.00    -0.356 NA
ATOM     12  N   UNL     1      34.436 -18.739 -23.127  0.00  0.00    -0.302 N 
ATOM     13  C   UNL     1      33.955 -21.914 -18.298  0.00  0.00    -0.014 C 
ATOM     14  C   UNL     1      33.152 -21.213 -19.209  0.00  0.00    +0.089 C 
ATOM     15  C   UNL     1      35.347 -21.969 -18.450  0.00  0.00    -0.001 C 
ATOM     16  C   UNL     1      33.783 -20.567 -20.283  0.00  0.00    +0.152 C 
ATOM     17  C   UNL     1      35.163 -20.647 -20.396  0.00  0.00    +0.175 C 
ATOM     18  C   UNL     1      35.991 -21.330 -19.514  0.00  0.00    +0.040 C 
ATOM     19  C   UNL     1      34.348 -19.482 -22.000  0.00  0.00    +0.341 C 
ATOM     20  H   UNL     1      35.315 -18.565 -23.535  0.00  0.00    +0.148 HD
ATOM     21  H   UNL     1      33.621 -18.372 -23.539  0.00  0.00    +0.148 HD
ENDBRANCH   5  13
BRANCH   3  29
ATOM     22  O   UNL     1      37.404 -24.136 -10.457  0.00  0.00    -0.350 OA
ATOM     23  O   UNL     1      36.137 -25.222 -15.117  0.00  0.00    -0.268 OA
ATOM     24  N   UNL     1      36.068 -24.958 -12.797  0.00  0.00    -0.270 N 
ATOM     25  C   UNL     1      37.491 -25.239 -12.609  0.00  0.00    +0.126 C 
ATOM     26  C   UNL     1      35.323 -24.744 -11.550  0.00  0.00    +0.126 C 
ATOM     27  C   UNL     1      36.049 -23.734 -10.670  0.00  0.00    +0.164 C 
ATOM     28  C   UNL     1      38.120 -24.200 -11.693  0.00  0.00    +0.164 C 
ATOM     29  C   UNL     1      35.520 -24.980 -14.080  0.00  0.00    +0.265 C 
ENDBRANCH   3  29
TORSDOF 2
ENDMDL
MODEL 3
REMARK VINA RESULT:     -10.1      2.847      4.677
REMARK  Name = 70798655
REMARK  2 active torsions:
REMARK  status: ('A' for Active; 'I' for Inactive)
REMARK    1  A    between atoms: C_3  and  C_29
REMARK    2  A    between atoms: C_5  and  C_13
REMARK                            x       y       z     vdW  Elec       q    Type
REMARK                         _______ _______ _______ _____ _____    ______ ____
ROOT
ATOM      1  N   UNL     1      34.806 -22.667 -16.732  0.00  0.00    -0.245 N 
ATOM      2  N   UNL     1      35.716 -23.692 -14.964  0.00  0.00    -0.227 NA
ATOM      3  C   UNL     1      33.776 -23.280 -16.064  0.00  0.00    +0.130 C 
ATOM      4  C   UNL     1      35.968 -22.947 -16.022  0.00  0.00    +0.139 C 
ATOM      5  C   UNL     1      35.920 -21.386 -18.387  0.00  0.00    +0.012 C 
ATOM      6  C   UNL     1      34.773 -21.901 -17.894  0.00  0.00    +0.071 C 
ATOM      7  C   UNL     1      34.360 -23.901 -14.986  0.00  0.00    +0.120 C 
ATOM      8  C   UNL     1      37.181 -22.407 -16.532  0.00  0.00    +0.035 C 
ATOM      9  C   UNL     1      37.161 -21.664 -17.656  0.00  0.00    +0.004 C 
ENDROOT
BRANCH   5  13
ATOM     10  O   UNL     1      35.568 -18.361 -23.035  0.00  0.00    -0.414 OA
ATOM     11  N   UNL     1      33.691 -19.486 -22.446  0.00  0.00    -0.356 NA
ATOM     12  N   UNL     1      33.754 -18.116 -24.423  0.00  0.00    -0.302 N 
ATOM     13  C   UNL     1      35.876 -20.568 -19.615  0.00  0.00    -0.014 C 
ATOM     14  C   UNL     1      34.691 -20.516 -20.363  0.00  0.00    +0.089 C 
ATOM     15  C   UNL     1      37.017 -19.859 -20.012  0.00  0.00    -0.001 C 
ATOM     16  C   UNL     1      34.679 -19.730 -21.525  0.00  0.00    +0.152 C 
ATOM     17  C   UNL     1      35.831 -19.044 -21.882  0.00  0.00    +0.175 C 
ATOM     18  C   UNL     1      37.022 -19.070 -21.167  0.00  0.00    +0.040 C 
ATOM     19  C   UNL     1      34.271 -18.677 -23.306  0.00  0.00    +0.341 C 
ATOM     20  H   UNL     1      34.311 -17.523 -24.979  0.00  0.00    +0.148 HD
ATOM     21  H   UNL     1      32.823 -18.300 -24.680  0.00  0.00    +0.148 HD
ENDBRANCH   5  13
BRANCH   3  29
ATOM     22  O   UNL     1      29.535 -25.011 -13.928  0.00  0.00    -0.350 OA
ATOM     23  O   UNL     1      32.113 -22.936 -17.610  0.00  0.00    -0.268 OA
ATOM     24  N   UNL     1      31.409 -23.591 -15.480  0.00  0.00    -0.270 N 
ATOM     25  C   UNL     1      29.987 -23.572 -15.821  0.00  0.00    +0.126 C 
ATOM     26  C   UNL     1      31.691 -23.904 -14.074  0.00  0.00    +0.126 C 
ATOM     27  C   UNL     1      30.930 -25.154 -13.649  0.00  0.00    +0.164 C 
ATOM     28  C   UNL     1      29.307 -24.842 -15.330  0.00  0.00    +0.164 C 
ATOM     29  C   UNL     1      32.359 -23.258 -16.448  0.00  0.00    +0.265 C 
ENDBRANCH   3  29
TORSDOF 2
ENDMDL
MODEL 4
REMARK VINA RESULT:      -9.9      3.106      5.413
REMARK  Name = 70798655
REMARK  2 active torsions:
REMARK  status: ('A' for Active; 'I' for Inactive)
REMARK    1  A    between atoms: C_3  and  C_29
REMARK    2  A    between atoms: C_5  and  C_13
REMARK                            x       y       z     vdW  Elec       q    Type
REMARK                         _______ _______ _______ _____ _____    ______ ____
ROOT
ATOM      1  N   UNL     1      35.538 -22.774 -16.013  0.00  0.00    -0.245 N 
ATOM      2  N   UNL     1      37.164 -22.232 -17.449  0.00  0.00    -0.227 NA
ATOM      3  C   UNL     1      36.715 -22.843 -15.312  0.00  0.00    +0.130 C 
ATOM      4  C   UNL     1      35.864 -22.397 -17.310  0.00  0.00    +0.139 C 
ATOM      5  C   UNL     1      33.209 -22.889 -16.447  0.00  0.00    +0.012 C 
ATOM      6  C   UNL     1      34.237 -23.017 -15.580  0.00  0.00    +0.071 C 
ATOM      7  C   UNL     1      37.696 -22.508 -16.215  0.00  0.00    +0.120 C 
ATOM      8  C   UNL     1      34.788 -22.257 -18.231  0.00  0.00    +0.035 C 
ATOM      9  C   UNL     1      33.526 -22.490 -17.823  0.00  0.00    +0.004 C 
ENDROOT
BRANCH   5  13
ATOM     10  O   UNL     1      27.964 -23.691 -14.798  0.00  0.00    -0.414 OA
ATOM     11  N   UNL     1      28.285 -22.006 -16.279  0.00  0.00    -0.356 NA
ATOM     12  N   UNL     1      26.092 -22.524 -15.437  0.00  0.00    -0.302 N 
ATOM     13  C   UNL     1      31.833 -23.141 -15.979  0.00  0.00    -0.014 C 
ATOM     14  C   UNL     1      30.786 -22.341 -16.461  0.00  0.00    +0.089 C 
ATOM     15  C   UNL     1      31.594 -24.175 -15.063  0.00  0.00    -0.001 C 
ATOM     16  C   UNL     1      29.489 -22.604 -15.998  0.00  0.00    +0.152 C 
ATOM     17  C   UNL     1      29.297 -23.637 -15.091  0.00  0.00    +0.175 C 
ATOM     18  C   UNL     1      30.306 -24.450 -14.592  0.00  0.00    +0.040 C 
ATOM     19  C   UNL     1      27.430 -22.687 -15.547  0.00  0.00    +0.341 C 
ATOM     20  H   UNL     1      25.571 -23.113 -14.844  0.00  0.00    +0.148 HD
ATOM     21  H   UNL     1      25.638 -21.817 -15.950  0.00  0.00    +0.148 HD
ENDBRANCH   5  13
BRANCH   3  29
ATOM     22  O   UNL     1      37.398 -27.208 -12.857  0.00  0.00    -0.350 OA
ATOM     23  O   UNL     1      36.577 -22.332 -13.078  0.00  0.00    -0.268 OA
ATOM     24  N   UNL     1      37.315 -24.489 -13.588  0.00  0.00    -0.270 N 
ATOM     25  C   UNL     1      37.484 -24.884 -12.190  0.00  0.00    +0.126 C 
ATOM     26  C   UNL     1      37.728 -25.509 -14.560  0.00  0.00    +0.126 C 
ATOM     27  C   UNL     1      37.101 -26.853 -14.210  0.00  0.00    +0.164 C 
ATOM     28  C   UNL     1      36.857 -26.248 -11.945  0.00  0.00    +0.164 C 
ATOM     29  C   UNL     1      36.862 -23.205 -13.896  0.00  0.00    +0.265 C 
ENDBRANCH   3  29
TORSDOF 2
ENDMDL
MODEL 5
REMARK VINA RESULT:      -9.7      7.933     12.838
REMARK  Name = 70798655
REMARK  2 active torsions:
REMARK  status: ('A' for Active; 'I' for Inactive)
REMARK    1  A    between atoms: C_3  and  C_29
REMARK    2  A    between atoms: C_5  and  C_13
REMARK                            x       y       z     vdW  Elec       q    Type
REMARK                         _______ _______ _______ _____ _____    ______ ____
ROOT
ATOM      1  N   UNL     1      33.858 -14.278 -24.501  0.00  0.00    -0.245 N 
ATOM      2  N   UNL     1      33.503 -15.727 -26.166  0.00  0.00    -0.227 NA
ATOM      3  C   UNL     1      34.079 -15.528 -23.982  0.00  0.00    +0.130 C 
ATOM      4  C   UNL     1      33.510 -14.452 -25.835  0.00  0.00    +0.139 C 
ATOM      5  C   UNL     1      33.681 -11.914 -24.584  0.00  0.00    +0.012 C 
ATOM      6  C   UNL     1      33.945 -13.035 -23.878  0.00  0.00    +0.071 C 
ATOM      7  C   UNL     1      33.855 -16.398 -25.022  0.00  0.00    +0.120 C 
ATOM      8  C   UNL     1      33.232 -13.277 -26.587  0.00  0.00    +0.035 C 
ATOM      9  C   UNL     1      33.313 -12.070 -25.995  0.00  0.00    +0.004 C 
ENDROOT
BRANCH   5  13
ATOM     10  O   UNL     1      33.894  -7.004 -21.992  0.00  0.00    -0.414 OA
ATOM     11  N   UNL     1      32.073  -8.277 -21.544  0.00  0.00    -0.356 NA
ATOM     12  N   UNL     1      32.364  -6.116 -20.527  0.00  0.00    -0.302 N 
ATOM     13  C   UNL     1      33.783 -10.601 -23.919  0.00  0.00    -0.014 C 
ATOM     14  C   UNL     1      32.764 -10.192 -23.045  0.00  0.00    +0.089 C 
ATOM     15  C   UNL     1      34.894  -9.785 -24.171  0.00  0.00    -0.001 C 
ATOM     16  C   UNL     1      32.889  -8.939 -22.428  0.00  0.00    +0.152 C 
ATOM     17  C   UNL     1      34.005  -8.163 -22.706  0.00  0.00    +0.175 C 
ATOM     18  C   UNL     1      35.033  -8.533 -23.563  0.00  0.00    +0.040 C 
ATOM     19  C   UNL     1      32.716  -7.150 -21.325  0.00  0.00    +0.341 C 
ATOM     20  H   UNL     1      32.948  -5.326 -20.459  0.00  0.00    +0.148 HD
ATOM     21  H   UNL     1      31.525  -6.153 -20.015  0.00  0.00    +0.148 HD
ENDBRANCH   5  13
BRANCH   3  29
ATOM     22  O   UNL     1      35.384 -19.775 -21.570  0.00  0.00    -0.350 OA
ATOM     23  O   UNL     1      34.274 -14.955 -21.767  0.00  0.00    -0.268 OA
ATOM     24  N   UNL     1      35.037 -17.087 -22.340  0.00  0.00    -0.270 N 
ATOM     25  C   UNL     1      35.449 -17.429 -20.980  0.00  0.00    +0.126 C 
ATOM     26  C   UNL     1      35.344 -18.115 -23.342  0.00  0.00    +0.126 C 
ATOM     27  C   UNL     1      34.855 -19.477 -22.866  0.00  0.00    +0.164 C 
ATOM     28  C   UNL     1      34.945 -18.815 -20.605  0.00  0.00    +0.164 C 
ATOM     29  C   UNL     1      34.471 -15.837 -22.600  0.00  0.00    +0.265 C 
ENDBRANCH   3  29
TORSDOF 2
ENDMDL
MODEL 6
REMARK VINA RESULT:      -9.5      3.109      5.424
REMARK  Name = 70798655
REMARK  2 active torsions:
REMARK  status: ('A' for Active; 'I' for Inactive)
REMARK    1  A    between atoms: C_3  and  C_29
REMARK    2  A    between atoms: C_5  and  C_13
REMARK                            x       y       z     vdW  Elec       q    Type
REMARK                         _______ _______ _______ _____ _____    ______ ____
ROOT
ATOM      1  N   UNL     1      32.056 -23.640 -14.549  0.00  0.00    -0.245 N 
ATOM      2  N   UNL     1      32.138 -25.065 -12.828  0.00  0.00    -0.227 NA
ATOM      3  C   UNL     1      30.841 -23.558 -13.918  0.00  0.00    +0.130 C 
ATOM      4  C   UNL     1      32.811 -24.572 -13.846  0.00  0.00    +0.139 C 
ATOM      5  C   UNL     1      33.762 -23.194 -16.134  0.00  0.00    +0.012 C 
ATOM      6  C   UNL     1      32.515 -22.958 -15.673  0.00  0.00    +0.071 C 
ATOM      7  C   UNL     1      30.916 -24.442 -12.867  0.00  0.00    +0.120 C 
ATOM      8  C   UNL     1      34.127 -24.825 -14.323  0.00  0.00    +0.035 C 
ATOM      9  C   UNL     1      34.582 -24.171 -15.410  0.00  0.00    +0.004 C 
ENDROOT
BRANCH   5  13
ATOM     10  O   UNL     1      35.393 -20.405 -20.655  0.00  0.00    -0.414 OA
ATOM     11  N   UNL     1      33.152 -20.594 -20.367  0.00  0.00    -0.356 NA
ATOM     12  N   UNL     1      34.072 -19.424 -22.259  0.00  0.00    -0.302 N 
ATOM     13  C   UNL     1      34.244 -22.462 -17.321  0.00  0.00    -0.014 C 
ATOM     14  C   UNL     1      33.313 -21.915 -18.216  0.00  0.00    +0.089 C 
ATOM     15  C   UNL     1      35.623 -22.325 -17.533  0.00  0.00    -0.001 C 
ATOM     16  C   UNL     1      33.801 -21.225 -19.335  0.00  0.00    +0.152 C 
ATOM     17  C   UNL     1      35.174 -21.113 -19.508  0.00  0.00    +0.175 C 
ATOM     18  C   UNL     1      36.126 -21.639 -18.644  0.00  0.00    +0.040 C 
ATOM     19  C   UNL     1      34.137 -20.133 -21.108  0.00  0.00    +0.341 C 
ATOM     20  H   UNL     1      34.900 -19.142 -22.711  0.00  0.00    +0.148 HD
ATOM     21  H   UNL     1      33.197 -19.192 -22.644  0.00  0.00    +0.148 HD
ENDBRANCH   5  13
BRANCH   3  29
ATOM     22  O   UNL     1      27.124 -23.971 -17.319  0.00  0.00    -0.350 OA
ATOM     23  O   UNL     1      29.743 -21.541 -13.893  0.00  0.00    -0.268 OA
ATOM     24  N   UNL     1      28.710 -23.250 -15.105  0.00  0.00    -0.270 N 
ATOM     25  C   UNL     1      27.569 -22.429 -15.507  0.00  0.00    +0.126 C 
ATOM     26  C   UNL     1      28.634 -24.649 -15.543  0.00  0.00    +0.126 C 
ATOM     27  C   UNL     1      28.308 -24.719 -17.029  0.00  0.00    +0.164 C 
ATOM     28  C   UNL     1      27.300 -22.588 -16.996  0.00  0.00    +0.164 C 
ATOM     29  C   UNL     1      29.716 -22.698 -14.309  0.00  0.00    +0.265 C 
ENDBRANCH   3  29
TORSDOF 2
ENDMDL
MODEL 7
REMARK VINA RESULT:      -9.4      4.426     10.674
REMARK  Name = 70798655
REMARK  2 active torsions:
REMARK  status: ('A' for Active; 'I' for Inactive)
REMARK    1  A    between atoms: C_3  and  C_29
REMARK    2  A    between atoms: C_5  and  C_13
REMARK                            x       y       z     vdW  Elec       q    Type
REMARK                         _______ _______ _______ _____ _____    ______ ____
ROOT
ATOM      1  N   UNL     1      34.638 -16.731 -22.285  0.00  0.00    -0.245 N 
ATOM      2  N   UNL     1      34.951 -15.871 -24.325  0.00  0.00    -0.227 NA
ATOM      3  C   UNL     1      34.352 -15.393 -22.192  0.00  0.00    +0.130 C 
ATOM      4  C   UNL     1      34.997 -16.973 -23.606  0.00  0.00    +0.139 C 
ATOM      5  C   UNL     1      34.923 -18.987 -21.612  0.00  0.00    +0.012 C 
ATOM      6  C   UNL     1      34.597 -17.714 -21.300  0.00  0.00    +0.071 C 
ATOM      7  C   UNL     1      34.552 -14.889 -23.455  0.00  0.00    +0.120 C 
ATOM      8  C   UNL     1      35.340 -18.312 -23.945  0.00  0.00    +0.035 C 
ATOM      9  C   UNL     1      35.304 -19.271 -22.999  0.00  0.00    +0.004 C 
ENDROOT
BRANCH   5  13
ATOM     10  O   UNL     1      34.531 -22.884 -17.670  0.00  0.00    -0.414 OA
ATOM     11  N   UNL     1      32.565 -22.062 -18.443  0.00  0.00    -0.356 NA
ATOM     12  N   UNL     1      32.623 -23.757 -16.736  0.00  0.00    -0.302 N 
ATOM     13  C   UNL     1      34.871 -20.024 -20.563  0.00  0.00    -0.014 C 
ATOM     14  C   UNL     1      33.624 -20.460 -20.090  0.00  0.00    +0.089 C 
ATOM     15  C   UNL     1      36.065 -20.557 -20.060  0.00  0.00    -0.001 C 
ATOM     16  C   UNL     1      33.606 -21.447 -19.093  0.00  0.00    +0.152 C 
ATOM     17  C   UNL     1      34.812 -21.947 -18.623  0.00  0.00    +0.175 C 
ATOM     18  C   UNL     1      36.064 -21.542 -19.067  0.00  0.00    +0.040 C 
ATOM     19  C   UNL     1      33.170 -22.893 -17.622  0.00  0.00    +0.341 C 
ATOM     20  H   UNL     1      33.203 -24.325 -16.180  0.00  0.00    +0.148 HD
ATOM     21  H   UNL     1      31.644 -23.817 -16.648  0.00  0.00    +0.148 HD
ENDBRANCH   5  13
BRANCH   3  29
ATOM     22  O   UNL     1      31.505 -11.303 -21.346  0.00  0.00    -0.350 OA
ATOM     23  O   UNL     1      34.506 -14.978 -19.938  0.00  0.00    -0.268 OA
ATOM     24  N   UNL     1      32.903 -13.736 -21.097  0.00  0.00    -0.270 N 
ATOM     25  C   UNL     1      32.444 -13.011 -19.913  0.00  0.00    +0.126 C 
ATOM     26  C   UNL     1      32.156 -13.428 -22.323  0.00  0.00    +0.126 C 
ATOM     27  C   UNL     1      32.054 -11.920 -22.514  0.00  0.00    +0.164 C 
ATOM     28  C   UNL     1      32.343 -11.522 -20.209  0.00  0.00    +0.164 C 
ATOM     29  C   UNL     1      33.925 -14.679 -20.981  0.00  0.00    +0.265 C 
ENDBRANCH   3  29
TORSDOF 2
ENDMDL
MODEL 8
REMARK VINA RESULT:      -8.9      3.400      7.692
REMARK  Name = 70798655
REMARK  2 active torsions:
REMARK  status: ('A' for Active; 'I' for Inactive)
REMARK    1  A    between atoms: C_3  and  C_29
REMARK    2  A    between atoms: C_5  and  C_13
REMARK                            x       y       z     vdW  Elec       q    Type
REMARK                         _______ _______ _______ _____ _____    ______ ____
ROOT
ATOM      1  N   UNL     1      34.597 -22.301 -17.495  0.00  0.00    -0.245 N 
ATOM      2  N   UNL     1      36.810 -22.466 -17.212  0.00  0.00    -0.227 NA
ATOM      3  C   UNL     1      35.175 -21.703 -18.586  0.00  0.00    +0.130 C 
ATOM      4  C   UNL     1      35.636 -22.751 -16.687  0.00  0.00    +0.139 C 
ATOM      5  C   UNL     1      32.896 -23.091 -16.045  0.00  0.00    +0.012 C 
ATOM      6  C   UNL     1      33.249 -22.465 -17.188  0.00  0.00    +0.071 C 
ATOM      7  C   UNL     1      36.530 -21.817 -18.389  0.00  0.00    +0.120 C 
ATOM      8  C   UNL     1      35.273 -23.414 -15.482  0.00  0.00    +0.035 C 
ATOM      9  C   UNL     1      33.972 -23.578 -15.175  0.00  0.00    +0.004 C 
ENDROOT
BRANCH   5  13
ATOM     10  O   UNL     1      27.468 -23.602 -14.971  0.00  0.00    -0.414 OA
ATOM     11  N   UNL     1      28.046 -21.889 -16.340  0.00  0.00    -0.356 NA
ATOM     12  N   UNL     1      25.748 -22.290 -15.747  0.00  0.00    -0.302 N 
ATOM     13  C   UNL     1      31.465 -23.268 -15.730  0.00  0.00    -0.014 C 
ATOM     14  C   UNL     1      30.526 -22.383 -16.281  0.00  0.00    +0.089 C 
ATOM     15  C   UNL     1      31.069 -24.315 -14.887  0.00  0.00    -0.001 C 
ATOM     16  C   UNL     1      29.174 -22.576 -15.964  0.00  0.00    +0.152 C 
ATOM     17  C   UNL     1      28.825 -23.625 -15.125  0.00  0.00    +0.175 C 
ATOM     18  C   UNL     1      29.724 -24.521 -14.561  0.00  0.00    +0.040 C 
ATOM     19  C   UNL     1      27.078 -22.538 -15.728  0.00  0.00    +0.341 C 
ATOM     20  H   UNL     1      25.133 -22.864 -15.235  0.00  0.00    +0.148 HD
ATOM     21  H   UNL     1      25.396 -21.537 -16.273  0.00  0.00    +0.148 HD
ENDBRANCH   5  13
BRANCH   3  29
ATOM     22  O   UNL     1      36.374 -18.118 -21.941  0.00  0.00    -0.350 OA
ATOM     23  O   UNL     1      33.256 -21.299 -19.781  0.00  0.00    -0.268 OA
ATOM     24  N   UNL     1      35.203 -20.306 -20.609  0.00  0.00    -0.270 N 
ATOM     25  C   UNL     1      34.534 -19.677 -21.746  0.00  0.00    +0.126 C 
ATOM     26  C   UNL     1      36.656 -20.103 -20.572  0.00  0.00    +0.126 C 
ATOM     27  C   UNL     1      36.986 -18.627 -20.753  0.00  0.00    +0.164 C 
ATOM     28  C   UNL     1      34.949 -18.219 -21.866  0.00  0.00    +0.164 C 
ATOM     29  C   UNL     1      34.465 -21.081 -19.711  0.00  0.00    +0.265 C 
ENDBRANCH   3  29
TORSDOF 2
ENDMDL
MODEL 9
REMARK VINA RESULT:      -8.7      9.790     15.598
REMARK  Name = 70798655
REMARK  2 active torsions:
REMARK  status: ('A' for Active; 'I' for Inactive)
REMARK    1  A    between atoms: C_3  and  C_29
REMARK    2  A    between atoms: C_5  and  C_13
REMARK                            x       y       z     vdW  Elec       q    Type
REMARK                         _______ _______ _______ _____ _____    ______ ____
ROOT
ATOM      1  N   UNL     1      32.694  -9.697 -22.073  0.00  0.00    -0.245 N 
ATOM      2  N   UNL     1      31.356  -8.410 -20.827  0.00  0.00    -0.227 NA
ATOM      3  C   UNL     1      33.053  -8.398 -22.331  0.00  0.00    +0.130 C 
ATOM      4  C   UNL     1      31.657  -9.651 -21.150  0.00  0.00    +0.139 C 
ATOM      5  C   UNL     1      32.711 -12.065 -22.198  0.00  0.00    +0.012 C 
ATOM      6  C   UNL     1      33.219 -10.877 -22.593  0.00  0.00    +0.071 C 
ATOM      7  C   UNL     1      32.217  -7.630 -21.555  0.00  0.00    +0.120 C 
ATOM      8  C   UNL     1      31.116 -10.898 -20.726  0.00  0.00    +0.035 C 
ATOM      9  C   UNL     1      31.616 -12.046 -21.222  0.00  0.00    +0.004 C 
ENDROOT
BRANCH   5  13
ATOM     10  O   UNL     1      34.903 -16.808 -24.087  0.00  0.00    -0.414 OA
ATOM     11  N   UNL     1      35.133 -16.433 -21.864  0.00  0.00    -0.356 NA
ATOM     12  N   UNL     1      36.008 -18.427 -22.888  0.00  0.00    -0.302 N 
ATOM     13  C   UNL     1      33.278 -13.312 -22.748  0.00  0.00    -0.014 C 
ATOM     14  C   UNL     1      33.928 -14.208 -21.887  0.00  0.00    +0.089 C 
ATOM     15  C   UNL     1      33.156 -13.579 -24.118  0.00  0.00    -0.001 C 
ATOM     16  C   UNL     1      34.456 -15.385 -22.438  0.00  0.00    +0.152 C 
ATOM     17  C   UNL     1      34.314 -15.611 -23.800  0.00  0.00    +0.175 C 
ATOM     18  C   UNL     1      33.676 -14.749 -24.683  0.00  0.00    +0.040 C 
ATOM     19  C   UNL     1      35.368 -17.235 -22.879  0.00  0.00    +0.341 C 
ATOM     20  H   UNL     1      36.113 -18.923 -23.732  0.00  0.00    +0.148 HD
ATOM     21  H   UNL     1      36.370 -18.796 -22.051  0.00  0.00    +0.148 HD
ENDBRANCH   5  13
BRANCH   3  29
ATOM     22  O   UNL     1      33.609  -4.405 -25.380  0.00  0.00    -0.350 OA
ATOM     23  O   UNL     1      34.979  -8.783 -23.520  0.00  0.00    -0.268 OA
ATOM     24  N   UNL     1      34.057  -6.647 -23.734  0.00  0.00    -0.270 N 
ATOM     25  C   UNL     1      35.096  -6.166 -24.643  0.00  0.00    +0.126 C 
ATOM     26  C   UNL     1      33.064  -5.633 -23.357  0.00  0.00    +0.126 C 
ATOM     27  C   UNL     1      32.532  -4.930 -24.599  0.00  0.00    +0.164 C 
ATOM     28  C   UNL     1      34.471  -5.452 -25.832  0.00  0.00    +0.164 C 
ATOM     29  C   UNL     1      34.110  -7.955 -23.249  0.00  0.00    +0.265 C 
ENDBRANCH   3  29
TORSDOF 2
ENDMDL
