MODEL 1
REMARK VINA RESULT:     -12.7      0.000      0.000
REMARK  Name = 4369496
REMARK  6 active torsions:
REMARK  status: ('A' for Active; 'I' for Inactive)
REMARK    1  A    between atoms: N_2  and  C_21
REMARK    2  A    between atoms: C_3  and  C_10
REMARK    3  A    between atoms: C_5  and  C_11
REMARK    4  A    between atoms: C_11  and  N_12
REMARK    5  A    between atoms: C_23  and  N_27
REMARK    6  A    between atoms: C_31  and  C_36
REMARK                            x       y       z     vdW  Elec       q    Type
REMARK                         _______ _______ _______ _____ _____    ______ ____
ROOT
ATOM      1  O   UNL     1      33.662 -24.023 -18.564  0.00  0.00    -0.270 OA
ATOM      2  N   UNL     1      33.302 -22.411 -16.897  0.00  0.00    -0.280 N 
ATOM      3  C   UNL     1      33.729 -22.851 -18.158  0.00  0.00    +0.249 C 
ATOM      4  H   UNL     1      33.420 -21.451 -16.718  0.00  0.00    +0.155 HD
ENDROOT
BRANCH   3  10
ATOM      5  C   UNL     1      35.430 -19.903 -20.669  0.00  0.00    -0.043 C 
ATOM      6  C   UNL     1      34.051 -20.040 -20.614  0.00  0.00    -0.006 C 
ATOM      7  C   UNL     1      36.261 -20.717 -19.912  0.00  0.00    -0.006 C 
ATOM      8  C   UNL     1      33.490 -21.012 -19.785  0.00  0.00    +0.004 C 
ATOM      9  C   UNL     1      35.700 -21.689 -19.084  0.00  0.00    +0.004 C 
ATOM     10  C   UNL     1      34.314 -21.837 -19.020  0.00  0.00    +0.054 C 
BRANCH   5  11
ATOM     11  C   UNL     1      36.036 -18.853 -21.562  0.00  0.00    -0.050 C 
BRANCH  11  12
ATOM     12  N   UNL     1      35.023 -18.170 -22.364  0.00  0.00    +0.387 N 
ATOM     13  N   UNL     1      34.146 -16.676 -24.679  0.00  0.00    +0.383 N 
ATOM     14  C   UNL     1      34.874 -18.814 -23.674  0.00  0.00    -0.100 C 
ATOM     15  C   UNL     1      35.357 -16.750 -22.526  0.00  0.00    -0.100 C 
ATOM     16  C   UNL     1      33.813 -18.097 -24.517  0.00  0.00    -0.101 C 
ATOM     17  C   UNL     1      34.297 -16.032 -23.368  0.00  0.00    -0.101 C 
ATOM     18  C   UNL     1      33.132 -15.994 -25.479  0.00  0.00    -0.101 C 
ATOM     19  H   UNL     1      34.133 -18.236 -21.871  0.00  0.00    -0.079 HD
ATOM     20  H   UNL     1      35.036 -16.609 -25.175  0.00  0.00    -0.080 HD
ENDBRANCH  11  12
ENDBRANCH   5  11
ENDBRANCH   3  10
BRANCH   2  21
ATOM     21  C   UNL     1      32.723 -23.167 -15.849  0.00  0.00    +0.052 C 
ATOM     22  C   UNL     1      33.322 -23.162 -14.601  0.00  0.00    +0.030 C 
ATOM     23  C   UNL     1      32.752 -23.909 -13.569  0.00  0.00    +0.059 C 
ATOM     24  C   UNL     1      31.571 -23.894 -16.097  0.00  0.00    +0.015 C 
ATOM     25  C   UNL     1      31.591 -24.646 -13.801  0.00  0.00    +0.015 C 
ATOM     26  C   UNL     1      31.001 -24.639 -15.064  0.00  0.00    +0.003 C 
BRANCH  23  27
ATOM     27  N   UNL     1      33.349 -23.915 -12.290  0.00  0.00    -0.247 N 
ATOM     28  N   UNL     1      35.613 -24.230 -12.822  0.00  0.00    -0.337 NA
ATOM     29  N   UNL     1      34.897 -24.018 -10.531  0.00  0.00    -0.170 NA
ATOM     30  C   UNL     1      34.682 -24.061 -11.861  0.00  0.00    +0.149 C 
ATOM     31  C   UNL     1      36.878 -24.367 -12.375  0.00  0.00    +0.147 C 
ATOM     32  C   UNL     1      37.226 -24.339 -11.040  0.00  0.00    +0.055 C 
ATOM     33  C   UNL     1      36.184 -24.161 -10.154  0.00  0.00    +0.114 C 
ATOM     34  H   UNL     1      32.706 -23.793 -11.554  0.00  0.00    +0.165 HD
BRANCH  31  36
ATOM     35  N   UNL     1      38.828 -23.824 -15.504  0.00  0.00    -0.242 NA
ATOM     36  C   UNL     1      37.875 -24.546 -13.402  0.00  0.00    +0.050 C 
ATOM     37  C   UNL     1      38.820 -25.563 -13.316  0.00  0.00    +0.006 C 
ATOM     38  C   UNL     1      37.922 -23.711 -14.507  0.00  0.00    +0.101 C 
ATOM     39  C   UNL     1      39.768 -25.711 -14.322  0.00  0.00    +0.021 C 
ATOM     40  C   UNL     1      39.730 -24.824 -15.385  0.00  0.00    +0.099 C 
ENDBRANCH  31  36
ENDBRANCH  23  27
ENDBRANCH   2  21
TORSDOF 6
ENDMDL
MODEL 2
REMARK VINA RESULT:     -12.7      2.789      5.884
REMARK  Name = 4369496
REMARK  6 active torsions:
REMARK  status: ('A' for Active; 'I' for Inactive)
REMARK    1  A    between atoms: N_2  and  C_21
REMARK    2  A    between atoms: C_3  and  C_10
REMARK    3  A    between atoms: C_5  and  C_11
REMARK    4  A    between atoms: C_11  and  N_12
REMARK    5  A    between atoms: C_23  and  N_27
REMARK    6  A    between atoms: C_31  and  C_36
REMARK                            x       y       z     vdW  Elec       q    Type
REMARK                         _______ _______ _______ _____ _____    ______ ____
ROOT
ATOM      1  O   UNL     1      35.153 -19.952 -23.233  0.00  0.00    -0.270 OA
ATOM      2  N   UNL     1      34.424 -19.111 -21.167  0.00  0.00    -0.280 N 
ATOM      3  C   UNL     1      34.719 -19.021 -22.535  0.00  0.00    +0.249 C 
ATOM      4  H   UNL     1      34.088 -18.287 -20.748  0.00  0.00    +0.155 HD
ENDROOT
BRANCH   3  10
ATOM      5  C   UNL     1      34.128 -15.227 -24.310  0.00  0.00    -0.043 C 
ATOM      6  C   UNL     1      33.679 -16.365 -24.964  0.00  0.00    -0.006 C 
ATOM      7  C   UNL     1      34.769 -15.314 -23.082  0.00  0.00    -0.006 C 
ATOM      8  C   UNL     1      33.872 -17.616 -24.378  0.00  0.00    +0.004 C 
ATOM      9  C   UNL     1      34.963 -16.565 -22.496  0.00  0.00    +0.004 C 
ATOM     10  C   UNL     1      34.515 -17.717 -23.144  0.00  0.00    +0.054 C 
BRANCH   5  11
ATOM     11  C   UNL     1      33.918 -13.876 -24.941  0.00  0.00    -0.050 C 
BRANCH  11  12
ATOM     12  N   UNL     1      33.806 -12.819 -23.938  0.00  0.00    +0.387 N 
ATOM     13  N   UNL     1      32.520 -10.515 -22.755  0.00  0.00    +0.383 N 
ATOM     14  C   UNL     1      32.557 -12.950 -23.179  0.00  0.00    -0.100 C 
ATOM     15  C   UNL     1      33.888 -11.495 -24.566  0.00  0.00    -0.100 C 
ATOM     16  C   UNL     1      32.437 -11.840 -22.129  0.00  0.00    -0.101 C 
ATOM     17  C   UNL     1      33.769 -10.384 -23.516  0.00  0.00    -0.101 C 
ATOM     18  C   UNL     1      32.410  -9.459 -21.752  0.00  0.00    -0.101 C 
ATOM     19  H   UNL     1      34.587 -12.916 -23.289  0.00  0.00    -0.079 HD
ATOM     20  H   UNL     1      31.737 -10.417 -23.403  0.00  0.00    -0.080 HD
ENDBRANCH  11  12
ENDBRANCH   5  11
ENDBRANCH   3  10
BRANCH   2  21
ATOM     21  C   UNL     1      34.547 -20.232 -20.310  0.00  0.00    +0.052 C 
ATOM     22  C   UNL     1      33.421 -20.718 -19.668  0.00  0.00    +0.030 C 
ATOM     23  C   UNL     1      33.542 -21.821 -18.822  0.00  0.00    +0.059 C 
ATOM     24  C   UNL     1      35.790 -20.815 -20.135  0.00  0.00    +0.015 C 
ATOM     25  C   UNL     1      34.787 -22.421 -18.634  0.00  0.00    +0.015 C 
ATOM     26  C   UNL     1      35.911 -21.919 -19.290  0.00  0.00    +0.003 C 
BRANCH  23  27
ATOM     27  N   UNL     1      32.406 -22.330 -18.160  0.00  0.00    -0.247 N 
ATOM     28  N   UNL     1      33.314 -23.009 -16.105  0.00  0.00    -0.337 NA
ATOM     29  N   UNL     1      30.968 -23.292 -16.575  0.00  0.00    -0.170 NA
ATOM     30  C   UNL     1      32.221 -22.904 -16.887  0.00  0.00    +0.149 C 
ATOM     31  C   UNL     1      33.100 -23.563 -14.894  0.00  0.00    +0.147 C 
ATOM     32  C   UNL     1      31.866 -23.999 -14.457  0.00  0.00    +0.055 C 
ATOM     33  C   UNL     1      30.826 -23.837 -15.349  0.00  0.00    +0.114 C 
ATOM     34  H   UNL     1      31.580 -22.274 -18.693  0.00  0.00    +0.165 HD
BRANCH  31  36
ATOM     35  N   UNL     1      35.248 -24.361 -11.954  0.00  0.00    -0.242 NA
ATOM     36  C   UNL     1      34.270 -23.675 -14.056  0.00  0.00    +0.050 C 
ATOM     37  C   UNL     1      35.513 -23.232 -14.497  0.00  0.00    +0.006 C 
ATOM     38  C   UNL     1      34.192 -24.226 -12.788  0.00  0.00    +0.101 C 
ATOM     39  C   UNL     1      36.622 -23.353 -13.667  0.00  0.00    +0.021 C 
ATOM     40  C   UNL     1      36.438 -23.919 -12.416  0.00  0.00    +0.099 C 
ENDBRANCH  31  36
ENDBRANCH  23  27
ENDBRANCH   2  21
TORSDOF 6
ENDMDL
MODEL 3
REMARK VINA RESULT:     -12.7      2.878      5.983
REMARK  Name = 4369496
REMARK  6 active torsions:
REMARK  status: ('A' for Active; 'I' for Inactive)
REMARK    1  A    between atoms: N_2  and  C_21
REMARK    2  A    between atoms: C_3  and  C_10
REMARK    3  A    between atoms: C_5  and  C_11
REMARK    4  A    between atoms: C_11  and  N_12
REMARK    5  A    between atoms: C_23  and  N_27
REMARK    6  A    between atoms: C_31  and  C_36
REMARK                            x       y       z     vdW  Elec       q    Type
REMARK                         _______ _______ _______ _____ _____    ______ ____
ROOT
ATOM      1  O   UNL     1      34.943 -19.809 -23.358  0.00  0.00    -0.270 OA
ATOM      2  N   UNL     1      34.504 -18.973 -21.211  0.00  0.00    -0.280 N 
ATOM      3  C   UNL     1      34.655 -18.869 -22.601  0.00  0.00    +0.249 C 
ATOM      4  H   UNL     1      34.274 -18.138 -20.743  0.00  0.00    +0.155 HD
ENDROOT
BRANCH   3  10
ATOM      5  C   UNL     1      34.143 -14.999 -24.228  0.00  0.00    -0.043 C 
ATOM      6  C   UNL     1      34.728 -15.142 -22.979  0.00  0.00    -0.006 C 
ATOM      7  C   UNL     1      33.723 -16.105 -24.953  0.00  0.00    -0.006 C 
ATOM      8  C   UNL     1      34.898 -16.418 -22.442  0.00  0.00    +0.004 C 
ATOM      9  C   UNL     1      33.893 -17.381 -24.417  0.00  0.00    +0.004 C 
ATOM     10  C   UNL     1      34.480 -17.539 -23.161  0.00  0.00    +0.054 C 
BRANCH   5  11
ATOM     11  C   UNL     1      33.960 -13.621 -24.809  0.00  0.00    -0.050 C 
BRANCH  11  12
ATOM     12  N   UNL     1      33.778 -12.612 -23.767  0.00  0.00    +0.387 N 
ATOM     13  N   UNL     1      32.335 -10.451 -22.497  0.00  0.00    +0.383 N 
ATOM     14  C   UNL     1      32.544 -12.860 -23.011  0.00  0.00    -0.100 C 
ATOM     15  C   UNL     1      33.761 -11.263 -24.346  0.00  0.00    -0.100 C 
ATOM     16  C   UNL     1      32.351 -11.801 -21.920  0.00  0.00    -0.101 C 
ATOM     17  C   UNL     1      33.568 -10.203 -23.255  0.00  0.00    -0.101 C 
ATOM     18  C   UNL     1      32.155  -9.443 -21.456  0.00  0.00    -0.101 C 
ATOM     19  H   UNL     1      34.566 -12.676 -23.124  0.00  0.00    -0.079 HD
ATOM     20  H   UNL     1      31.545 -10.386 -23.140  0.00  0.00    -0.080 HD
ENDBRANCH  11  12
ENDBRANCH   5  11
ENDBRANCH   3  10
BRANCH   2  21
ATOM     21  C   UNL     1      34.638 -20.121 -20.392  0.00  0.00    +0.052 C 
ATOM     22  C   UNL     1      33.519 -20.635 -19.761  0.00  0.00    +0.030 C 
ATOM     23  C   UNL     1      33.652 -21.765 -18.953  0.00  0.00    +0.059 C 
ATOM     24  C   UNL     1      35.886 -20.701 -20.243  0.00  0.00    +0.015 C 
ATOM     25  C   UNL     1      34.901 -22.363 -18.791  0.00  0.00    +0.015 C 
ATOM     26  C   UNL     1      36.018 -21.832 -19.435  0.00  0.00    +0.003 C 
BRANCH  23  27
ATOM     27  N   UNL     1      32.522 -22.304 -18.302  0.00  0.00    -0.247 N 
ATOM     28  N   UNL     1      33.424 -22.949 -16.235  0.00  0.00    -0.337 NA
ATOM     29  N   UNL     1      31.092 -23.300 -16.731  0.00  0.00    -0.170 NA
ATOM     30  C   UNL     1      32.338 -22.878 -17.030  0.00  0.00    +0.149 C 
ATOM     31  C   UNL     1      33.211 -23.505 -15.023  0.00  0.00    +0.147 C 
ATOM     32  C   UNL     1      31.984 -23.973 -14.600  0.00  0.00    +0.055 C 
ATOM     33  C   UNL     1      30.951 -23.844 -15.505  0.00  0.00    +0.114 C 
ATOM     34  H   UNL     1      31.701 -22.273 -18.845  0.00  0.00    +0.165 HD
BRANCH  31  36
ATOM     35  N   UNL     1      36.708 -23.064 -13.812  0.00  0.00    -0.242 NA
ATOM     36  C   UNL     1      34.373 -23.581 -14.171  0.00  0.00    +0.050 C 
ATOM     37  C   UNL     1      34.315 -24.211 -12.932  0.00  0.00    +0.006 C 
ATOM     38  C   UNL     1      35.583 -23.029 -14.561  0.00  0.00    +0.101 C 
ATOM     39  C   UNL     1      35.452 -24.268 -12.134  0.00  0.00    +0.021 C 
ATOM     40  C   UNL     1      36.612 -23.684 -12.615  0.00  0.00    +0.099 C 
ENDBRANCH  31  36
ENDBRANCH  23  27
ENDBRANCH   2  21
TORSDOF 6
ENDMDL
MODEL 4
REMARK VINA RESULT:     -11.5      6.586     14.898
REMARK  Name = 4369496
REMARK  6 active torsions:
REMARK  status: ('A' for Active; 'I' for Inactive)
REMARK    1  A    between atoms: N_2  and  C_21
REMARK    2  A    between atoms: C_3  and  C_10
REMARK    3  A    between atoms: C_5  and  C_11
REMARK    4  A    between atoms: C_11  and  N_12
REMARK    5  A    between atoms: C_23  and  N_27
REMARK    6  A    between atoms: C_31  and  C_36
REMARK                            x       y       z     vdW  Elec       q    Type
REMARK                         _______ _______ _______ _____ _____    ______ ____
ROOT
ATOM      1  O   UNL     1      33.618 -15.780 -24.761  0.00  0.00    -0.270 OA
ATOM      2  N   UNL     1      34.326 -14.455 -22.960  0.00  0.00    -0.280 N 
ATOM      3  C   UNL     1      34.138 -15.667 -23.640  0.00  0.00    +0.249 C 
ATOM      4  H   UNL     1      34.754 -14.524 -22.076  0.00  0.00    +0.155 HD
ENDROOT
BRANCH   3  10
ATOM      5  C   UNL     1      35.410 -19.146 -21.600  0.00  0.00    -0.043 C 
ATOM      6  C   UNL     1      35.462 -17.919 -20.955  0.00  0.00    -0.006 C 
ATOM      7  C   UNL     1      34.947 -19.250 -22.904  0.00  0.00    -0.006 C 
ATOM      8  C   UNL     1      35.042 -16.771 -21.627  0.00  0.00    +0.004 C 
ATOM      9  C   UNL     1      34.526 -18.103 -23.576  0.00  0.00    +0.004 C 
ATOM     10  C   UNL     1      34.574 -16.863 -22.939  0.00  0.00    +0.054 C 
BRANCH   5  11
ATOM     11  C   UNL     1      35.862 -20.386 -20.874  0.00  0.00    -0.050 C 
BRANCH  11  12
ATOM     12  N   UNL     1      34.983 -20.710 -19.752  0.00  0.00    +0.387 N 
ATOM     13  N   UNL     1      33.142 -22.432 -18.335  0.00  0.00    +0.383 N 
ATOM     14  C   UNL     1      35.449 -21.916 -19.056  0.00  0.00    -0.100 C 
ATOM     15  C   UNL     1      33.599 -20.885 -20.207  0.00  0.00    -0.100 C 
ATOM     16  C   UNL     1      34.527 -22.258 -17.881  0.00  0.00    -0.101 C 
ATOM     17  C   UNL     1      32.676 -21.227 -19.033  0.00  0.00    -0.101 C 
ATOM     18  C   UNL     1      32.264 -22.755 -17.213  0.00  0.00    -0.101 C 
ATOM     19  H   UNL     1      35.010 -19.931 -19.095  0.00  0.00    -0.079 HD
ATOM     20  H   UNL     1      33.115 -23.214 -18.991  0.00  0.00    -0.080 HD
ENDBRANCH  11  12
ENDBRANCH   5  11
ENDBRANCH   3  10
BRANCH   2  21
ATOM     21  C   UNL     1      33.982 -13.146 -23.378  0.00  0.00    +0.052 C 
ATOM     22  C   UNL     1      33.394 -12.280 -22.472  0.00  0.00    +0.030 C 
ATOM     23  C   UNL     1      33.053 -10.991 -22.884  0.00  0.00    +0.059 C 
ATOM     24  C   UNL     1      34.241 -12.764 -24.682  0.00  0.00    +0.015 C 
ATOM     25  C   UNL     1      33.308 -10.589 -24.195  0.00  0.00    +0.015 C 
ATOM     26  C   UNL     1      33.901 -11.475 -25.094  0.00  0.00    +0.003 C 
BRANCH  23  27
ATOM     27  N   UNL     1      32.455 -10.095 -21.974  0.00  0.00    -0.247 N 
ATOM     28  N   UNL     1      32.929  -8.021 -22.965  0.00  0.00    -0.337 NA
ATOM     29  N   UNL     1      31.699  -8.153 -20.897  0.00  0.00    -0.170 NA
ATOM     30  C   UNL     1      32.357  -8.691 -21.944  0.00  0.00    +0.149 C 
ATOM     31  C   UNL     1      32.815  -6.678 -22.904  0.00  0.00    +0.147 C 
ATOM     32  C   UNL     1      32.167  -6.010 -21.886  0.00  0.00    +0.055 C 
ATOM     33  C   UNL     1      31.623  -6.806 -20.900  0.00  0.00    +0.114 C 
ATOM     34  H   UNL     1      32.022 -10.539 -21.209  0.00  0.00    +0.165 HD
BRANCH  31  36
ATOM     35  N   UNL     1      33.239  -4.287 -25.731  0.00  0.00    -0.242 NA
ATOM     36  C   UNL     1      33.427  -5.961 -23.997  0.00  0.00    +0.050 C 
ATOM     37  C   UNL     1      34.739  -6.219 -24.379  0.00  0.00    +0.006 C 
ATOM     38  C   UNL     1      32.726  -4.994 -24.700  0.00  0.00    +0.101 C 
ATOM     39  C   UNL     1      35.301  -5.512 -25.436  0.00  0.00    +0.021 C 
ATOM     40  C   UNL     1      34.516  -4.565 -26.073  0.00  0.00    +0.099 C 
ENDBRANCH  31  36
ENDBRANCH  23  27
ENDBRANCH   2  21
TORSDOF 6
ENDMDL
MODEL 5
REMARK VINA RESULT:     -11.4      9.178     17.438
REMARK  Name = 4369496
REMARK  6 active torsions:
REMARK  status: ('A' for Active; 'I' for Inactive)
REMARK    1  A    between atoms: N_2  and  C_21
REMARK    2  A    between atoms: C_3  and  C_10
REMARK    3  A    between atoms: C_5  and  C_11
REMARK    4  A    between atoms: C_11  and  N_12
REMARK    5  A    between atoms: C_23  and  N_27
REMARK    6  A    between atoms: C_31  and  C_36
REMARK                            x       y       z     vdW  Elec       q    Type
REMARK                         _______ _______ _______ _____ _____    ______ ____
ROOT
ATOM      1  O   UNL     1      34.425  -9.136 -23.610  0.00  0.00    -0.270 OA
ATOM      2  N   UNL     1      32.516  -9.564 -22.315  0.00  0.00    -0.280 N 
ATOM      3  C   UNL     1      33.532  -9.905 -23.220  0.00  0.00    +0.249 C 
ATOM      4  H   UNL     1      31.879 -10.282 -22.100  0.00  0.00    +0.155 HD
ENDROOT
BRANCH   3  10
ATOM      5  C   UNL     1      33.418 -13.855 -24.727  0.00  0.00    -0.043 C 
ATOM      6  C   UNL     1      33.065 -13.617 -23.407  0.00  0.00    -0.006 C 
ATOM      7  C   UNL     1      33.808 -12.816 -25.562  0.00  0.00    -0.006 C 
ATOM      8  C   UNL     1      33.102 -12.314 -22.910  0.00  0.00    +0.004 C 
ATOM      9  C   UNL     1      33.844 -11.514 -25.065  0.00  0.00    +0.004 C 
ATOM     10  C   UNL     1      33.492 -11.262 -23.739  0.00  0.00    +0.054 C 
BRANCH   5  11
ATOM     11  C   UNL     1      33.377 -15.261 -25.265  0.00  0.00    -0.050 C 
BRANCH  11  12
ATOM     12  N   UNL     1      33.681 -16.248 -24.231  0.00  0.00    +0.387 N 
ATOM     13  N   UNL     1      35.340 -18.281 -23.018  0.00  0.00    +0.383 N 
ATOM     14  C   UNL     1      34.919 -15.899 -23.525  0.00  0.00    -0.100 C 
ATOM     15  C   UNL     1      33.782 -17.593 -24.808  0.00  0.00    -0.100 C 
ATOM     16  C   UNL     1      35.240 -16.934 -22.442  0.00  0.00    -0.101 C 
ATOM     17  C   UNL     1      34.102 -18.630 -23.725  0.00  0.00    -0.101 C 
ATOM     18  C   UNL     1      35.642 -19.267 -21.983  0.00  0.00    -0.101 C 
ATOM     19  H   UNL     1      32.916 -16.244 -23.557  0.00  0.00    -0.079 HD
ATOM     20  H   UNL     1      36.108 -18.286 -23.691  0.00  0.00    -0.080 HD
ENDBRANCH  11  12
ENDBRANCH   5  11
ENDBRANCH   3  10
BRANCH   2  21
ATOM     21  C   UNL     1      32.288  -8.324 -21.671  0.00  0.00    +0.052 C 
ATOM     22  C   UNL     1      31.598  -7.330 -22.344  0.00  0.00    +0.030 C 
ATOM     23  C   UNL     1      31.375  -6.107 -21.710  0.00  0.00    +0.059 C 
ATOM     24  C   UNL     1      32.760  -8.134 -20.384  0.00  0.00    +0.015 C 
ATOM     25  C   UNL     1      31.843  -5.898 -20.413  0.00  0.00    +0.015 C 
ATOM     26  C   UNL     1      32.535  -6.912 -19.750  0.00  0.00    +0.003 C 
BRANCH  23  27
ATOM     27  N   UNL     1      30.673  -5.083 -22.380  0.00  0.00    -0.247 N 
ATOM     28  N   UNL     1      32.179  -4.510 -24.087  0.00  0.00    -0.337 NA
ATOM     29  N   UNL     1      30.060  -3.382 -23.876  0.00  0.00    -0.170 NA
ATOM     30  C   UNL     1      30.986  -4.288 -23.500  0.00  0.00    +0.149 C 
ATOM     31  C   UNL     1      32.445  -3.731 -25.156  0.00  0.00    +0.147 C 
ATOM     32  C   UNL     1      31.580  -2.771 -25.638  0.00  0.00    +0.055 C 
ATOM     33  C   UNL     1      30.391  -2.638 -24.951  0.00  0.00    +0.114 C 
ATOM     34  H   UNL     1      29.792  -4.885 -21.987  0.00  0.00    +0.165 HD
BRANCH  31  36
ATOM     35  N   UNL     1      35.412  -3.260 -27.362  0.00  0.00    -0.242 NA
ATOM     36  C   UNL     1      33.721  -3.970 -25.785  0.00  0.00    +0.050 C 
ATOM     37  C   UNL     1      34.487  -5.084 -25.456  0.00  0.00    +0.006 C 
ATOM     38  C   UNL     1      34.224  -3.097 -26.736  0.00  0.00    +0.101 C 
ATOM     39  C   UNL     1      35.713  -5.286 -26.079  0.00  0.00    +0.021 C 
ATOM     40  C   UNL     1      36.126  -4.354 -27.016  0.00  0.00    +0.099 C 
ENDBRANCH  31  36
ENDBRANCH  23  27
ENDBRANCH   2  21
TORSDOF 6
ENDMDL
MODEL 6
REMARK VINA RESULT:     -11.3      8.377     16.716
REMARK  Name = 4369496
REMARK  6 active torsions:
REMARK  status: ('A' for Active; 'I' for Inactive)
REMARK    1  A    between atoms: N_2  and  C_21
REMARK    2  A    between atoms: C_3  and  C_10
REMARK    3  A    between atoms: C_5  and  C_11
REMARK    4  A    between atoms: C_11  and  N_12
REMARK    5  A    between atoms: C_23  and  N_27
REMARK    6  A    between atoms: C_31  and  C_36
REMARK                            x       y       z     vdW  Elec       q    Type
REMARK                         _______ _______ _______ _____ _____    ______ ____
ROOT
ATOM      1  O   UNL     1      33.366 -12.223 -25.720  0.00  0.00    -0.270 OA
ATOM      2  N   UNL     1      34.252 -11.799 -23.590  0.00  0.00    -0.280 N 
ATOM      3  C   UNL     1      33.832 -12.625 -24.642  0.00  0.00    +0.249 C 
ATOM      4  H   UNL     1      34.600 -12.263 -22.795  0.00  0.00    +0.155 HD
ENDROOT
BRANCH   3  10
ATOM      5  C   UNL     1      34.148 -16.787 -23.961  0.00  0.00    -0.043 C 
ATOM      6  C   UNL     1      34.611 -15.901 -22.999  0.00  0.00    -0.006 C 
ATOM      7  C   UNL     1      33.582 -16.330 -25.143  0.00  0.00    -0.006 C 
ATOM      8  C   UNL     1      34.506 -14.528 -23.223  0.00  0.00    +0.004 C 
ATOM      9  C   UNL     1      33.477 -14.957 -25.367  0.00  0.00    +0.004 C 
ATOM     10  C   UNL     1      33.939 -14.056 -24.407  0.00  0.00    +0.054 C 
BRANCH   5  11
ATOM     11  C   UNL     1      34.260 -18.270 -23.719  0.00  0.00    -0.050 C 
BRANCH  11  12
ATOM     12  N   UNL     1      34.751 -18.566 -22.374  0.00  0.00    +0.387 N 
ATOM     13  N   UNL     1      36.054 -20.253 -20.421  0.00  0.00    +0.383 N 
ATOM     14  C   UNL     1      36.206 -18.754 -22.381  0.00  0.00    -0.100 C 
ATOM     15  C   UNL     1      34.083 -19.752 -21.825  0.00  0.00    -0.100 C 
ATOM     16  C   UNL     1      36.722 -19.067 -20.972  0.00  0.00    -0.101 C 
ATOM     17  C   UNL     1      34.598 -20.066 -20.416  0.00  0.00    -0.101 C 
ATOM     18  C   UNL     1      36.545 -20.547 -19.077  0.00  0.00    -0.101 C 
ATOM     19  H   UNL     1      34.533 -17.769 -21.777  0.00  0.00    -0.079 HD
ATOM     20  H   UNL     1      36.274 -21.051 -21.018  0.00  0.00    -0.080 HD
ENDBRANCH  11  12
ENDBRANCH   5  11
ENDBRANCH   3  10
BRANCH   2  21
ATOM     21  C   UNL     1      34.243 -10.384 -23.522  0.00  0.00    +0.052 C 
ATOM     22  C   UNL     1      33.264  -9.750 -22.776  0.00  0.00    +0.030 C 
ATOM     23  C   UNL     1      33.255  -8.356 -22.711  0.00  0.00    +0.059 C 
ATOM     24  C   UNL     1      35.213  -9.669 -24.203  0.00  0.00    +0.015 C 
ATOM     25  C   UNL     1      34.225  -7.619 -23.390  0.00  0.00    +0.015 C 
ATOM     26  C   UNL     1      35.204  -8.275 -24.136  0.00  0.00    +0.003 C 
BRANCH  23  27
ATOM     27  N   UNL     1      32.266  -7.693 -21.954  0.00  0.00    -0.247 N 
ATOM     28  N   UNL     1      31.992  -5.703 -23.167  0.00  0.00    -0.337 NA
ATOM     29  N   UNL     1      30.708  -6.122 -21.172  0.00  0.00    -0.170 NA
ATOM     30  C   UNL     1      31.626  -6.447 -22.105  0.00  0.00    +0.149 C 
ATOM     31  C   UNL     1      31.359  -4.516 -23.280  0.00  0.00    +0.147 C 
ATOM     32  C   UNL     1      30.402  -4.071 -22.392  0.00  0.00    +0.055 C 
ATOM     33  C   UNL     1      30.114  -4.923 -21.347  0.00  0.00    +0.114 C 
ATOM     34  H   UNL     1      31.965  -8.200 -21.166  0.00  0.00    +0.165 HD
BRANCH  31  36
ATOM     35  N   UNL     1      31.362  -1.786 -25.817  0.00  0.00    -0.242 NA
ATOM     36  C   UNL     1      31.751  -3.719 -24.418  0.00  0.00    +0.050 C 
ATOM     37  C   UNL     1      32.846  -4.073 -25.200  0.00  0.00    +0.006 C 
ATOM     38  C   UNL     1      31.049  -2.576 -24.767  0.00  0.00    +0.101 C 
ATOM     39  C   UNL     1      33.198  -3.285 -26.290  0.00  0.00    +0.021 C 
ATOM     40  C   UNL     1      32.432  -2.162 -26.553  0.00  0.00    +0.099 C 
ENDBRANCH  31  36
ENDBRANCH  23  27
ENDBRANCH   2  21
TORSDOF 6
ENDMDL
MODEL 7
REMARK VINA RESULT:     -11.1      5.821     13.738
REMARK  Name = 4369496
REMARK  6 active torsions:
REMARK  status: ('A' for Active; 'I' for Inactive)
REMARK    1  A    between atoms: N_2  and  C_21
REMARK    2  A    between atoms: C_3  and  C_10
REMARK    3  A    between atoms: C_5  and  C_11
REMARK    4  A    between atoms: C_11  and  N_12
REMARK    5  A    between atoms: C_23  and  N_27
REMARK    6  A    between atoms: C_31  and  C_36
REMARK                            x       y       z     vdW  Elec       q    Type
REMARK                         _______ _______ _______ _____ _____    ______ ____
ROOT
ATOM      1  O   UNL     1      35.070 -16.809 -23.626  0.00  0.00    -0.270 OA
ATOM      2  N   UNL     1      34.432 -15.770 -21.623  0.00  0.00    -0.280 N 
ATOM      3  C   UNL     1      34.939 -16.826 -22.392  0.00  0.00    +0.249 C 
ATOM      4  H   UNL     1      34.387 -15.931 -20.653  0.00  0.00    +0.155 HD
ENDROOT
BRANCH   3  10
ATOM      5  C   UNL     1      36.004 -20.317 -20.255  0.00  0.00    -0.043 C 
ATOM      6  C   UNL     1      34.684 -20.126 -20.636  0.00  0.00    -0.006 C 
ATOM      7  C   UNL     1      36.981 -19.381 -20.564  0.00  0.00    -0.006 C 
ATOM      8  C   UNL     1      34.333 -18.975 -21.342  0.00  0.00    +0.004 C 
ATOM      9  C   UNL     1      36.630 -18.230 -21.269  0.00  0.00    +0.004 C 
ATOM     10  C   UNL     1      35.306 -18.027 -21.659  0.00  0.00    +0.054 C 
BRANCH   5  11
ATOM     11  C   UNL     1      36.385 -21.560 -19.494  0.00  0.00    -0.050 C 
BRANCH  11  12
ATOM     12  N   UNL     1      35.583 -21.723 -18.283  0.00  0.00    +0.387 N 
ATOM     13  N   UNL     1      34.495 -23.282 -16.104  0.00  0.00    +0.383 N 
ATOM     14  C   UNL     1      36.422 -22.146 -17.156  0.00  0.00    -0.100 C 
ATOM     15  C   UNL     1      34.497 -22.687 -18.503  0.00  0.00    -0.100 C 
ATOM     16  C   UNL     1      35.582 -22.319 -15.886  0.00  0.00    -0.101 C 
ATOM     17  C   UNL     1      33.656 -22.860 -17.233  0.00  0.00    -0.101 C 
ATOM     18  C   UNL     1      33.693 -23.443 -14.893  0.00  0.00    -0.101 C 
ATOM     19  H   UNL     1      35.170 -20.820 -18.055  0.00  0.00    -0.079 HD
ATOM     20  H   UNL     1      34.909 -24.187 -16.331  0.00  0.00    -0.080 HD
ENDBRANCH  11  12
ENDBRANCH   5  11
ENDBRANCH   3  10
BRANCH   2  21
ATOM     21  C   UNL     1      33.975 -14.502 -22.058  0.00  0.00    +0.052 C 
ATOM     22  C   UNL     1      33.333 -13.669 -21.158  0.00  0.00    +0.030 C 
ATOM     23  C   UNL     1      32.881 -12.420 -21.588  0.00  0.00    +0.059 C 
ATOM     24  C   UNL     1      34.181 -14.125 -23.374  0.00  0.00    +0.015 C 
ATOM     25  C   UNL     1      33.080 -12.024 -22.910  0.00  0.00    +0.015 C 
ATOM     26  C   UNL     1      33.730 -12.876 -23.804  0.00  0.00    +0.003 C 
BRANCH  23  27
ATOM     27  N   UNL     1      32.226 -11.558 -20.684  0.00  0.00    -0.247 N 
ATOM     28  N   UNL     1      32.707  -9.452 -21.600  0.00  0.00    -0.337 NA
ATOM     29  N   UNL     1      31.387  -9.658 -19.594  0.00  0.00    -0.170 NA
ATOM     30  C   UNL     1      32.101 -10.157 -20.623  0.00  0.00    +0.149 C 
ATOM     31  C   UNL     1      32.566  -8.113 -21.510  0.00  0.00    +0.147 C 
ATOM     32  C   UNL     1      31.860  -7.482 -20.507  0.00  0.00    +0.055 C 
ATOM     33  C   UNL     1      31.287  -8.312 -19.567  0.00  0.00    +0.114 C 
ATOM     34  H   UNL     1      31.767 -12.029 -19.951  0.00  0.00    +0.165 HD
BRANCH  31  36
ATOM     35  N   UNL     1      33.050  -5.712 -24.320  0.00  0.00    -0.242 NA
ATOM     36  C   UNL     1      33.213  -7.358 -22.556  0.00  0.00    +0.050 C 
ATOM     37  C   UNL     1      34.570  -7.517 -22.822  0.00  0.00    +0.006 C 
ATOM     38  C   UNL     1      32.505  -6.450 -23.327  0.00  0.00    +0.101 C 
ATOM     39  C   UNL     1      35.165  -6.776 -23.836  0.00  0.00    +0.021 C 
ATOM     40  C   UNL     1      34.369  -5.894 -24.549  0.00  0.00    +0.099 C 
ENDBRANCH  31  36
ENDBRANCH  23  27
ENDBRANCH   2  21
TORSDOF 6
ENDMDL
MODEL 8
REMARK VINA RESULT:     -11.1      1.943     11.994
REMARK  Name = 4369496
REMARK  6 active torsions:
REMARK  status: ('A' for Active; 'I' for Inactive)
REMARK    1  A    between atoms: N_2  and  C_21
REMARK    2  A    between atoms: C_3  and  C_10
REMARK    3  A    between atoms: C_5  and  C_11
REMARK    4  A    between atoms: C_11  and  N_12
REMARK    5  A    between atoms: C_23  and  N_27
REMARK    6  A    between atoms: C_31  and  C_36
REMARK                            x       y       z     vdW  Elec       q    Type
REMARK                         _______ _______ _______ _____ _____    ______ ____
ROOT
ATOM      1  O   UNL     1      33.032 -21.753 -19.826  0.00  0.00    -0.270 OA
ATOM      2  N   UNL     1      35.148 -20.851 -19.366  0.00  0.00    -0.280 N 
ATOM      3  C   UNL     1      34.016 -21.627 -19.080  0.00  0.00    +0.249 C 
ATOM      4  H   UNL     1      35.850 -20.848 -18.675  0.00  0.00    +0.155 HD
ENDROOT
BRANCH   3  10
ATOM      5  C   UNL     1      34.018 -23.585 -15.330  0.00  0.00    -0.043 C 
ATOM      6  C   UNL     1      32.844 -23.521 -16.067  0.00  0.00    -0.006 C 
ATOM      7  C   UNL     1      35.192 -23.017 -15.804  0.00  0.00    -0.006 C 
ATOM      8  C   UNL     1      32.844 -22.876 -17.304  0.00  0.00    +0.004 C 
ATOM      9  C   UNL     1      35.191 -22.372 -17.041  0.00  0.00    +0.004 C 
ATOM     10  C   UNL     1      34.017 -22.301 -17.791  0.00  0.00    +0.054 C 
BRANCH   5  11
ATOM     11  C   UNL     1      34.019 -24.282 -13.996  0.00  0.00    -0.050 C 
BRANCH  11  12
ATOM     12  N   UNL     1      35.326 -24.857 -13.683  0.00  0.00    +0.387 N 
ATOM     13  N   UNL     1      38.158 -25.216 -14.141  0.00  0.00    +0.383 N 
ATOM     14  C   UNL     1      36.291 -23.804 -13.346  0.00  0.00    -0.100 C 
ATOM     15  C   UNL     1      35.821 -25.665 -14.804  0.00  0.00    -0.100 C 
ATOM     16  C   UNL     1      37.663 -24.406 -13.021  0.00  0.00    -0.101 C 
ATOM     17  C   UNL     1      37.192 -26.268 -14.480  0.00  0.00    -0.101 C 
ATOM     18  C   UNL     1      39.464 -25.791 -13.827  0.00  0.00    -0.101 C 
ATOM     19  H   UNL     1      35.217 -25.465 -12.872  0.00  0.00    -0.079 HD
ATOM     20  H   UNL     1      38.269 -24.607 -14.953  0.00  0.00    -0.080 HD
ENDBRANCH  11  12
ENDBRANCH   5  11
ENDBRANCH   3  10
BRANCH   2  21
ATOM     21  C   UNL     1      35.415 -20.071 -20.518  0.00  0.00    +0.052 C 
ATOM     22  C   UNL     1      34.494 -20.054 -21.551  0.00  0.00    +0.030 C 
ATOM     23  C   UNL     1      34.759 -19.287 -22.686  0.00  0.00    +0.059 C 
ATOM     24  C   UNL     1      36.592 -19.344 -20.583  0.00  0.00    +0.015 C 
ATOM     25  C   UNL     1      35.939 -18.548 -22.769  0.00  0.00    +0.015 C 
ATOM     26  C   UNL     1      36.855 -18.577 -21.718  0.00  0.00    +0.003 C 
BRANCH  23  27
ATOM     27  N   UNL     1      33.831 -19.256 -23.748  0.00  0.00    -0.247 N 
ATOM     28  N   UNL     1      33.602 -16.950 -24.116  0.00  0.00    -0.337 NA
ATOM     29  N   UNL     1      32.373 -18.543 -25.442  0.00  0.00    -0.170 NA
ATOM     30  C   UNL     1      33.241 -18.200 -24.469  0.00  0.00    +0.149 C 
ATOM     31  C   UNL     1      33.018 -15.963 -24.828  0.00  0.00    +0.147 C 
ATOM     32  C   UNL     1      32.116 -16.185 -25.847  0.00  0.00    +0.055 C 
ATOM     33  C   UNL     1      31.827 -17.507 -26.113  0.00  0.00    +0.114 C 
ATOM     34  H   UNL     1      33.537 -20.149 -24.042  0.00  0.00    +0.165 HD
BRANCH  31  36
ATOM     35  N   UNL     1      34.186 -13.105 -22.740  0.00  0.00    -0.242 NA
ATOM     36  C   UNL     1      33.405 -14.625 -24.451  0.00  0.00    +0.050 C 
ATOM     37  C   UNL     1      33.383 -13.585 -25.374  0.00  0.00    +0.006 C 
ATOM     38  C   UNL     1      33.810 -14.335 -23.158  0.00  0.00    +0.101 C 
ATOM     39  C   UNL     1      33.761 -12.306 -24.981  0.00  0.00    +0.021 C 
ATOM     40  C   UNL     1      34.151 -12.120 -23.665  0.00  0.00    +0.099 C 
ENDBRANCH  31  36
ENDBRANCH  23  27
ENDBRANCH   2  21
TORSDOF 6
ENDMDL
MODEL 9
REMARK VINA RESULT:     -10.8      2.925      5.993
REMARK  Name = 4369496
REMARK  6 active torsions:
REMARK  status: ('A' for Active; 'I' for Inactive)
REMARK    1  A    between atoms: N_2  and  C_21
REMARK    2  A    between atoms: C_3  and  C_10
REMARK    3  A    between atoms: C_5  and  C_11
REMARK    4  A    between atoms: C_11  and  N_12
REMARK    5  A    between atoms: C_23  and  N_27
REMARK    6  A    between atoms: C_31  and  C_36
REMARK                            x       y       z     vdW  Elec       q    Type
REMARK                         _______ _______ _______ _____ _____    ______ ____
ROOT
ATOM      1  O   UNL     1      35.280 -19.783 -23.162  0.00  0.00    -0.270 OA
ATOM      2  N   UNL     1      34.174 -19.009 -21.244  0.00  0.00    -0.280 N 
ATOM      3  C   UNL     1      34.691 -18.884 -22.541  0.00  0.00    +0.249 C 
ATOM      4  H   UNL     1      33.733 -18.207 -20.881  0.00  0.00    +0.155 HD
ENDROOT
BRANCH   3  10
ATOM      5  C   UNL     1      34.221 -15.093 -24.357  0.00  0.00    -0.043 C 
ATOM      6  C   UNL     1      34.769 -15.178 -23.086  0.00  0.00    -0.006 C 
ATOM      7  C   UNL     1      33.824 -16.233 -25.043  0.00  0.00    -0.006 C 
ATOM      8  C   UNL     1      34.926 -16.428 -22.487  0.00  0.00    +0.004 C 
ATOM      9  C   UNL     1      33.980 -17.483 -24.444  0.00  0.00    +0.004 C 
ATOM     10  C   UNL     1      34.531 -17.581 -23.166  0.00  0.00    +0.054 C 
BRANCH   5  11
ATOM     11  C   UNL     1      34.054 -13.744 -25.005  0.00  0.00    -0.050 C 
BRANCH  11  12
ATOM     12  N   UNL     1      33.932 -12.676 -24.014  0.00  0.00    +0.387 N 
ATOM     13  N   UNL     1      32.641 -10.354 -22.875  0.00  0.00    +0.383 N 
ATOM     14  C   UNL     1      32.669 -12.793 -23.275  0.00  0.00    -0.100 C 
ATOM     15  C   UNL     1      34.032 -11.359 -24.653  0.00  0.00    -0.100 C 
ATOM     16  C   UNL     1      32.540 -11.672 -22.238  0.00  0.00    -0.101 C 
ATOM     17  C   UNL     1      33.903 -10.238 -23.616  0.00  0.00    -0.101 C 
ATOM     18  C   UNL     1      32.521  -9.287 -21.884  0.00  0.00    -0.101 C 
ATOM     19  H   UNL     1      34.701 -12.772 -23.352  0.00  0.00    -0.079 HD
ATOM     20  H   UNL     1      31.870 -10.257 -23.537  0.00  0.00    -0.080 HD
ENDBRANCH  11  12
ENDBRANCH   5  11
ENDBRANCH   3  10
BRANCH   2  21
ATOM     21  C   UNL     1      34.204 -20.136 -20.387  0.00  0.00    +0.052 C 
ATOM     22  C   UNL     1      35.359 -20.416 -19.677  0.00  0.00    +0.030 C 
ATOM     23  C   UNL     1      35.388 -21.527 -18.834  0.00  0.00    +0.059 C 
ATOM     24  C   UNL     1      33.076 -20.932 -20.279  0.00  0.00    +0.015 C 
ATOM     25  C   UNL     1      34.261 -22.341 -18.714  0.00  0.00    +0.015 C 
ATOM     26  C   UNL     1      33.106 -22.043 -19.436  0.00  0.00    +0.003 C 
BRANCH  23  27
ATOM     27  N   UNL     1      36.556 -21.827 -18.102  0.00  0.00    -0.247 N 
ATOM     28  N   UNL     1      35.666 -22.781 -16.152  0.00  0.00    -0.337 NA
ATOM     29  N   UNL     1      38.047 -22.549 -16.441  0.00  0.00    -0.170 NA
ATOM     30  C   UNL     1      36.766 -22.413 -16.839  0.00  0.00    +0.149 C 
ATOM     31  C   UNL     1      35.904 -23.339 -14.947  0.00  0.00    +0.147 C 
ATOM     32  C   UNL     1      37.168 -23.532 -14.428  0.00  0.00    +0.055 C 
ATOM     33  C   UNL     1      38.212 -23.114 -15.227  0.00  0.00    +0.114 C 
ATOM     34  H   UNL     1      37.388 -21.576 -18.566  0.00  0.00    +0.165 HD
BRANCH  31  36
ATOM     35  N   UNL     1      33.765 -24.655 -12.194  0.00  0.00    -0.242 NA
ATOM     36  C   UNL     1      34.727 -23.734 -14.211  0.00  0.00    +0.050 C 
ATOM     37  C   UNL     1      33.457 -23.592 -14.760  0.00  0.00    +0.006 C 
ATOM     38  C   UNL     1      34.826 -24.266 -12.936  0.00  0.00    +0.101 C 
ATOM     39  C   UNL     1      32.341 -23.982 -14.027  0.00  0.00    +0.021 C 
ATOM     40  C   UNL     1      32.548 -24.503 -12.760  0.00  0.00    +0.099 C 
ENDBRANCH  31  36
ENDBRANCH  23  27
ENDBRANCH   2  21
TORSDOF 6
ENDMDL
