MODEL 1
REMARK VINA RESULT:     -11.1      0.000      0.000
REMARK  Name = 46937052
REMARK  7 active torsions:
REMARK  status: ('A' for Active; 'I' for Inactive)
REMARK    1  A    between atoms: O_1  and  C_3
REMARK    2  A    between atoms: O_1  and  C_17
REMARK    3  A    between atoms: C_4  and  C_11
REMARK    4  A    between atoms: C_17  and  C_18
REMARK    5  A    between atoms: C_18  and  N_19
REMARK    6  A    between atoms: C_18  and  C_23
REMARK    7  A    between atoms: C_23  and  C_25
REMARK                            x       y       z     vdW  Elec       q    Type
REMARK                         _______ _______ _______ _____ _____    ______ ____
ROOT
ATOM      1  O   UNL     1      36.461 -23.845 -15.288  0.00  0.00    -0.476 OA
ENDROOT
BRANCH   1   3
ATOM      2  N   UNL     1      34.700 -24.129 -12.094  0.00  0.00    -0.239 NA
ATOM      3  C   UNL     1      35.432 -23.981 -14.393  0.00  0.00    +0.158 C 
ATOM      4  C   UNL     1      33.093 -24.246 -13.897  0.00  0.00    +0.039 C 
ATOM      5  C   UNL     1      34.117 -24.109 -14.827  0.00  0.00    +0.042 C 
ATOM      6  C   UNL     1      35.668 -23.997 -13.028  0.00  0.00    +0.136 C 
ATOM      7  C   UNL     1      33.435 -24.250 -12.553  0.00  0.00    +0.101 C 
BRANCH   4  11
ATOM      8  N   UNL     1      31.028 -25.437 -13.963  0.00  0.00    -0.264 NA
ATOM      9  N   UNL     1      27.877 -24.461 -15.654  0.00  0.00    -0.150 NA
ATOM     10  N   UNL     1      27.803 -23.211 -16.410  0.00  0.00    -0.147 NA
ATOM     11  C   UNL     1      31.676 -24.385 -14.328  0.00  0.00    +0.078 C 
ATOM     12  C   UNL     1      29.884 -23.413 -15.543  0.00  0.00    +0.040 C 
ATOM     13  C   UNL     1      29.085 -24.553 -15.167  0.00  0.00    +0.107 C 
ATOM     14  C   UNL     1      29.629 -25.657 -14.338  0.00  0.00    +0.173 C 
ATOM     15  C   UNL     1      31.147 -23.277 -15.172  0.00  0.00    +0.022 C 
ATOM     16  C   UNL     1      28.965 -22.629 -16.335  0.00  0.00    +0.123 C 
ENDBRANCH   4  11
ENDBRANCH   1   3
BRANCH   1  17
ATOM     17  C   UNL     1      37.192 -22.626 -15.243  0.00  0.00    +0.184 C 
BRANCH  17  18
ATOM     18  C   UNL     1      36.664 -21.645 -16.297  0.00  0.00    -0.017 C 
BRANCH  18  19
ATOM     19  N   UNL     1      37.621 -20.542 -16.418  0.00  0.00    +0.384 N 
ATOM     20  H   UNL     1      38.545 -20.860 -16.126  0.00  0.00    -0.089 HD
ATOM     21  H   UNL     1      37.324 -19.768 -15.824  0.00  0.00    -0.089 HD
ATOM     22  H   UNL     1      37.660 -20.231 -17.389  0.00  0.00    -0.089 HD
ENDBRANCH  18  19
BRANCH  18  23
ATOM     23  C   UNL     1      36.465 -22.297 -17.688  0.00  0.00    +0.010 C 
BRANCH  23  25
ATOM     24  N   UNL     1      32.882 -21.998 -18.709  0.00  0.00    -0.244 NA
ATOM     25  C   UNL     1      35.211 -21.927 -18.369  0.00  0.00    -0.004 C 
ATOM     26  C   UNL     1      34.904 -21.128 -19.397  0.00  0.00    +0.011 C 
ATOM     27  C   UNL     1      33.473 -21.162 -19.617  0.00  0.00    +0.080 C 
ATOM     28  C   UNL     1      33.879 -22.432 -17.999  0.00  0.00    +0.094 C 
ATOM     29  C   UNL     1      35.779 -20.324 -20.213  0.00  0.00    -0.020 C 
ATOM     30  C   UNL     1      32.911 -20.443 -20.595  0.00  0.00    +0.015 C 
ATOM     31  C   UNL     1      33.750 -19.568 -21.506  0.00  0.00    -0.020 C 
ATOM     32  C   UNL     1      35.238 -19.592 -21.203  0.00  0.00    +0.052 C 
ENDBRANCH  23  25
ENDBRANCH  18  23
ENDBRANCH  17  18
ENDBRANCH   1  17
TORSDOF 7
ENDMDL
MODEL 2
REMARK VINA RESULT:     -11.1      2.855      8.174
REMARK  Name = 46937052
REMARK  7 active torsions:
REMARK  status: ('A' for Active; 'I' for Inactive)
REMARK    1  A    between atoms: O_1  and  C_3
REMARK    2  A    between atoms: O_1  and  C_17
REMARK    3  A    between atoms: C_4  and  C_11
REMARK    4  A    between atoms: C_17  and  C_18
REMARK    5  A    between atoms: C_18  and  N_19
REMARK    6  A    between atoms: C_18  and  C_23
REMARK    7  A    between atoms: C_23  and  C_25
REMARK                            x       y       z     vdW  Elec       q    Type
REMARK                         _______ _______ _______ _____ _____    ______ ____
ROOT
ATOM      1  O   UNL     1      36.121 -22.519 -17.996  0.00  0.00    -0.476 OA
ENDROOT
BRANCH   1   3
ATOM      2  N   UNL     1      32.744 -21.739 -19.167  0.00  0.00    -0.239 NA
ATOM      3  C   UNL     1      35.108 -21.908 -18.687  0.00  0.00    +0.158 C 
ATOM      4  C   UNL     1      34.321 -20.274 -20.266  0.00  0.00    +0.039 C 
ATOM      5  C   UNL     1      35.370 -20.876 -19.580  0.00  0.00    +0.042 C 
ATOM      6  C   UNL     1      33.790 -22.299 -18.517  0.00  0.00    +0.136 C 
ATOM      7  C   UNL     1      33.038 -20.739 -20.026  0.00  0.00    +0.101 C 
BRANCH   4  11
ATOM      8  N   UNL     1      35.163 -18.107 -20.802  0.00  0.00    -0.264 NA
ATOM      9  N   UNL     1      35.086 -16.367 -24.074  0.00  0.00    -0.150 NA
ATOM     10  N   UNL     1      34.471 -17.008 -25.236  0.00  0.00    -0.147 NA
ATOM     11  C   UNL     1      34.568 -19.167 -21.230  0.00  0.00    +0.078 C 
ATOM     12  C   UNL     1      34.308 -18.407 -23.462  0.00  0.00    +0.040 C 
ATOM     13  C   UNL     1      34.978 -17.192 -23.067  0.00  0.00    +0.107 C 
ATOM     14  C   UNL     1      35.450 -16.969 -21.679  0.00  0.00    +0.173 C 
ATOM     15  C   UNL     1      34.076 -19.397 -22.617  0.00  0.00    +0.022 C 
ATOM     16  C   UNL     1      34.030 -18.174 -24.860  0.00  0.00    +0.123 C 
ENDBRANCH   4  11
ENDBRANCH   1   3
BRANCH   1  17
ATOM     17  C   UNL     1      36.253 -22.184 -16.621  0.00  0.00    +0.184 C 
BRANCH  17  18
ATOM     18  C   UNL     1      35.571 -23.242 -15.744  0.00  0.00    -0.017 C 
BRANCH  18  19
ATOM     19  N   UNL     1      36.612 -24.059 -15.116  0.00  0.00    +0.384 N 
ATOM     20  H   UNL     1      36.273 -25.015 -15.006  0.00  0.00    -0.089 HD
ATOM     21  H   UNL     1      36.843 -23.673 -14.201  0.00  0.00    -0.089 HD
ATOM     22  H   UNL     1      37.445 -24.060 -15.705  0.00  0.00    -0.089 HD
ENDBRANCH  18  19
BRANCH  18  23
ATOM     23  C   UNL     1      34.674 -22.629 -14.639  0.00  0.00    +0.010 C 
BRANCH  23  25
ATOM     24  N   UNL     1      32.543 -25.145 -12.879  0.00  0.00    -0.244 NA
ATOM     25  C   UNL     1      33.554 -23.485 -14.209  0.00  0.00    -0.004 C 
ATOM     26  C   UNL     1      32.282 -23.629 -14.598  0.00  0.00    +0.011 C 
ATOM     27  C   UNL     1      31.648 -24.648 -13.787  0.00  0.00    +0.080 C 
ATOM     28  C   UNL     1      33.630 -24.477 -13.124  0.00  0.00    +0.094 C 
ATOM     29  C   UNL     1      31.568 -22.933 -15.638  0.00  0.00    -0.020 C 
ATOM     30  C   UNL     1      30.366 -24.980 -13.980  0.00  0.00    +0.015 C 
ATOM     31  C   UNL     1      29.534 -24.304 -15.052  0.00  0.00    -0.020 C 
ATOM     32  C   UNL     1      30.278 -23.249 -15.852  0.00  0.00    +0.052 C 
ENDBRANCH  23  25
ENDBRANCH  18  23
ENDBRANCH  17  18
ENDBRANCH   1  17
TORSDOF 7
ENDMDL
MODEL 3
REMARK VINA RESULT:     -11.0      3.824      5.934
REMARK  Name = 46937052
REMARK  7 active torsions:
REMARK  status: ('A' for Active; 'I' for Inactive)
REMARK    1  A    between atoms: O_1  and  C_3
REMARK    2  A    between atoms: O_1  and  C_17
REMARK    3  A    between atoms: C_4  and  C_11
REMARK    4  A    between atoms: C_17  and  C_18
REMARK    5  A    between atoms: C_18  and  N_19
REMARK    6  A    between atoms: C_18  and  C_23
REMARK    7  A    between atoms: C_23  and  C_25
REMARK                            x       y       z     vdW  Elec       q    Type
REMARK                         _______ _______ _______ _____ _____    ______ ____
ROOT
ATOM      1  O   UNL     1      33.604 -20.299 -20.644  0.00  0.00    -0.476 OA
ENDROOT
BRANCH   1   3
ATOM      2  N   UNL     1      35.722 -22.209 -18.352  0.00  0.00    -0.239 NA
ATOM      3  C   UNL     1      33.969 -21.092 -19.587  0.00  0.00    +0.158 C 
ATOM      4  C   UNL     1      33.421 -22.379 -17.631  0.00  0.00    +0.039 C 
ATOM      5  C   UNL     1      33.021 -21.579 -18.695  0.00  0.00    +0.042 C 
ATOM      6  C   UNL     1      35.295 -21.433 -19.374  0.00  0.00    +0.136 C 
ATOM      7  C   UNL     1      34.772 -22.663 -17.505  0.00  0.00    +0.101 C 
BRANCH   4  11
ATOM      8  N   UNL     1      31.178 -22.777 -16.924  0.00  0.00    -0.264 NA
ATOM      9  N   UNL     1      30.017 -24.475 -13.840  0.00  0.00    -0.150 NA
ATOM     10  N   UNL     1      30.986 -24.986 -12.871  0.00  0.00    -0.147 NA
ATOM     11  C   UNL     1      32.431 -22.917 -16.659  0.00  0.00    +0.078 C 
ATOM     12  C   UNL     1      32.111 -24.038 -14.592  0.00  0.00    +0.040 C 
ATOM     13  C   UNL     1      30.691 -23.934 -14.819  0.00  0.00    +0.107 C 
ATOM     14  C   UNL     1      30.133 -23.277 -16.027  0.00  0.00    +0.173 C 
ATOM     15  C   UNL     1      33.004 -23.561 -15.444  0.00  0.00    +0.022 C 
ATOM     16  C   UNL     1      32.179 -24.722 -13.321  0.00  0.00    +0.123 C 
ENDBRANCH   4  11
ENDBRANCH   1   3
BRANCH   1  17
ATOM     17  C   UNL     1      34.621 -19.975 -21.583  0.00  0.00    +0.184 C 
BRANCH  17  18
ATOM     18  C   UNL     1      34.801 -18.454 -21.673  0.00  0.00    -0.017 C 
BRANCH  18  19
ATOM     19  N   UNL     1      35.603 -18.018 -20.527  0.00  0.00    +0.384 N 
ATOM     20  H   UNL     1      35.707 -17.004 -20.551  0.00  0.00    -0.089 HD
ATOM     21  H   UNL     1      36.524 -18.455 -20.570  0.00  0.00    -0.089 HD
ATOM     22  H   UNL     1      35.136 -18.291 -19.662  0.00  0.00    -0.089 HD
ENDBRANCH  18  19
BRANCH  18  23
ATOM     23  C   UNL     1      35.498 -18.002 -22.980  0.00  0.00    +0.010 C 
BRANCH  23  25
ATOM     24  N   UNL     1      33.729 -16.006 -25.599  0.00  0.00    -0.244 NA
ATOM     25  C   UNL     1      34.796 -16.935 -23.716  0.00  0.00    -0.004 C 
ATOM     26  C   UNL     1      34.399 -15.693 -23.414  0.00  0.00    +0.011 C 
ATOM     27  C   UNL     1      33.741 -15.110 -24.565  0.00  0.00    +0.080 C 
ATOM     28  C   UNL     1      34.333 -17.046 -25.108  0.00  0.00    +0.094 C 
ATOM     29  C   UNL     1      34.553 -14.968 -22.179  0.00  0.00    -0.020 C 
ATOM     30  C   UNL     1      33.251 -13.865 -24.518  0.00  0.00    +0.015 C 
ATOM     31  C   UNL     1      33.366 -13.025 -23.262  0.00  0.00    -0.020 C 
ATOM     32  C   UNL     1      34.068 -13.715 -22.106  0.00  0.00    +0.052 C 
ENDBRANCH  23  25
ENDBRANCH  18  23
ENDBRANCH  17  18
ENDBRANCH   1  17
TORSDOF 7
ENDMDL
MODEL 4
REMARK VINA RESULT:     -11.0      3.215      8.504
REMARK  Name = 46937052
REMARK  7 active torsions:
REMARK  status: ('A' for Active; 'I' for Inactive)
REMARK    1  A    between atoms: O_1  and  C_3
REMARK    2  A    between atoms: O_1  and  C_17
REMARK    3  A    between atoms: C_4  and  C_11
REMARK    4  A    between atoms: C_17  and  C_18
REMARK    5  A    between atoms: C_18  and  N_19
REMARK    6  A    between atoms: C_18  and  C_23
REMARK    7  A    between atoms: C_23  and  C_25
REMARK                            x       y       z     vdW  Elec       q    Type
REMARK                         _______ _______ _______ _____ _____    ______ ____
ROOT
ATOM      1  O   UNL     1      32.884 -22.478 -18.437  0.00  0.00    -0.476 OA
ENDROOT
BRANCH   1   3
ATOM      2  N   UNL     1      36.402 -21.612 -18.949  0.00  0.00    -0.239 NA
ATOM      3  C   UNL     1      33.994 -21.834 -18.918  0.00  0.00    +0.158 C 
ATOM      4  C   UNL     1      35.024 -20.155 -20.298  0.00  0.00    +0.039 C 
ATOM      5  C   UNL     1      33.880 -20.789 -19.827  0.00  0.00    +0.042 C 
ATOM      6  C   UNL     1      35.267 -22.205 -18.514  0.00  0.00    +0.136 C 
ATOM      7  C   UNL     1      36.250 -20.600 -19.832  0.00  0.00    +0.101 C 
BRANCH   4  11
ATOM      8  N   UNL     1      35.327 -17.864 -20.893  0.00  0.00    -0.264 NA
ATOM      9  N   UNL     1      34.567 -16.220 -24.127  0.00  0.00    -0.150 NA
ATOM     10  N   UNL     1      33.995 -16.991 -25.230  0.00  0.00    -0.147 NA
ATOM     11  C   UNL     1      34.935 -19.032 -21.271  0.00  0.00    +0.078 C 
ATOM     12  C   UNL     1      34.305 -18.371 -23.462  0.00  0.00    +0.040 C 
ATOM     13  C   UNL     1      34.734 -17.037 -23.122  0.00  0.00    +0.107 C 
ATOM     14  C   UNL     1      35.278 -16.702 -21.782  0.00  0.00    +0.173 C 
ATOM     15  C   UNL     1      34.373 -19.379 -22.607  0.00  0.00    +0.022 C 
ATOM     16  C   UNL     1      33.851 -18.221 -24.824  0.00  0.00    +0.123 C 
ENDBRANCH   4  11
ENDBRANCH   1   3
BRANCH   1  17
ATOM     17  C   UNL     1      33.104 -23.518 -17.494  0.00  0.00    +0.184 C 
BRANCH  17  18
ATOM     18  C   UNL     1      32.744 -23.044 -16.080  0.00  0.00    -0.017 C 
BRANCH  18  19
ATOM     19  N   UNL     1      31.286 -23.081 -15.941  0.00  0.00    +0.384 N 
ATOM     20  H   UNL     1      30.858 -23.155 -16.864  0.00  0.00    -0.089 HD
ATOM     21  H   UNL     1      30.966 -22.227 -15.485  0.00  0.00    -0.089 HD
ATOM     22  H   UNL     1      31.019 -23.889 -15.377  0.00  0.00    -0.089 HD
ENDBRANCH  18  19
BRANCH  18  23
ATOM     23  C   UNL     1      33.381 -23.913 -14.967  0.00  0.00    +0.010 C 
BRANCH  23  25
ATOM     24  N   UNL     1      36.878 -22.604 -14.779  0.00  0.00    -0.244 NA
ATOM     25  C   UNL     1      34.846 -23.793 -14.855  0.00  0.00    -0.004 C 
ATOM     26  C   UNL     1      35.849 -24.667 -14.702  0.00  0.00    +0.011 C 
ATOM     27  C   UNL     1      37.105 -23.947 -14.654  0.00  0.00    +0.080 C 
ATOM     28  C   UNL     1      35.586 -22.522 -14.894  0.00  0.00    +0.094 C 
ATOM     29  C   UNL     1      35.791 -26.102 -14.592  0.00  0.00    -0.020 C 
ATOM     30  C   UNL     1      38.264 -24.599 -14.505  0.00  0.00    +0.015 C 
ATOM     31  C   UNL     1      38.304 -26.110 -14.382  0.00  0.00    -0.020 C 
ATOM     32  C   UNL     1      36.943 -26.780 -14.442  0.00  0.00    +0.052 C 
ENDBRANCH  23  25
ENDBRANCH  18  23
ENDBRANCH  17  18
ENDBRANCH   1  17
TORSDOF 7
ENDMDL
MODEL 5
REMARK VINA RESULT:     -10.9      7.182     10.703
REMARK  Name = 46937052
REMARK  7 active torsions:
REMARK  status: ('A' for Active; 'I' for Inactive)
REMARK    1  A    between atoms: O_1  and  C_3
REMARK    2  A    between atoms: O_1  and  C_17
REMARK    3  A    between atoms: C_4  and  C_11
REMARK    4  A    between atoms: C_17  and  C_18
REMARK    5  A    between atoms: C_18  and  N_19
REMARK    6  A    between atoms: C_18  and  C_23
REMARK    7  A    between atoms: C_23  and  C_25
REMARK                            x       y       z     vdW  Elec       q    Type
REMARK                         _______ _______ _______ _____ _____    ______ ____
ROOT
ATOM      1  O   UNL     1      34.941 -14.933 -22.831  0.00  0.00    -0.476 OA
ENDROOT
BRANCH   1   3
ATOM      2  N   UNL     1      34.087 -18.114 -24.423  0.00  0.00    -0.239 NA
ATOM      3  C   UNL     1      34.754 -16.281 -22.995  0.00  0.00    +0.158 C 
ATOM      4  C   UNL     1      34.820 -18.535 -22.157  0.00  0.00    +0.039 C 
ATOM      5  C   UNL     1      35.019 -17.172 -21.962  0.00  0.00    +0.042 C 
ATOM      6  C   UNL     1      34.294 -16.798 -24.195  0.00  0.00    +0.136 C 
ATOM      7  C   UNL     1      34.356 -18.951 -23.396  0.00  0.00    +0.101 C 
BRANCH   4  11
ATOM      8  N   UNL     1      36.310 -19.656 -20.670  0.00  0.00    -0.264 NA
ATOM      9  N   UNL     1      35.499 -22.235 -18.133  0.00  0.00    -0.150 NA
ATOM     10  N   UNL     1      34.120 -22.691 -17.961  0.00  0.00    -0.147 NA
ATOM     11  C   UNL     1      35.094 -19.515 -21.072  0.00  0.00    +0.078 C 
ATOM     12  C   UNL     1      34.168 -21.124 -19.594  0.00  0.00    +0.040 C 
ATOM     13  C   UNL     1      35.498 -21.334 -19.079  0.00  0.00    +0.107 C 
ATOM     14  C   UNL     1      36.672 -20.595 -19.606  0.00  0.00    +0.173 C 
ATOM     15  C   UNL     1      33.909 -20.260 -20.562  0.00  0.00    +0.022 C 
ATOM     16  C   UNL     1      33.376 -22.043 -18.811  0.00  0.00    +0.123 C 
ENDBRANCH   4  11
ENDBRANCH   1   3
BRANCH   1  17
ATOM     17  C   UNL     1      34.080 -14.273 -21.914  0.00  0.00    +0.184 C 
BRANCH  17  18
ATOM     18  C   UNL     1      33.477 -13.016 -22.553  0.00  0.00    -0.017 C 
BRANCH  18  19
ATOM     19  N   UNL     1      33.444 -13.210 -24.005  0.00  0.00    +0.384 N 
ATOM     20  H   UNL     1      32.502 -13.026 -24.351  0.00  0.00    -0.089 HD
ATOM     21  H   UNL     1      33.706 -14.171 -24.226  0.00  0.00    -0.089 HD
ATOM     22  H   UNL     1      34.101 -12.568 -24.449  0.00  0.00    -0.089 HD
ENDBRANCH  18  19
BRANCH  18  23
ATOM     23  C   UNL     1      32.046 -12.705 -22.051  0.00  0.00    +0.010 C 
BRANCH  23  25
ATOM     24  N   UNL     1      31.617 -10.376 -19.159  0.00  0.00    -0.244 NA
ATOM     25  C   UNL     1      31.938 -11.506 -21.200  0.00  0.00    -0.004 C 
ATOM     26  C   UNL     1      32.025 -10.189 -21.421  0.00  0.00    +0.011 C 
ATOM     27  C   UNL     1      31.829  -9.482 -20.173  0.00  0.00    +0.080 C 
ATOM     28  C   UNL     1      31.680 -11.530 -19.751  0.00  0.00    +0.094 C 
ATOM     29  C   UNL     1      32.270  -9.492 -22.659  0.00  0.00    -0.020 C 
ATOM     30  C   UNL     1      31.870  -8.145 -20.127  0.00  0.00    +0.015 C 
ATOM     31  C   UNL     1      32.121  -7.325 -21.378  0.00  0.00    -0.020 C 
ATOM     32  C   UNL     1      32.316  -8.148 -22.639  0.00  0.00    +0.052 C 
ENDBRANCH  23  25
ENDBRANCH  18  23
ENDBRANCH  17  18
ENDBRANCH   1  17
TORSDOF 7
ENDMDL
MODEL 6
REMARK VINA RESULT:     -10.9      3.416      6.468
REMARK  Name = 46937052
REMARK  7 active torsions:
REMARK  status: ('A' for Active; 'I' for Inactive)
REMARK    1  A    between atoms: O_1  and  C_3
REMARK    2  A    between atoms: O_1  and  C_17
REMARK    3  A    between atoms: C_4  and  C_11
REMARK    4  A    between atoms: C_17  and  C_18
REMARK    5  A    between atoms: C_18  and  N_19
REMARK    6  A    between atoms: C_18  and  C_23
REMARK    7  A    between atoms: C_23  and  C_25
REMARK                            x       y       z     vdW  Elec       q    Type
REMARK                         _______ _______ _______ _____ _____    ______ ____
ROOT
ATOM      1  O   UNL     1      35.400 -20.781 -19.983  0.00  0.00    -0.476 OA
ENDROOT
BRANCH   1   3
ATOM      2  N   UNL     1      32.619 -22.409 -18.252  0.00  0.00    -0.239 NA
ATOM      3  C   UNL     1      34.714 -21.487 -19.030  0.00  0.00    +0.158 C 
ATOM      4  C   UNL     1      34.639 -22.704 -16.956  0.00  0.00    +0.039 C 
ATOM      5  C   UNL     1      35.360 -21.990 -17.907  0.00  0.00    +0.042 C 
ATOM      6  C   UNL     1      33.354 -21.721 -19.155  0.00  0.00    +0.136 C 
ATOM      7  C   UNL     1      33.282 -22.883 -17.174  0.00  0.00    +0.101 C 
BRANCH   4  11
ATOM      8  N   UNL     1      36.582 -23.392 -15.756  0.00  0.00    -0.264 NA
ATOM      9  N   UNL     1      36.780 -24.768 -12.320  0.00  0.00    -0.150 NA
ATOM     10  N   UNL     1      35.564 -24.959 -11.531  0.00  0.00    -0.147 NA
ATOM     11  C   UNL     1      35.301 -23.255 -15.744  0.00  0.00    +0.078 C 
ATOM     12  C   UNL     1      34.995 -24.100 -13.547  0.00  0.00    +0.040 C 
ATOM     13  C   UNL     1      36.425 -24.274 -13.475  0.00  0.00    +0.107 C 
ATOM     14  C   UNL     1      37.318 -23.924 -14.607  0.00  0.00    +0.173 C 
ATOM     15  C   UNL     1      34.391 -23.616 -14.620  0.00  0.00    +0.022 C 
ATOM     16  C   UNL     1      34.553 -24.572 -12.255  0.00  0.00    +0.123 C 
ENDBRANCH   4  11
ENDBRANCH   1   3
BRANCH   1  17
ATOM     17  C   UNL     1      34.623 -20.057 -20.928  0.00  0.00    +0.184 C 
BRANCH  17  18
ATOM     18  C   UNL     1      35.249 -18.683 -21.198  0.00  0.00    -0.017 C 
BRANCH  18  19
ATOM     19  N   UNL     1      36.413 -18.528 -20.320  0.00  0.00    +0.384 N 
ATOM     20  H   UNL     1      37.264 -18.716 -20.849  0.00  0.00    -0.089 HD
ATOM     21  H   UNL     1      36.343 -19.186 -19.544  0.00  0.00    -0.089 HD
ATOM     22  H   UNL     1      36.440 -17.575 -19.958  0.00  0.00    -0.089 HD
ENDBRANCH  18  19
BRANCH  18  23
ATOM     23  C   UNL     1      35.697 -18.497 -22.669  0.00  0.00    +0.010 C 
BRANCH  23  25
ATOM     24  N   UNL     1      33.632 -16.810 -25.289  0.00  0.00    -0.244 NA
ATOM     25  C   UNL     1      34.901 -17.523 -23.437  0.00  0.00    -0.004 C 
ATOM     26  C   UNL     1      34.509 -16.261 -23.227  0.00  0.00    +0.011 C 
ATOM     27  C   UNL     1      33.727 -15.810 -24.360  0.00  0.00    +0.080 C 
ATOM     28  C   UNL     1      34.305 -17.786 -24.756  0.00  0.00    +0.094 C 
ATOM     29  C   UNL     1      34.768 -15.408 -22.095  0.00  0.00    -0.020 C 
ATOM     30  C   UNL     1      33.216 -14.573 -24.393  0.00  0.00    +0.015 C 
ATOM     31  C   UNL     1      33.437 -13.603 -23.249  0.00  0.00    -0.020 C 
ATOM     32  C   UNL     1      34.265 -14.160 -22.105  0.00  0.00    +0.052 C 
ENDBRANCH  23  25
ENDBRANCH  18  23
ENDBRANCH  17  18
ENDBRANCH   1  17
TORSDOF 7
ENDMDL
MODEL 7
REMARK VINA RESULT:     -10.8      3.524      6.419
REMARK  Name = 46937052
REMARK  7 active torsions:
REMARK  status: ('A' for Active; 'I' for Inactive)
REMARK    1  A    between atoms: O_1  and  C_3
REMARK    2  A    between atoms: O_1  and  C_17
REMARK    3  A    between atoms: C_4  and  C_11
REMARK    4  A    between atoms: C_17  and  C_18
REMARK    5  A    between atoms: C_18  and  N_19
REMARK    6  A    between atoms: C_18  and  C_23
REMARK    7  A    between atoms: C_23  and  C_25
REMARK                            x       y       z     vdW  Elec       q    Type
REMARK                         _______ _______ _______ _____ _____    ______ ____
ROOT
ATOM      1  O   UNL     1      35.620 -20.801 -20.005  0.00  0.00    -0.476 OA
ENDROOT
BRANCH   1   3
ATOM      2  N   UNL     1      32.654 -22.352 -18.527  0.00  0.00    -0.239 NA
ATOM      3  C   UNL     1      34.834 -21.487 -19.116  0.00  0.00    +0.158 C 
ATOM      4  C   UNL     1      34.543 -22.698 -17.059  0.00  0.00    +0.039 C 
ATOM      5  C   UNL     1      35.365 -22.006 -17.941  0.00  0.00    +0.042 C 
ATOM      6  C   UNL     1      33.485 -21.685 -19.361  0.00  0.00    +0.136 C 
ATOM      7  C   UNL     1      33.206 -22.842 -17.396  0.00  0.00    +0.101 C 
BRANCH   4  11
ATOM      8  N   UNL     1      36.340 -23.527 -15.727  0.00  0.00    -0.264 NA
ATOM      9  N   UNL     1      36.215 -24.784 -12.242  0.00  0.00    -0.150 NA
ATOM     10  N   UNL     1      34.945 -24.826 -11.519  0.00  0.00    -0.147 NA
ATOM     11  C   UNL     1      35.080 -23.265 -15.792  0.00  0.00    +0.078 C 
ATOM     12  C   UNL     1      34.574 -23.992 -13.591  0.00  0.00    +0.040 C 
ATOM     13  C   UNL     1      35.973 -24.302 -13.431  0.00  0.00    +0.107 C 
ATOM     14  C   UNL     1      36.957 -24.084 -14.521  0.00  0.00    +0.173 C 
ATOM     15  C   UNL     1      34.080 -23.493 -14.712  0.00  0.00    +0.022 C 
ATOM     16  C   UNL     1      34.018 -24.370 -12.312  0.00  0.00    +0.123 C 
ENDBRANCH   4  11
ENDBRANCH   1   3
BRANCH   1  17
ATOM     17  C   UNL     1      34.954 -19.936 -20.916  0.00  0.00    +0.184 C 
BRANCH  17  18
ATOM     18  C   UNL     1      35.663 -18.578 -20.981  0.00  0.00    -0.017 C 
BRANCH  18  19
ATOM     19  N   UNL     1      37.053 -18.764 -20.558  0.00  0.00    +0.384 N 
ATOM     20  H   UNL     1      37.336 -17.982 -19.966  0.00  0.00    -0.089 HD
ATOM     21  H   UNL     1      37.656 -18.804 -21.379  0.00  0.00    -0.089 HD
ATOM     22  H   UNL     1      37.135 -19.634 -20.032  0.00  0.00    -0.089 HD
ENDBRANCH  18  19
BRANCH  18  23
ATOM     23  C   UNL     1      35.644 -17.950 -22.397  0.00  0.00    +0.010 C 
BRANCH  23  25
ATOM     24  N   UNL     1      34.222 -14.589 -21.585  0.00  0.00    -0.244 NA
ATOM     25  C   UNL     1      35.000 -16.626 -22.476  0.00  0.00    -0.004 C 
ATOM     26  C   UNL     1      34.453 -15.908 -23.463  0.00  0.00    +0.011 C 
ATOM     27  C   UNL     1      33.970 -14.652 -22.929  0.00  0.00    +0.080 C 
ATOM     28  C   UNL     1      34.810 -15.720 -21.332  0.00  0.00    +0.094 C 
ATOM     29  C   UNL     1      34.319 -16.241 -24.859  0.00  0.00    -0.020 C 
ATOM     30  C   UNL     1      33.377 -13.751 -23.721  0.00  0.00    +0.015 C 
ATOM     31  C   UNL     1      33.190 -14.013 -25.202  0.00  0.00    -0.020 C 
ATOM     32  C   UNL     1      33.726 -15.352 -25.676  0.00  0.00    +0.052 C 
ENDBRANCH  23  25
ENDBRANCH  18  23
ENDBRANCH  17  18
ENDBRANCH   1  17
TORSDOF 7
ENDMDL
MODEL 8
REMARK VINA RESULT:     -10.7      3.048      4.779
REMARK  Name = 46937052
REMARK  7 active torsions:
REMARK  status: ('A' for Active; 'I' for Inactive)
REMARK    1  A    between atoms: O_1  and  C_3
REMARK    2  A    between atoms: O_1  and  C_17
REMARK    3  A    between atoms: C_4  and  C_11
REMARK    4  A    between atoms: C_17  and  C_18
REMARK    5  A    between atoms: C_18  and  N_19
REMARK    6  A    between atoms: C_18  and  C_23
REMARK    7  A    between atoms: C_23  and  C_25
REMARK                            x       y       z     vdW  Elec       q    Type
REMARK                         _______ _______ _______ _____ _____    ______ ____
ROOT
ATOM      1  O   UNL     1      35.501 -21.751 -19.651  0.00  0.00    -0.476 OA
ENDROOT
BRANCH   1   3
ATOM      2  N   UNL     1      36.808 -22.092 -16.251  0.00  0.00    -0.239 NA
ATOM      3  C   UNL     1      35.547 -22.045 -18.313  0.00  0.00    +0.158 C 
ATOM      4  C   UNL     1      34.517 -22.861 -16.298  0.00  0.00    +0.039 C 
ATOM      5  C   UNL     1      34.441 -22.573 -17.657  0.00  0.00    +0.042 C 
ATOM      6  C   UNL     1      36.697 -21.825 -17.571  0.00  0.00    +0.136 C 
ATOM      7  C   UNL     1      35.713 -22.604 -15.647  0.00  0.00    +0.101 C 
BRANCH   4  11
ATOM      8  N   UNL     1      33.574 -24.090 -14.485  0.00  0.00    -0.264 NA
ATOM      9  N   UNL     1      29.999 -24.825 -13.832  0.00  0.00    -0.150 NA
ATOM     10  N   UNL     1      28.969 -24.352 -14.756  0.00  0.00    -0.147 NA
ATOM     11  C   UNL     1      33.351 -23.428 -15.567  0.00  0.00    +0.078 C 
ATOM     12  C   UNL     1      30.993 -23.684 -15.521  0.00  0.00    +0.040 C 
ATOM     13  C   UNL     1      31.154 -24.428 -14.296  0.00  0.00    +0.107 C 
ATOM     14  C   UNL     1      32.488 -24.682 -13.699  0.00  0.00    +0.173 C 
ATOM     15  C   UNL     1      32.019 -23.179 -16.185  0.00  0.00    +0.022 C 
ATOM     16  C   UNL     1      29.562 -23.704 -15.717  0.00  0.00    +0.123 C 
ENDBRANCH   4  11
ENDBRANCH   1   3
BRANCH   1  17
ATOM     17  C   UNL     1      35.976 -20.469 -20.042  0.00  0.00    +0.184 C 
BRANCH  17  18
ATOM     18  C   UNL     1      35.074 -19.874 -21.131  0.00  0.00    -0.017 C 
BRANCH  18  19
ATOM     19  N   UNL     1      33.684 -19.964 -20.677  0.00  0.00    +0.384 N 
ATOM     20  H   UNL     1      33.565 -19.400 -19.835  0.00  0.00    -0.089 HD
ATOM     21  H   UNL     1      33.456 -20.936 -20.470  0.00  0.00    -0.089 HD
ATOM     22  H   UNL     1      33.064 -19.616 -21.409  0.00  0.00    -0.089 HD
ENDBRANCH  18  19
BRANCH  18  23
ATOM     23  C   UNL     1      35.407 -18.396 -21.454  0.00  0.00    +0.010 C 
BRANCH  23  25
ATOM     24  N   UNL     1      33.940 -18.129 -24.881  0.00  0.00    -0.244 NA
ATOM     25  C   UNL     1      34.825 -17.894 -22.712  0.00  0.00    -0.004 C 
ATOM     26  C   UNL     1      34.500 -16.681 -23.175  0.00  0.00    +0.011 C 
ATOM     27  C   UNL     1      33.954 -16.812 -24.510  0.00  0.00    +0.080 C 
ATOM     28  C   UNL     1      34.438 -18.742 -23.851  0.00  0.00    +0.094 C 
ATOM     29  C   UNL     1      34.632 -15.399 -22.531  0.00  0.00    -0.020 C 
ATOM     30  C   UNL     1      33.550 -15.735 -25.196  0.00  0.00    +0.015 C 
ATOM     31  C   UNL     1      33.651 -14.345 -24.600  0.00  0.00    -0.020 C 
ATOM     32  C   UNL     1      34.233 -14.302 -23.199  0.00  0.00    +0.052 C 
ENDBRANCH  23  25
ENDBRANCH  18  23
ENDBRANCH  17  18
ENDBRANCH   1  17
TORSDOF 7
ENDMDL
MODEL 9
REMARK VINA RESULT:     -10.7      6.510     11.268
REMARK  Name = 46937052
REMARK  7 active torsions:
REMARK  status: ('A' for Active; 'I' for Inactive)
REMARK    1  A    between atoms: O_1  and  C_3
REMARK    2  A    between atoms: O_1  and  C_17
REMARK    3  A    between atoms: C_4  and  C_11
REMARK    4  A    between atoms: C_17  and  C_18
REMARK    5  A    between atoms: C_18  and  N_19
REMARK    6  A    between atoms: C_18  and  C_23
REMARK    7  A    between atoms: C_23  and  C_25
REMARK                            x       y       z     vdW  Elec       q    Type
REMARK                         _______ _______ _______ _____ _____    ______ ____
ROOT
ATOM      1  O   UNL     1      35.639 -17.193 -23.123  0.00  0.00    -0.476 OA
ENDROOT
BRANCH   1   3
ATOM      2  N   UNL     1      33.671 -15.690 -25.816  0.00  0.00    -0.239 NA
ATOM      3  C   UNL     1      34.869 -16.284 -23.802  0.00  0.00    +0.158 C 
ATOM      4  C   UNL     1      33.723 -14.174 -23.934  0.00  0.00    +0.039 C 
ATOM      5  C   UNL     1      34.505 -15.076 -23.220  0.00  0.00    +0.042 C 
ATOM      6  C   UNL     1      34.431 -16.541 -25.091  0.00  0.00    +0.136 C 
ATOM      7  C   UNL     1      33.336 -14.525 -25.217  0.00  0.00    +0.101 C 
BRANCH   4  11
ATOM      8  N   UNL     1      33.743 -11.789 -23.892  0.00  0.00    -0.264 NA
ATOM      9  N   UNL     1      32.040  -9.528 -21.498  0.00  0.00    -0.150 NA
ATOM     10  N   UNL     1      31.244 -10.079 -20.402  0.00  0.00    -0.147 NA
ATOM     11  C   UNL     1      33.316 -12.872 -23.339  0.00  0.00    +0.078 C 
ATOM     12  C   UNL     1      32.094 -11.791 -21.616  0.00  0.00    +0.040 C 
ATOM     13  C   UNL     1      32.518 -10.534 -22.180  0.00  0.00    +0.107 C 
ATOM     14  C   UNL     1      33.392 -10.463 -23.378  0.00  0.00    +0.173 C 
ATOM     15  C   UNL     1      32.451 -12.957 -22.129  0.00  0.00    +0.022 C 
ATOM     16  C   UNL     1      31.292 -11.378 -20.488  0.00  0.00    +0.123 C 
ENDBRANCH   4  11
ENDBRANCH   1   3
BRANCH   1  17
ATOM     17  C   UNL     1      35.070 -18.476 -22.902  0.00  0.00    +0.184 C 
BRANCH  17  18
ATOM     18  C   UNL     1      35.425 -18.986 -21.500  0.00  0.00    -0.017 C 
BRANCH  18  19
ATOM     19  N   UNL     1      35.300 -17.870 -20.559  0.00  0.00    +0.384 N 
ATOM     20  H   UNL     1      34.331 -17.794 -20.249  0.00  0.00    -0.089 HD
ATOM     21  H   UNL     1      35.579 -17.004 -21.020  0.00  0.00    -0.089 HD
ATOM     22  H   UNL     1      35.903 -18.036 -19.753  0.00  0.00    -0.089 HD
ENDBRANCH  18  19
BRANCH  18  23
ATOM     23  C   UNL     1      34.518 -20.150 -21.028  0.00  0.00    +0.010 C 
BRANCH  23  25
ATOM     24  N   UNL     1      36.680 -21.655 -18.377  0.00  0.00    -0.244 NA
ATOM     25  C   UNL     1      35.011 -20.874 -19.843  0.00  0.00    -0.004 C 
ATOM     26  C   UNL     1      34.427 -21.577 -18.865  0.00  0.00    +0.011 C 
ATOM     27  C   UNL     1      35.444 -22.063 -17.955  0.00  0.00    +0.080 C 
ATOM     28  C   UNL     1      36.427 -20.977 -19.455  0.00  0.00    +0.094 C 
ATOM     29  C   UNL     1      33.029 -21.858 -18.661  0.00  0.00    -0.020 C 
ATOM     30  C   UNL     1      35.115 -22.799 -16.886  0.00  0.00    +0.015 C 
ATOM     31  C   UNL     1      33.669 -23.147 -16.591  0.00  0.00    -0.020 C 
ATOM     32  C   UNL     1      32.672 -22.595 -17.594  0.00  0.00    +0.052 C 
ENDBRANCH  23  25
ENDBRANCH  18  23
ENDBRANCH  17  18
ENDBRANCH   1  17
TORSDOF 7
ENDMDL
