MODEL 1
REMARK VINA RESULT:     -11.5      0.000      0.000
REMARK  Name = 23729147
REMARK  5 active torsions:
REMARK  status: ('A' for Active; 'I' for Inactive)
REMARK    1  A    between atoms: O_1  and  C_6
REMARK    2  A    between atoms: O_1  and  C_18
REMARK    3  A    between atoms: C_18  and  C_20
REMARK    4  A    between atoms: N_19  and  C_26
REMARK    5  A    between atoms: C_26  and  C_28
REMARK                            x       y       z     vdW  Elec       q    Type
REMARK                         _______ _______ _______ _____ _____    ______ ____
ROOT
ATOM      1  O   UNL     1      35.272 -21.901 -18.629  0.00  0.00    -0.479 OA
ENDROOT
BRANCH   1   6
ATOM      2  N   UNL     1      32.852 -23.584 -14.782  0.00  0.00    -0.332 NA
ATOM      3  N   UNL     1      31.609 -23.082 -16.785  0.00  0.00    -0.317 NA
ATOM      4  N   UNL     1      32.667 -22.267 -18.698  0.00  0.00    -0.335 N 
ATOM      5  N   UNL     1      30.530 -23.899 -14.873  0.00  0.00    -0.283 N 
ATOM      6  C   UNL     1      35.201 -22.358 -17.335  0.00  0.00    +0.130 C 
ATOM      7  C   UNL     1      34.003 -22.749 -16.714  0.00  0.00    +0.177 C 
ATOM      8  C   UNL     1      36.401 -22.420 -16.634  0.00  0.00    +0.033 C 
ATOM      9  C   UNL     1      33.993 -23.206 -15.386  0.00  0.00    +0.137 C 
ATOM     10  C   UNL     1      32.769 -22.712 -17.360  0.00  0.00    +0.181 C 
ATOM     11  C   UNL     1      36.404 -22.870 -15.319  0.00  0.00    +0.005 C 
ATOM     12  C   UNL     1      35.208 -23.259 -14.708  0.00  0.00    +0.030 C 
ATOM     13  C   UNL     1      31.722 -23.501 -15.515  0.00  0.00    +0.197 C 
ATOM     14  H   UNL     1      31.789 -22.245 -19.144  0.00  0.00    +0.144 HD
ATOM     15  H   UNL     1      33.473 -21.980 -19.185  0.00  0.00    +0.144 HD
ATOM     16  H   UNL     1      30.553 -24.215 -13.942  0.00  0.00    +0.156 HD
ATOM     17  H   UNL     1      29.674 -23.861 -15.359  0.00  0.00    +0.156 HD
ENDBRANCH   1   6
BRANCH   1  18
ATOM     18  C   UNL     1      36.408 -21.133 -18.978  0.00  0.00    +0.205 C 
BRANCH  18  20
ATOM     19  N   UNL     1      35.297 -18.220 -21.969  0.00  0.00    +0.390 N 
ATOM     20  C   UNL     1      36.165 -20.503 -20.348  0.00  0.00    +0.040 C 
ATOM     21  C   UNL     1      37.032 -19.255 -20.542  0.00  0.00    -0.019 C 
ATOM     22  C   UNL     1      34.688 -20.141 -20.533  0.00  0.00    -0.019 C 
ATOM     23  C   UNL     1      36.723 -18.562 -21.870  0.00  0.00    -0.077 C 
ATOM     24  C   UNL     1      34.455 -19.418 -21.862  0.00  0.00    -0.077 C 
ATOM     25  H   UNL     1      35.067 -17.604 -21.189  0.00  0.00    -0.079 HD
BRANCH  19  26
ATOM     26  C   UNL     1      35.026 -17.513 -23.220  0.00  0.00    -0.048 C 
BRANCH  26  28
ATOM     27  F   UNL     1      34.100 -15.806 -25.286  0.00  0.00    -0.205 F 
ATOM     28  C   UNL     1      34.582 -16.095 -22.978  0.00  0.00    -0.016 C 
ATOM     29  C   UNL     1      34.137 -15.309 -24.042  0.00  0.00    +0.134 C 
ATOM     30  C   UNL     1      34.617 -15.567 -21.689  0.00  0.00    -0.004 C 
ATOM     31  C   UNL     1      33.728 -13.994 -23.814  0.00  0.00    +0.029 C 
ATOM     32  C   UNL     1      34.207 -14.254 -21.460  0.00  0.00    -0.000 C 
ATOM     33  C   UNL     1      33.763 -13.467 -22.523  0.00  0.00    +0.002 C 
ENDBRANCH  26  28
ENDBRANCH  19  26
ENDBRANCH  18  20
ENDBRANCH   1  18
TORSDOF 5
ENDMDL
MODEL 2
REMARK VINA RESULT:     -11.5      2.298      3.747
REMARK  Name = 23729147
REMARK  5 active torsions:
REMARK  status: ('A' for Active; 'I' for Inactive)
REMARK    1  A    between atoms: O_1  and  C_6
REMARK    2  A    between atoms: O_1  and  C_18
REMARK    3  A    between atoms: C_18  and  C_20
REMARK    4  A    between atoms: N_19  and  C_26
REMARK    5  A    between atoms: C_26  and  C_28
REMARK                            x       y       z     vdW  Elec       q    Type
REMARK                         _______ _______ _______ _____ _____    ______ ____
ROOT
ATOM      1  O   UNL     1      34.287 -23.282 -17.048  0.00  0.00    -0.479 OA
ENDROOT
BRANCH   1   6
ATOM      2  N   UNL     1      33.566 -24.178 -12.340  0.00  0.00    -0.332 NA
ATOM      3  N   UNL     1      35.826 -24.204 -13.177  0.00  0.00    -0.317 NA
ATOM      4  N   UNL     1      36.294 -23.788 -15.423  0.00  0.00    -0.335 N 
ATOM      5  N   UNL     1      35.375 -24.625 -10.916  0.00  0.00    -0.283 N 
ATOM      6  C   UNL     1      33.484 -23.436 -15.943  0.00  0.00    +0.130 C 
ATOM      7  C   UNL     1      33.976 -23.740 -14.662  0.00  0.00    +0.177 C 
ATOM      8  C   UNL     1      32.117 -23.275 -16.143  0.00  0.00    +0.033 C 
ATOM      9  C   UNL     1      33.106 -23.887 -13.570  0.00  0.00    +0.137 C 
ATOM     10  C   UNL     1      35.332 -23.913 -14.394  0.00  0.00    +0.181 C 
ATOM     11  C   UNL     1      31.246 -23.418 -15.069  0.00  0.00    +0.005 C 
ATOM     12  C   UNL     1      31.743 -23.720 -13.798  0.00  0.00    +0.030 C 
ATOM     13  C   UNL     1      34.901 -24.320 -12.210  0.00  0.00    +0.197 C 
ATOM     14  H   UNL     1      37.250 -23.912 -15.221  0.00  0.00    +0.144 HD
ATOM     15  H   UNL     1      36.009 -23.575 -16.341  0.00  0.00    +0.144 HD
ATOM     16  H   UNL     1      34.742 -24.722 -10.169  0.00  0.00    +0.156 HD
ATOM     17  H   UNL     1      36.341 -24.740 -10.761  0.00  0.00    +0.156 HD
ENDBRANCH   1   6
BRANCH   1  18
ATOM     18  C   UNL     1      33.647 -22.943 -18.264  0.00  0.00    +0.205 C 
BRANCH  18  20
ATOM     19  N   UNL     1      35.338 -20.014 -20.952  0.00  0.00    +0.390 N 
ATOM     20  C   UNL     1      34.229 -21.625 -18.767  0.00  0.00    +0.040 C 
ATOM     21  C   UNL     1      33.354 -21.021 -19.870  0.00  0.00    -0.019 C 
ATOM     22  C   UNL     1      35.657 -21.816 -19.287  0.00  0.00    -0.019 C 
ATOM     23  C   UNL     1      33.982 -19.752 -20.449  0.00  0.00    -0.077 C 
ATOM     24  C   UNL     1      36.211 -20.520 -19.885  0.00  0.00    -0.077 C 
ATOM     25  H   UNL     1      35.272 -20.734 -21.672  0.00  0.00    -0.079 HD
BRANCH  19  26
ATOM     26  C   UNL     1      35.905 -18.805 -21.547  0.00  0.00    -0.048 C 
BRANCH  26  28
ATOM     27  F   UNL     1      35.484 -16.066 -22.146  0.00  0.00    -0.205 F 
ATOM     28  C   UNL     1      35.104 -18.335 -22.733  0.00  0.00    -0.016 C 
ATOM     29  C   UNL     1      34.936 -16.970 -22.968  0.00  0.00    +0.134 C 
ATOM     30  C   UNL     1      34.529 -19.268 -23.595  0.00  0.00    -0.004 C 
ATOM     31  C   UNL     1      34.192 -16.539 -24.068  0.00  0.00    +0.029 C 
ATOM     32  C   UNL     1      33.785 -18.837 -24.694  0.00  0.00    -0.000 C 
ATOM     33  C   UNL     1      33.616 -17.472 -24.930  0.00  0.00    +0.002 C 
ENDBRANCH  26  28
ENDBRANCH  19  26
ENDBRANCH  18  20
ENDBRANCH   1  18
TORSDOF 5
ENDMDL
MODEL 3
REMARK VINA RESULT:     -11.4      2.284      3.437
REMARK  Name = 23729147
REMARK  5 active torsions:
REMARK  status: ('A' for Active; 'I' for Inactive)
REMARK    1  A    between atoms: O_1  and  C_6
REMARK    2  A    between atoms: O_1  and  C_18
REMARK    3  A    between atoms: C_18  and  C_20
REMARK    4  A    between atoms: N_19  and  C_26
REMARK    5  A    between atoms: C_26  and  C_28
REMARK                            x       y       z     vdW  Elec       q    Type
REMARK                         _______ _______ _______ _____ _____    ______ ____
ROOT
ATOM      1  O   UNL     1      34.761 -22.778 -17.069  0.00  0.00    -0.479 OA
ENDROOT
BRANCH   1   6
ATOM      2  N   UNL     1      35.863 -24.101 -12.539  0.00  0.00    -0.332 NA
ATOM      3  N   UNL     1      37.657 -23.444 -14.007  0.00  0.00    -0.317 NA
ATOM      4  N   UNL     1      37.247 -22.787 -16.208  0.00  0.00    -0.335 N 
ATOM      5  N   UNL     1      38.088 -24.100 -11.800  0.00  0.00    -0.283 N 
ATOM      6  C   UNL     1      34.427 -23.212 -15.809  0.00  0.00    +0.130 C 
ATOM      7  C   UNL     1      35.370 -23.437 -14.791  0.00  0.00    +0.177 C 
ATOM      8  C   UNL     1      33.075 -23.432 -15.566  0.00  0.00    +0.033 C 
ATOM      9  C   UNL     1      34.969 -23.884 -13.521  0.00  0.00    +0.137 C 
ATOM     10  C   UNL     1      36.736 -23.235 -14.967  0.00  0.00    +0.181 C 
ATOM     11  C   UNL     1      32.667 -23.875 -14.314  0.00  0.00    +0.005 C 
ATOM     12  C   UNL     1      33.610 -24.095 -13.306  0.00  0.00    +0.030 C 
ATOM     13  C   UNL     1      37.158 -23.869 -12.836  0.00  0.00    +0.197 C 
ATOM     14  H   UNL     1      38.215 -22.649 -16.320  0.00  0.00    +0.144 HD
ATOM     15  H   UNL     1      36.635 -22.613 -16.959  0.00  0.00    +0.144 HD
ATOM     16  H   UNL     1      37.779 -24.413 -10.920  0.00  0.00    +0.156 HD
ATOM     17  H   UNL     1      39.048 -23.947 -11.958  0.00  0.00    +0.156 HD
ENDBRANCH   1   6
BRANCH   1  18
ATOM     18  C   UNL     1      33.697 -22.576 -17.981  0.00  0.00    +0.205 C 
BRANCH  18  20
ATOM     19  N   UNL     1      35.188 -19.502 -20.625  0.00  0.00    +0.390 N 
ATOM     20  C   UNL     1      34.254 -21.909 -19.236  0.00  0.00    +0.040 C 
ATOM     21  C   UNL     1      35.626 -21.283 -18.965  0.00  0.00    -0.019 C 
ATOM     22  C   UNL     1      33.293 -20.840 -19.765  0.00  0.00    -0.019 C 
ATOM     23  C   UNL     1      36.146 -20.528 -20.190  0.00  0.00    -0.077 C 
ATOM     24  C   UNL     1      33.889 -20.099 -20.964  0.00  0.00    -0.077 C 
ATOM     25  H   UNL     1      35.044 -18.857 -19.849  0.00  0.00    -0.079 HD
BRANCH  19  26
ATOM     26  C   UNL     1      35.721 -18.755 -21.764  0.00  0.00    -0.048 C 
BRANCH  26  28
ATOM     27  F   UNL     1      35.252 -17.350 -24.181  0.00  0.00    -0.205 F 
ATOM     28  C   UNL     1      35.192 -17.346 -21.807  0.00  0.00    -0.016 C 
ATOM     29  C   UNL     1      34.984 -16.713 -23.033  0.00  0.00    +0.134 C 
ATOM     30  C   UNL     1      34.910 -16.674 -20.619  0.00  0.00    -0.004 C 
ATOM     31  C   UNL     1      34.495 -15.406 -23.069  0.00  0.00    +0.029 C 
ATOM     32  C   UNL     1      34.421 -15.368 -20.654  0.00  0.00    -0.000 C 
ATOM     33  C   UNL     1      34.214 -14.734 -21.880  0.00  0.00    +0.002 C 
ENDBRANCH  26  28
ENDBRANCH  19  26
ENDBRANCH  18  20
ENDBRANCH   1  18
TORSDOF 5
ENDMDL
MODEL 4
REMARK VINA RESULT:     -11.3      3.278      9.589
REMARK  Name = 23729147
REMARK  5 active torsions:
REMARK  status: ('A' for Active; 'I' for Inactive)
REMARK    1  A    between atoms: O_1  and  C_6
REMARK    2  A    between atoms: O_1  and  C_18
REMARK    3  A    between atoms: C_18  and  C_20
REMARK    4  A    between atoms: N_19  and  C_26
REMARK    5  A    between atoms: C_26  and  C_28
REMARK                            x       y       z     vdW  Elec       q    Type
REMARK                         _______ _______ _______ _____ _____    ______ ____
ROOT
ATOM      1  O   UNL     1      34.970 -17.794 -22.323  0.00  0.00    -0.479 OA
ENDROOT
BRANCH   1   6
ATOM      2  N   UNL     1      33.507 -13.630 -24.325  0.00  0.00    -0.332 NA
ATOM      3  N   UNL     1      33.770 -15.554 -25.751  0.00  0.00    -0.317 NA
ATOM      4  N   UNL     1      34.469 -17.610 -24.899  0.00  0.00    -0.335 N 
ATOM      5  N   UNL     1      33.068 -13.497 -26.624  0.00  0.00    -0.283 N 
ATOM      6  C   UNL     1      34.625 -16.465 -22.262  0.00  0.00    +0.130 C 
ATOM      7  C   UNL     1      34.229 -15.714 -23.383  0.00  0.00    +0.177 C 
ATOM      8  C   UNL     1      34.684 -15.865 -21.008  0.00  0.00    +0.033 C 
ATOM      9  C   UNL     1      33.889 -14.357 -23.259  0.00  0.00    +0.137 C 
ATOM     10  C   UNL     1      34.147 -16.253 -24.664  0.00  0.00    +0.181 C 
ATOM     11  C   UNL     1      34.351 -14.523 -20.874  0.00  0.00    +0.005 C 
ATOM     12  C   UNL     1      33.957 -13.783 -21.993  0.00  0.00    +0.030 C 
ATOM     13  C   UNL     1      33.469 -14.268 -25.512  0.00  0.00    +0.197 C 
ATOM     14  H   UNL     1      34.407 -17.980 -25.810  0.00  0.00    +0.144 HD
ATOM     15  H   UNL     1      34.753 -18.186 -24.153  0.00  0.00    +0.144 HD
ATOM     16  H   UNL     1      32.835 -12.548 -26.508  0.00  0.00    +0.156 HD
ATOM     17  H   UNL     1      33.020 -13.910 -27.517  0.00  0.00    +0.156 HD
ENDBRANCH   1   6
BRANCH   1  18
ATOM     18  C   UNL     1      35.755 -18.302 -21.260  0.00  0.00    +0.205 C 
BRANCH  18  20
ATOM     19  N   UNL     1      34.277 -21.690 -19.025  0.00  0.00    +0.390 N 
ATOM     20  C   UNL     1      35.287 -19.721 -20.948  0.00  0.00    +0.040 C 
ATOM     21  C   UNL     1      33.833 -19.728 -20.465  0.00  0.00    -0.019 C 
ATOM     22  C   UNL     1      36.185 -20.378 -19.895  0.00  0.00    -0.019 C 
ATOM     23  C   UNL     1      33.389 -21.134 -20.055  0.00  0.00    -0.077 C 
ATOM     24  C   UNL     1      35.663 -21.763 -19.504  0.00  0.00    -0.077 C 
ATOM     25  H   UNL     1      34.254 -21.066 -18.219  0.00  0.00    -0.079 HD
BRANCH  19  26
ATOM     26  C   UNL     1      33.810 -23.012 -18.608  0.00  0.00    -0.048 C 
BRANCH  26  28
ATOM     27  F   UNL     1      35.666 -23.082 -16.466  0.00  0.00    -0.205 F 
ATOM     28  C   UNL     1      33.395 -23.029 -17.160  0.00  0.00    -0.016 C 
ATOM     29  C   UNL     1      34.362 -23.064 -16.155  0.00  0.00    +0.134 C 
ATOM     30  C   UNL     1      32.042 -23.010 -16.826  0.00  0.00    -0.004 C 
ATOM     31  C   UNL     1      33.974 -23.080 -14.814  0.00  0.00    +0.029 C 
ATOM     32  C   UNL     1      31.654 -23.026 -15.486  0.00  0.00    -0.000 C 
ATOM     33  C   UNL     1      32.620 -23.061 -14.480  0.00  0.00    +0.002 C 
ENDBRANCH  26  28
ENDBRANCH  19  26
ENDBRANCH  18  20
ENDBRANCH   1  18
TORSDOF 5
ENDMDL
MODEL 5
REMARK VINA RESULT:     -11.2      4.778     10.515
REMARK  Name = 23729147
REMARK  5 active torsions:
REMARK  status: ('A' for Active; 'I' for Inactive)
REMARK    1  A    between atoms: O_1  and  C_6
REMARK    2  A    between atoms: O_1  and  C_18
REMARK    3  A    between atoms: C_18  and  C_20
REMARK    4  A    between atoms: N_19  and  C_26
REMARK    5  A    between atoms: C_26  and  C_28
REMARK                            x       y       z     vdW  Elec       q    Type
REMARK                         _______ _______ _______ _____ _____    ______ ____
ROOT
ATOM      1  O   UNL     1      34.167 -13.248 -23.013  0.00  0.00    -0.479 OA
ENDROOT
BRANCH   1   6
ATOM      2  N   UNL     1      31.647  -9.269 -21.871  0.00  0.00    -0.332 NA
ATOM      3  N   UNL     1      33.282  -9.121 -23.635  0.00  0.00    -0.317 NA
ATOM      4  N   UNL     1      34.554 -10.969 -24.271  0.00  0.00    -0.335 N 
ATOM      5  N   UNL     1      32.014  -7.252 -23.010  0.00  0.00    -0.283 N 
ATOM      6  C   UNL     1      33.222 -12.569 -22.282  0.00  0.00    +0.130 C 
ATOM      7  C   UNL     1      32.921 -11.210 -22.474  0.00  0.00    +0.177 C 
ATOM      8  C   UNL     1      32.550 -13.300 -21.307  0.00  0.00    +0.033 C 
ATOM      9  C   UNL     1      31.944 -10.569 -21.694  0.00  0.00    +0.137 C 
ATOM     10  C   UNL     1      33.555 -10.423 -23.432  0.00  0.00    +0.181 C 
ATOM     11  C   UNL     1      31.583 -12.676 -20.528  0.00  0.00    +0.005 C 
ATOM     12  C   UNL     1      31.287 -11.324 -20.727  0.00  0.00    +0.030 C 
ATOM     13  C   UNL     1      32.332  -8.616 -22.831  0.00  0.00    +0.197 C 
ATOM     14  H   UNL     1      34.995 -10.403 -24.944  0.00  0.00    +0.144 HD
ATOM     15  H   UNL     1      34.808 -11.917 -24.182  0.00  0.00    +0.144 HD
ATOM     16  H   UNL     1      31.325  -6.829 -22.449  0.00  0.00    +0.156 HD
ATOM     17  H   UNL     1      32.481  -6.724 -23.698  0.00  0.00    +0.156 HD
ENDBRANCH   1   6
BRANCH   1  18
ATOM     18  C   UNL     1      33.741 -14.419 -23.684  0.00  0.00    +0.205 C 
BRANCH  18  20
ATOM     19  N   UNL     1      34.948 -18.204 -21.990  0.00  0.00    +0.390 N 
ATOM     20  C   UNL     1      34.636 -15.578 -23.254  0.00  0.00    +0.040 C 
ATOM     21  C   UNL     1      34.224 -16.879 -23.949  0.00  0.00    -0.019 C 
ATOM     22  C   UNL     1      34.598 -15.768 -21.735  0.00  0.00    -0.019 C 
ATOM     23  C   UNL     1      35.052 -18.065 -23.449  0.00  0.00    -0.077 C 
ATOM     24  C   UNL     1      35.414 -16.990 -21.307  0.00  0.00    -0.077 C 
ATOM     25  H   UNL     1      33.965 -18.339 -21.756  0.00  0.00    -0.079 HD
BRANCH  19  26
ATOM     26  C   UNL     1      35.703 -19.371 -21.533  0.00  0.00    -0.048 C 
BRANCH  26  28
ATOM     27  F   UNL     1      36.878 -21.164 -19.678  0.00  0.00    -0.205 F 
ATOM     28  C   UNL     1      34.897 -20.227 -20.592  0.00  0.00    -0.016 C 
ATOM     29  C   UNL     1      35.541 -21.089 -19.704  0.00  0.00    +0.134 C 
ATOM     30  C   UNL     1      33.505 -20.157 -20.611  0.00  0.00    -0.004 C 
ATOM     31  C   UNL     1      34.790 -21.882 -18.835  0.00  0.00    +0.029 C 
ATOM     32  C   UNL     1      32.755 -20.948 -19.742  0.00  0.00    -0.000 C 
ATOM     33  C   UNL     1      33.397 -21.812 -18.854  0.00  0.00    +0.002 C 
ENDBRANCH  26  28
ENDBRANCH  19  26
ENDBRANCH  18  20
ENDBRANCH   1  18
TORSDOF 5
ENDMDL
MODEL 6
REMARK VINA RESULT:     -11.2      3.754      6.782
REMARK  Name = 23729147
REMARK  5 active torsions:
REMARK  status: ('A' for Active; 'I' for Inactive)
REMARK    1  A    between atoms: O_1  and  C_6
REMARK    2  A    between atoms: O_1  and  C_18
REMARK    3  A    between atoms: C_18  and  C_20
REMARK    4  A    between atoms: N_19  and  C_26
REMARK    5  A    between atoms: C_26  and  C_28
REMARK                            x       y       z     vdW  Elec       q    Type
REMARK                         _______ _______ _______ _____ _____    ______ ____
ROOT
ATOM      1  O   UNL     1      34.491 -25.048 -12.978  0.00  0.00    -0.479 OA
ENDROOT
BRANCH   1   6
ATOM      2  N   UNL     1      39.334 -25.096 -12.809  0.00  0.00    -0.332 NA
ATOM      3  N   UNL     1      38.228 -26.586 -14.346  0.00  0.00    -0.317 NA
ATOM      4  N   UNL     1      35.903 -26.651 -14.515  0.00  0.00    -0.335 N 
ATOM      5  N   UNL     1      40.566 -26.536 -14.191  0.00  0.00    -0.283 N 
ATOM      6  C   UNL     1      35.700 -24.613 -12.491  0.00  0.00    +0.130 C 
ATOM      7  C   UNL     1      36.938 -25.110 -12.931  0.00  0.00    +0.177 C 
ATOM      8  C   UNL     1      35.655 -23.627 -11.511  0.00  0.00    +0.033 C 
ATOM      9  C   UNL     1      38.143 -24.627 -12.395  0.00  0.00    +0.137 C 
ATOM     10  C   UNL     1      37.054 -26.095 -13.909  0.00  0.00    +0.181 C 
ATOM     11  C   UNL     1      36.840 -23.141 -10.972  0.00  0.00    +0.005 C 
ATOM     12  C   UNL     1      38.069 -23.640 -11.416  0.00  0.00    +0.030 C 
ATOM     13  C   UNL     1      39.312 -26.050 -13.762  0.00  0.00    +0.197 C 
ATOM     14  H   UNL     1      35.997 -27.347 -15.205  0.00  0.00    +0.144 HD
ATOM     15  H   UNL     1      35.007 -26.342 -14.247  0.00  0.00    +0.144 HD
ATOM     16  H   UNL     1      41.393 -26.179 -13.797  0.00  0.00    +0.156 HD
ATOM     17  H   UNL     1      40.612 -27.232 -14.886  0.00  0.00    +0.156 HD
ENDBRANCH   1   6
BRANCH   1  18
ATOM     18  C   UNL     1      33.497 -24.066 -13.200  0.00  0.00    +0.205 C 
BRANCH  18  20
ATOM     19  N   UNL     1      33.091 -22.474 -17.195  0.00  0.00    +0.390 N 
ATOM     20  C   UNL     1      33.202 -24.003 -14.696  0.00  0.00    +0.040 C 
ATOM     21  C   UNL     1      34.458 -23.633 -15.491  0.00  0.00    -0.019 C 
ATOM     22  C   UNL     1      32.086 -22.997 -14.995  0.00  0.00    -0.019 C 
ATOM     23  C   UNL     1      34.148 -23.470 -16.980  0.00  0.00    -0.077 C 
ATOM     24  C   UNL     1      31.853 -22.855 -16.502  0.00  0.00    -0.077 C 
ATOM     25  H   UNL     1      33.409 -21.587 -16.804  0.00  0.00    -0.079 HD
BRANCH  19  26
ATOM     26  C   UNL     1      32.842 -22.293 -18.625  0.00  0.00    -0.048 C 
BRANCH  26  28
ATOM     27  F   UNL     1      32.315 -20.341 -20.612  0.00  0.00    -0.205 F 
ATOM     28  C   UNL     1      33.922 -21.476 -19.283  0.00  0.00    -0.016 C 
ATOM     29  C   UNL     1      33.592 -20.531 -20.255  0.00  0.00    +0.134 C 
ATOM     30  C   UNL     1      35.254 -21.666 -18.919  0.00  0.00    -0.004 C 
ATOM     31  C   UNL     1      34.596 -19.777 -20.864  0.00  0.00    +0.029 C 
ATOM     32  C   UNL     1      36.258 -20.912 -19.527  0.00  0.00    -0.000 C 
ATOM     33  C   UNL     1      35.929 -19.968 -20.499  0.00  0.00    +0.002 C 
ENDBRANCH  26  28
ENDBRANCH  19  26
ENDBRANCH  18  20
ENDBRANCH   1  18
TORSDOF 5
ENDMDL
MODEL 7
REMARK VINA RESULT:     -11.2      1.746      2.711
REMARK  Name = 23729147
REMARK  5 active torsions:
REMARK  status: ('A' for Active; 'I' for Inactive)
REMARK    1  A    between atoms: O_1  and  C_6
REMARK    2  A    between atoms: O_1  and  C_18
REMARK    3  A    between atoms: C_18  and  C_20
REMARK    4  A    between atoms: N_19  and  C_26
REMARK    5  A    between atoms: C_26  and  C_28
REMARK                            x       y       z     vdW  Elec       q    Type
REMARK                         _______ _______ _______ _____ _____    ______ ____
ROOT
ATOM      1  O   UNL     1      32.810 -22.418 -17.502  0.00  0.00    -0.479 OA
ENDROOT
BRANCH   1   6
ATOM      2  N   UNL     1      32.263 -24.517 -13.168  0.00  0.00    -0.332 NA
ATOM      3  N   UNL     1      30.285 -23.877 -14.387  0.00  0.00    -0.317 NA
ATOM      4  N   UNL     1      30.425 -22.860 -16.482  0.00  0.00    -0.335 N 
ATOM      5  N   UNL     1      30.124 -24.897 -12.284  0.00  0.00    -0.283 N 
ATOM      6  C   UNL     1      33.299 -22.991 -16.353  0.00  0.00    +0.130 C 
ATOM      7  C   UNL     1      32.480 -23.475 -15.318  0.00  0.00    +0.177 C 
ATOM      8  C   UNL     1      34.683 -23.078 -16.243  0.00  0.00    +0.033 C 
ATOM      9  C   UNL     1      33.037 -24.050 -14.164  0.00  0.00    +0.137 C 
ATOM     10  C   UNL     1      31.089 -23.419 -15.365  0.00  0.00    +0.181 C 
ATOM     11  C   UNL     1      35.246 -23.644 -15.105  0.00  0.00    +0.005 C 
ATOM     12  C   UNL     1      34.425 -24.124 -14.081  0.00  0.00    +0.030 C 
ATOM     13  C   UNL     1      30.929 -24.405 -13.334  0.00  0.00    +0.197 C 
ATOM     14  H   UNL     1      29.442 -22.826 -16.504  0.00  0.00    +0.144 HD
ATOM     15  H   UNL     1      30.947 -22.504 -17.238  0.00  0.00    +0.144 HD
ATOM     16  H   UNL     1      30.543 -25.295 -11.488  0.00  0.00    +0.156 HD
ATOM     17  H   UNL     1      29.143 -24.843 -12.350  0.00  0.00    +0.156 HD
ENDBRANCH   1   6
BRANCH   1  18
ATOM     18  C   UNL     1      33.526 -22.666 -18.698  0.00  0.00    +0.205 C 
BRANCH  18  20
ATOM     19  N   UNL     1      35.474 -19.756 -21.227  0.00  0.00    +0.390 N 
ATOM     20  C   UNL     1      34.203 -21.370 -19.135  0.00  0.00    +0.040 C 
ATOM     21  C   UNL     1      33.400 -20.673 -20.238  0.00  0.00    -0.019 C 
ATOM     22  C   UNL     1      35.632 -21.633 -19.622  0.00  0.00    -0.019 C 
ATOM     23  C   UNL     1      34.123 -19.427 -20.751  0.00  0.00    -0.077 C 
ATOM     24  C   UNL     1      36.282 -20.354 -20.156  0.00  0.00    -0.077 C 
ATOM     25  H   UNL     1      35.385 -20.443 -21.975  0.00  0.00    -0.079 HD
BRANCH  19  26
ATOM     26  C   UNL     1      36.132 -18.564 -21.761  0.00  0.00    -0.048 C 
BRANCH  26  28
ATOM     27  F   UNL     1      34.821 -19.933 -23.869  0.00  0.00    -0.205 F 
ATOM     28  C   UNL     1      35.282 -17.868 -22.791  0.00  0.00    -0.016 C 
ATOM     29  C   UNL     1      34.665 -18.604 -23.803  0.00  0.00    +0.134 C 
ATOM     30  C   UNL     1      35.113 -16.485 -22.732  0.00  0.00    -0.004 C 
ATOM     31  C   UNL     1      33.879 -17.955 -24.756  0.00  0.00    +0.029 C 
ATOM     32  C   UNL     1      34.327 -15.837 -23.684  0.00  0.00    -0.000 C 
ATOM     33  C   UNL     1      33.710 -16.572 -24.697  0.00  0.00    +0.002 C 
ENDBRANCH  26  28
ENDBRANCH  19  26
ENDBRANCH  18  20
ENDBRANCH   1  18
TORSDOF 5
ENDMDL
MODEL 8
REMARK VINA RESULT:     -11.0      2.297      3.976
REMARK  Name = 23729147
REMARK  5 active torsions:
REMARK  status: ('A' for Active; 'I' for Inactive)
REMARK    1  A    between atoms: O_1  and  C_6
REMARK    2  A    between atoms: O_1  and  C_18
REMARK    3  A    between atoms: C_18  and  C_20
REMARK    4  A    between atoms: N_19  and  C_26
REMARK    5  A    between atoms: C_26  and  C_28
REMARK                            x       y       z     vdW  Elec       q    Type
REMARK                         _______ _______ _______ _____ _____    ______ ____
ROOT
ATOM      1  O   UNL     1      34.309 -19.289 -21.618  0.00  0.00    -0.479 OA
ENDROOT
BRANCH   1   6
ATOM      2  N   UNL     1      34.839 -22.426 -17.962  0.00  0.00    -0.332 NA
ATOM      3  N   UNL     1      32.618 -22.009 -18.798  0.00  0.00    -0.317 NA
ATOM      4  N   UNL     1      32.241 -20.520 -20.554  0.00  0.00    -0.335 N 
ATOM      5  N   UNL     1      32.977 -23.508 -17.034  0.00  0.00    -0.283 N 
ATOM      6  C   UNL     1      35.066 -19.984 -20.706  0.00  0.00    +0.130 C 
ATOM      7  C   UNL     1      34.523 -20.882 -19.771  0.00  0.00    +0.177 C 
ATOM      8  C   UNL     1      36.439 -19.759 -20.739  0.00  0.00    +0.033 C 
ATOM      9  C   UNL     1      35.348 -21.564 -18.860  0.00  0.00    +0.137 C 
ATOM     10  C   UNL     1      33.160 -21.153 -19.685  0.00  0.00    +0.181 C 
ATOM     11  C   UNL     1      37.265 -20.427 -19.843  0.00  0.00    +0.005 C 
ATOM     12  C   UNL     1      36.717 -21.320 -18.916  0.00  0.00    +0.030 C 
ATOM     13  C   UNL     1      33.502 -22.601 -17.980  0.00  0.00    +0.197 C 
ATOM     14  H   UNL     1      31.280 -20.720 -20.484  0.00  0.00    +0.144 HD
ATOM     15  H   UNL     1      32.563 -19.881 -21.231  0.00  0.00    +0.144 HD
ATOM     16  H   UNL     1      33.579 -23.971 -16.408  0.00  0.00    +0.156 HD
ATOM     17  H   UNL     1      32.007 -23.677 -17.000  0.00  0.00    +0.156 HD
ENDBRANCH   1   6
BRANCH   1  18
ATOM     18  C   UNL     1      34.808 -19.213 -22.940  0.00  0.00    +0.205 C 
BRANCH  18  20
ATOM     19  N   UNL     1      33.810 -15.032 -23.373  0.00  0.00    +0.390 N 
ATOM     20  C   UNL     1      34.930 -17.741 -23.328  0.00  0.00    +0.040 C 
ATOM     21  C   UNL     1      34.904 -16.841 -22.089  0.00  0.00    -0.019 C 
ATOM     22  C   UNL     1      33.809 -17.331 -24.289  0.00  0.00    -0.019 C 
ATOM     23  C   UNL     1      34.925 -15.360 -22.475  0.00  0.00    -0.077 C 
ATOM     24  C   UNL     1      33.866 -15.834 -24.603  0.00  0.00    -0.077 C 
ATOM     25  H   UNL     1      32.941 -15.257 -22.891  0.00  0.00    -0.079 HD
BRANCH  19  26
ATOM     26  C   UNL     1      33.814 -13.604 -23.692  0.00  0.00    -0.048 C 
BRANCH  26  28
ATOM     27  F   UNL     1      33.413 -10.807 -23.911  0.00  0.00    -0.205 F 
ATOM     28  C   UNL     1      33.050 -12.801 -22.674  0.00  0.00    -0.016 C 
ATOM     29  C   UNL     1      32.891 -11.425 -22.843  0.00  0.00    +0.134 C 
ATOM     30  C   UNL     1      32.503 -13.434 -21.559  0.00  0.00    -0.004 C 
ATOM     31  C   UNL     1      32.183 -10.683 -21.896  0.00  0.00    +0.029 C 
ATOM     32  C   UNL     1      31.795 -12.693 -20.613  0.00  0.00    -0.000 C 
ATOM     33  C   UNL     1      31.635 -11.317 -20.781  0.00  0.00    +0.002 C 
ENDBRANCH  26  28
ENDBRANCH  19  26
ENDBRANCH  18  20
ENDBRANCH   1  18
TORSDOF 5
ENDMDL
MODEL 9
REMARK VINA RESULT:     -10.8      4.524     10.410
REMARK  Name = 23729147
REMARK  5 active torsions:
REMARK  status: ('A' for Active; 'I' for Inactive)
REMARK    1  A    between atoms: O_1  and  C_6
REMARK    2  A    between atoms: O_1  and  C_18
REMARK    3  A    between atoms: C_18  and  C_20
REMARK    4  A    between atoms: N_19  and  C_26
REMARK    5  A    between atoms: C_26  and  C_28
REMARK                            x       y       z     vdW  Elec       q    Type
REMARK                         _______ _______ _______ _____ _____    ______ ____
ROOT
ATOM      1  O   UNL     1      33.078 -13.796 -23.320  0.00  0.00    -0.479 OA
ENDROOT
BRANCH   1   6
ATOM      2  N   UNL     1      32.816  -9.106 -22.129  0.00  0.00    -0.332 NA
ATOM      3  N   UNL     1      31.635 -10.701 -20.761  0.00  0.00    -0.317 NA
ATOM      4  N   UNL     1      31.689 -12.984 -21.238  0.00  0.00    -0.335 N 
ATOM      5  N   UNL     1      31.569  -8.412 -20.267  0.00  0.00    -0.283 N 
ATOM      6  C   UNL     1      33.383 -12.469 -23.509  0.00  0.00    +0.130 C 
ATOM      7  C   UNL     1      32.914 -11.439 -22.676  0.00  0.00    +0.177 C 
ATOM      8  C   UNL     1      34.200 -12.169 -24.595  0.00  0.00    +0.033 C 
ATOM      9  C   UNL     1      33.258 -10.100 -22.920  0.00  0.00    +0.137 C 
ATOM     10  C   UNL     1      32.095 -11.671 -21.573  0.00  0.00    +0.181 C 
ATOM     11  C   UNL     1      34.546 -10.847 -24.847  0.00  0.00    +0.005 C 
ATOM     12  C   UNL     1      34.076  -9.828 -24.013  0.00  0.00    +0.030 C 
ATOM     13  C   UNL     1      32.029  -9.461 -21.093  0.00  0.00    +0.197 C 
ATOM     14  H   UNL     1      31.110 -13.135 -20.456  0.00  0.00    +0.144 HD
ATOM     15  H   UNL     1      31.986 -13.747 -21.785  0.00  0.00    +0.144 HD
ATOM     16  H   UNL     1      31.826  -7.483 -20.462  0.00  0.00    +0.156 HD
ATOM     17  H   UNL     1      30.991  -8.611 -19.494  0.00  0.00    +0.156 HD
ENDBRANCH   1   6
BRANCH   1  18
ATOM     18  C   UNL     1      33.463 -14.695 -24.343  0.00  0.00    +0.205 C 
BRANCH  18  20
ATOM     19  N   UNL     1      34.918 -18.058 -22.056  0.00  0.00    +0.390 N 
ATOM     20  C   UNL     1      34.430 -15.717 -23.752  0.00  0.00    +0.040 C 
ATOM     21  C   UNL     1      34.063 -17.140 -24.188  0.00  0.00    -0.019 C 
ATOM     22  C   UNL     1      34.452 -15.634 -22.223  0.00  0.00    -0.019 C 
ATOM     23  C   UNL     1      34.967 -18.178 -23.520  0.00  0.00    -0.077 C 
ATOM     24  C   UNL     1      35.344 -16.722 -21.619  0.00  0.00    -0.077 C 
ATOM     25  H   UNL     1      33.951 -18.193 -21.762  0.00  0.00    -0.079 HD
BRANCH  19  26
ATOM     26  C   UNL     1      35.747 -19.090 -21.432  0.00  0.00    -0.048 C 
BRANCH  26  28
ATOM     27  F   UNL     1      36.894 -21.028 -19.711  0.00  0.00    -0.205 F 
ATOM     28  C   UNL     1      34.927 -20.039 -20.598  0.00  0.00    -0.016 C 
ATOM     29  C   UNL     1      35.557 -20.969 -19.772  0.00  0.00    +0.134 C 
ATOM     30  C   UNL     1      33.535 -19.986 -20.655  0.00  0.00    -0.004 C 
ATOM     31  C   UNL     1      34.794 -21.848 -19.002  0.00  0.00    +0.029 C 
ATOM     32  C   UNL     1      32.771 -20.864 -19.886  0.00  0.00    -0.000 C 
ATOM     33  C   UNL     1      33.401 -21.796 -19.060  0.00  0.00    +0.002 C 
ENDBRANCH  26  28
ENDBRANCH  19  26
ENDBRANCH  18  20
ENDBRANCH   1  18
TORSDOF 5
ENDMDL
