MODEL 1
REMARK VINA RESULT:     -11.1      0.000      0.000
REMARK  Name = 25195365
REMARK  5 active torsions:
REMARK  status: ('A' for Active; 'I' for Inactive)
REMARK    1  A    between atoms: C_1  and  C_3
REMARK    2  A    between atoms: C_1  and  C_17
REMARK    3  A    between atoms: C_4  and  C_9
REMARK    4  A    between atoms: C_6  and  O_15
REMARK    5  A    between atoms: C_18  and  C_23
REMARK                            x       y       z     vdW  Elec       q    Type
REMARK                         _______ _______ _______ _____ _____    ______ ____
ROOT
ATOM      1  C   UNL     1      32.868 -23.204 -17.277  0.00  0.00    +0.086 C 
ATOM      2  C   UNL     1      31.479 -22.883 -16.694  0.00  0.00    +0.019 C 
ENDROOT
BRANCH   1   3
ATOM      3  C   UNL     1      33.302 -22.221 -18.312  0.00  0.00    -0.007 C 
ATOM      4  C   UNL     1      34.112 -20.384 -20.247  0.00  0.00    +0.034 C 
ATOM      5  C   UNL     1      34.657 -22.071 -18.607  0.00  0.00    +0.034 C 
ATOM      6  C   UNL     1      35.063 -21.152 -19.575  0.00  0.00    +0.138 C 
ATOM      7  C   UNL     1      32.353 -21.452 -18.984  0.00  0.00    -0.003 C 
ATOM      8  C   UNL     1      32.757 -20.534 -19.952  0.00  0.00    +0.003 C 
BRANCH   4   9
ATOM      9  C   UNL     1      34.511 -19.424 -21.254  0.00  0.00    +0.003 C 
ATOM     10  C   UNL     1      34.193 -19.645 -22.594  0.00  0.00    +0.000 C 
ATOM     11  C   UNL     1      35.214 -18.276 -20.885  0.00  0.00    +0.000 C 
ATOM     12  C   UNL     1      34.577 -18.720 -23.564  0.00  0.00    +0.000 C 
ATOM     13  C   UNL     1      35.598 -17.351 -21.856  0.00  0.00    +0.000 C 
ATOM     14  C   UNL     1      35.279 -17.573 -23.195  0.00  0.00    +0.000 C 
ENDBRANCH   4   9
BRANCH   6  15
ATOM     15  O   UNL     1      36.393 -21.026 -19.844  0.00  0.00    -0.471 OA
ATOM     16  C   UNL     1      37.229 -20.573 -18.781  0.00  0.00    +0.252 C 
ENDBRANCH   6  15
ENDBRANCH   1   3
BRANCH   1  17
ATOM     17  C   UNL     1      33.853 -23.330 -16.172  0.00  0.00    -0.087 C 
ATOM     18  C   UNL     1      34.633 -23.438 -15.264  0.00  0.00    -0.076 C 
BRANCH  18  23
ATOM     19  N   UNL     1      37.762 -23.223 -13.280  0.00  0.00    -0.336 NA
ATOM     20  N   UNL     1      36.067 -24.295 -11.943  0.00  0.00    -0.317 NA
ATOM     21  N   UNL     1      33.895 -24.647 -12.809  0.00  0.00    -0.334 N 
ATOM     22  N   UNL     1      38.226 -23.939 -11.094  0.00  0.00    -0.283 N 
ATOM     23  C   UNL     1      35.557 -23.572 -14.181  0.00  0.00    +0.179 C 
ATOM     24  C   UNL     1      36.857 -23.119 -14.275  0.00  0.00    +0.120 C 
ATOM     25  C   UNL     1      35.215 -24.157 -12.979  0.00  0.00    +0.186 C 
ATOM     26  C   UNL     1      37.355 -22.465 -15.525  0.00  0.00    +0.064 C 
ATOM     27  C   UNL     1      37.306 -23.812 -12.158  0.00  0.00    +0.196 C 
ATOM     28  H   UNL     1      33.632 -25.068 -11.959  0.00  0.00    +0.144 HD
ATOM     29  H   UNL     1      33.242 -24.566 -13.542  0.00  0.00    +0.144 HD
ATOM     30  H   UNL     1      39.145 -23.604 -11.196  0.00  0.00    +0.156 HD
ATOM     31  H   UNL     1      37.947 -24.362 -10.250  0.00  0.00    +0.156 HD
ENDBRANCH  18  23
ENDBRANCH   1  17
TORSDOF 5
ENDMDL
MODEL 2
REMARK VINA RESULT:     -10.9      4.873      7.752
REMARK  Name = 25195365
REMARK  5 active torsions:
REMARK  status: ('A' for Active; 'I' for Inactive)
REMARK    1  A    between atoms: C_1  and  C_3
REMARK    2  A    between atoms: C_1  and  C_17
REMARK    3  A    between atoms: C_4  and  C_9
REMARK    4  A    between atoms: C_6  and  O_15
REMARK    5  A    between atoms: C_18  and  C_23
REMARK                            x       y       z     vdW  Elec       q    Type
REMARK                         _______ _______ _______ _____ _____    ______ ____
ROOT
ATOM      1  C   UNL     1      35.154 -17.884 -23.337  0.00  0.00    +0.086 C 
ATOM      2  C   UNL     1      34.678 -18.506 -24.664  0.00  0.00    +0.019 C 
ENDROOT
BRANCH   1   3
ATOM      3  C   UNL     1      34.599 -16.520 -23.106  0.00  0.00    -0.007 C 
ATOM      4  C   UNL     1      33.560 -13.968 -22.671  0.00  0.00    +0.034 C 
ATOM      5  C   UNL     1      33.947 -15.847 -24.139  0.00  0.00    +0.034 C 
ATOM      6  C   UNL     1      33.427 -14.570 -23.922  0.00  0.00    +0.138 C 
ATOM      7  C   UNL     1      34.732 -15.916 -21.856  0.00  0.00    -0.003 C 
ATOM      8  C   UNL     1      34.212 -14.640 -21.638  0.00  0.00    +0.003 C 
BRANCH   4   9
ATOM      9  C   UNL     1      33.029 -12.644 -22.425  0.00  0.00    +0.003 C 
ATOM     10  C   UNL     1      32.019 -12.462 -21.480  0.00  0.00    +0.000 C 
ATOM     11  C   UNL     1      33.528 -11.550 -23.132  0.00  0.00    +0.000 C 
ATOM     12  C   UNL     1      31.509 -11.186 -21.242  0.00  0.00    +0.000 C 
ATOM     13  C   UNL     1      33.016 -10.274 -22.894  0.00  0.00    +0.000 C 
ATOM     14  C   UNL     1      32.007 -10.093 -21.949  0.00  0.00    +0.000 C 
ENDBRANCH   4   9
BRANCH   6  15
ATOM     15  O   UNL     1      32.793 -13.937 -24.949  0.00  0.00    -0.471 OA
ATOM     16  C   UNL     1      33.416 -13.999 -26.231  0.00  0.00    +0.252 C 
ENDBRANCH   6  15
ENDBRANCH   1   3
BRANCH   1  17
ATOM     17  C   UNL     1      34.852 -18.813 -22.217  0.00  0.00    -0.087 C 
ATOM     18  C   UNL     1      34.611 -19.581 -21.326  0.00  0.00    -0.076 C 
BRANCH  18  23
ATOM     19  N   UNL     1      35.112 -21.938 -18.503  0.00  0.00    -0.336 NA
ATOM     20  N   UNL     1      32.750 -21.743 -18.942  0.00  0.00    -0.317 NA
ATOM     21  N   UNL     1      31.959 -20.336 -20.670  0.00  0.00    -0.334 N 
ATOM     22  N   UNL     1      33.547 -23.136 -17.228  0.00  0.00    -0.283 N 
ATOM     23  C   UNL     1      34.327 -20.501 -20.267  0.00  0.00    +0.179 C 
ATOM     24  C   UNL     1      35.332 -21.068 -19.510  0.00  0.00    +0.120 C 
ATOM     25  C   UNL     1      33.043 -20.879 -19.935  0.00  0.00    +0.186 C 
ATOM     26  C   UNL     1      36.768 -20.742 -19.769  0.00  0.00    +0.064 C 
ATOM     27  C   UNL     1      33.816 -22.227 -18.276  0.00  0.00    +0.196 C 
ATOM     28  H   UNL     1      31.035 -20.594 -20.448  0.00  0.00    +0.144 HD
ATOM     29  H   UNL     1      32.131 -19.702 -21.403  0.00  0.00    +0.144 HD
ATOM     30  H   UNL     1      34.288 -23.520 -16.709  0.00  0.00    +0.156 HD
ATOM     31  H   UNL     1      32.617 -23.383 -17.018  0.00  0.00    +0.156 HD
ENDBRANCH  18  23
ENDBRANCH   1  17
TORSDOF 5
ENDMDL
MODEL 3
REMARK VINA RESULT:     -10.9      0.583      1.860
REMARK  Name = 25195365
REMARK  5 active torsions:
REMARK  status: ('A' for Active; 'I' for Inactive)
REMARK    1  A    between atoms: C_1  and  C_3
REMARK    2  A    between atoms: C_1  and  C_17
REMARK    3  A    between atoms: C_4  and  C_9
REMARK    4  A    between atoms: C_6  and  O_15
REMARK    5  A    between atoms: C_18  and  C_23
REMARK                            x       y       z     vdW  Elec       q    Type
REMARK                         _______ _______ _______ _____ _____    ______ ____
ROOT
ATOM      1  C   UNL     1      32.946 -23.190 -17.346  0.00  0.00    +0.086 C 
ATOM      2  C   UNL     1      31.567 -22.870 -16.738  0.00  0.00    +0.019 C 
ENDROOT
BRANCH   1   3
ATOM      3  C   UNL     1      33.371 -22.195 -18.371  0.00  0.00    -0.007 C 
ATOM      4  C   UNL     1      34.165 -20.333 -20.291  0.00  0.00    +0.034 C 
ATOM      5  C   UNL     1      34.723 -22.047 -18.682  0.00  0.00    +0.034 C 
ATOM      6  C   UNL     1      35.120 -21.115 -19.642  0.00  0.00    +0.138 C 
ATOM      7  C   UNL     1      32.417 -21.412 -19.020  0.00  0.00    -0.003 C 
ATOM      8  C   UNL     1      32.813 -20.481 -19.980  0.00  0.00    +0.003 C 
BRANCH   4   9
ATOM      9  C   UNL     1      34.555 -19.360 -21.289  0.00  0.00    +0.003 C 
ATOM     10  C   UNL     1      35.011 -18.101 -20.895  0.00  0.00    +0.000 C 
ATOM     11  C   UNL     1      34.478 -19.681 -22.644  0.00  0.00    +0.000 C 
ATOM     12  C   UNL     1      35.388 -17.164 -21.857  0.00  0.00    +0.000 C 
ATOM     13  C   UNL     1      34.854 -18.743 -23.606  0.00  0.00    +0.000 C 
ATOM     14  C   UNL     1      35.309 -17.486 -23.212  0.00  0.00    +0.000 C 
ENDBRANCH   4   9
BRANCH   6  15
ATOM     15  O   UNL     1      36.448 -20.992 -19.927  0.00  0.00    -0.471 OA
ATOM     16  C   UNL     1      37.249 -20.281 -18.985  0.00  0.00    +0.252 C 
ENDBRANCH   6  15
ENDBRANCH   1   3
BRANCH   1  17
ATOM     17  C   UNL     1      33.946 -23.339 -16.257  0.00  0.00    -0.087 C 
ATOM     18  C   UNL     1      34.739 -23.451 -15.361  0.00  0.00    -0.076 C 
BRANCH  18  23
ATOM     19  N   UNL     1      36.130 -24.071 -11.977  0.00  0.00    -0.336 NA
ATOM     20  N   UNL     1      37.937 -23.501 -13.466  0.00  0.00    -0.317 NA
ATOM     21  N   UNL     1      37.514 -23.021 -15.743  0.00  0.00    -0.334 N 
ATOM     22  N   UNL     1      38.344 -23.981 -11.205  0.00  0.00    -0.283 N 
ATOM     23  C   UNL     1      35.678 -23.586 -14.291  0.00  0.00    +0.179 C 
ATOM     24  C   UNL     1      35.281 -23.933 -13.016  0.00  0.00    +0.120 C 
ATOM     25  C   UNL     1      37.032 -23.381 -14.458  0.00  0.00    +0.186 C 
ATOM     26  C   UNL     1      33.841 -24.182 -12.700  0.00  0.00    +0.064 C 
ATOM     27  C   UNL     1      37.425 -23.845 -12.269  0.00  0.00    +0.196 C 
ATOM     28  H   UNL     1      38.477 -22.870 -15.882  0.00  0.00    +0.144 HD
ATOM     29  H   UNL     1      36.885 -22.922 -16.494  0.00  0.00    +0.144 HD
ATOM     30  H   UNL     1      38.025 -24.230 -10.308  0.00  0.00    +0.156 HD
ATOM     31  H   UNL     1      39.304 -23.827 -11.361  0.00  0.00    +0.156 HD
ENDBRANCH  18  23
ENDBRANCH   1  17
TORSDOF 5
ENDMDL
MODEL 4
REMARK VINA RESULT:     -10.5      5.345      8.638
REMARK  Name = 25195365
REMARK  5 active torsions:
REMARK  status: ('A' for Active; 'I' for Inactive)
REMARK    1  A    between atoms: C_1  and  C_3
REMARK    2  A    between atoms: C_1  and  C_17
REMARK    3  A    between atoms: C_4  and  C_9
REMARK    4  A    between atoms: C_6  and  O_15
REMARK    5  A    between atoms: C_18  and  C_23
REMARK                            x       y       z     vdW  Elec       q    Type
REMARK                         _______ _______ _______ _____ _____    ______ ____
ROOT
ATOM      1  C   UNL     1      34.038 -17.181 -24.659  0.00  0.00    +0.086 C 
ATOM      2  C   UNL     1      32.699 -17.773 -25.136  0.00  0.00    +0.019 C 
ENDROOT
BRANCH   1   3
ATOM      3  C   UNL     1      33.957 -15.718 -24.380  0.00  0.00    -0.007 C 
ATOM      4  C   UNL     1      33.806 -12.982 -23.859  0.00  0.00    +0.034 C 
ATOM      5  C   UNL     1      34.294 -15.229 -23.118  0.00  0.00    +0.034 C 
ATOM      6  C   UNL     1      34.218 -13.860 -22.857  0.00  0.00    +0.138 C 
ATOM      7  C   UNL     1      33.545 -14.839 -25.381  0.00  0.00    -0.003 C 
ATOM      8  C   UNL     1      33.470 -13.471 -25.121  0.00  0.00    +0.003 C 
BRANCH   4   9
ATOM      9  C   UNL     1      33.719 -11.559 -23.610  0.00  0.00    +0.003 C 
ATOM     10  C   UNL     1      32.651 -11.043 -22.875  0.00  0.00    +0.000 C 
ATOM     11  C   UNL     1      34.704 -10.703 -24.103  0.00  0.00    +0.000 C 
ATOM     12  C   UNL     1      32.568  -9.672 -22.634  0.00  0.00    +0.000 C 
ATOM     13  C   UNL     1      34.620  -9.331 -23.862  0.00  0.00    +0.000 C 
ATOM     14  C   UNL     1      33.552  -8.817 -23.127  0.00  0.00    +0.000 C 
ENDBRANCH   4   9
BRANCH   6  15
ATOM     15  O   UNL     1      34.554 -13.409 -21.615  0.00  0.00    -0.471 OA
ATOM     16  C   UNL     1      34.104 -14.180 -20.503  0.00  0.00    +0.252 C 
ENDBRANCH   6  15
ENDBRANCH   1   3
BRANCH   1  17
ATOM     17  C   UNL     1      34.533 -17.951 -23.489  0.00  0.00    -0.087 C 
ATOM     18  C   UNL     1      34.911 -18.576 -22.535  0.00  0.00    -0.076 C 
BRANCH  18  23
ATOM     19  N   UNL     1      34.857 -20.791 -19.557  0.00  0.00    -0.336 NA
ATOM     20  N   UNL     1      37.118 -20.045 -19.929  0.00  0.00    -0.317 NA
ATOM     21  N   UNL     1      37.629 -18.603 -21.732  0.00  0.00    -0.334 N 
ATOM     22  N   UNL     1      36.599 -21.476 -18.142  0.00  0.00    -0.283 N 
ATOM     23  C   UNL     1      35.355 -19.323 -21.399  0.00  0.00    +0.179 C 
ATOM     24  C   UNL     1      34.483 -20.071 -20.635  0.00  0.00    +0.120 C 
ATOM     25  C   UNL     1      36.674 -19.348 -20.995  0.00  0.00    +0.186 C 
ATOM     26  C   UNL     1      33.026 -20.128 -20.966  0.00  0.00    +0.064 C 
ATOM     27  C   UNL     1      36.170 -20.734 -19.265  0.00  0.00    +0.196 C 
ATOM     28  H   UNL     1      38.575 -18.608 -21.459  0.00  0.00    +0.144 HD
ATOM     29  H   UNL     1      37.345 -18.081 -22.517  0.00  0.00    +0.144 HD
ATOM     30  H   UNL     1      35.948 -21.998 -17.620  0.00  0.00    +0.156 HD
ATOM     31  H   UNL     1      37.549 -21.471 -17.883  0.00  0.00    +0.156 HD
ENDBRANCH  18  23
ENDBRANCH   1  17
TORSDOF 5
ENDMDL
MODEL 5
REMARK VINA RESULT:     -10.5      4.757      8.732
REMARK  Name = 25195365
REMARK  5 active torsions:
REMARK  status: ('A' for Active; 'I' for Inactive)
REMARK    1  A    between atoms: C_1  and  C_3
REMARK    2  A    between atoms: C_1  and  C_17
REMARK    3  A    between atoms: C_4  and  C_9
REMARK    4  A    between atoms: C_6  and  O_15
REMARK    5  A    between atoms: C_18  and  C_23
REMARK                            x       y       z     vdW  Elec       q    Type
REMARK                         _______ _______ _______ _____ _____    ______ ____
ROOT
ATOM      1  C   UNL     1      36.290 -22.036 -17.749  0.00  0.00    +0.086 C 
ATOM      2  C   UNL     1      37.236 -21.303 -16.780  0.00  0.00    +0.019 C 
ENDROOT
BRANCH   1   3
ATOM      3  C   UNL     1      35.038 -22.509 -17.090  0.00  0.00    -0.007 C 
ATOM      4  C   UNL     1      32.696 -23.391 -15.858  0.00  0.00    +0.034 C 
ATOM      5  C   UNL     1      35.046 -22.841 -15.736  0.00  0.00    +0.034 C 
ATOM      6  C   UNL     1      33.874 -23.283 -15.119  0.00  0.00    +0.138 C 
ATOM      7  C   UNL     1      33.860 -22.618 -17.828  0.00  0.00    -0.003 C 
ATOM      8  C   UNL     1      32.689 -23.058 -17.213  0.00  0.00    +0.003 C 
BRANCH   4   9
ATOM      9  C   UNL     1      31.471 -23.848 -15.239  0.00  0.00    +0.003 C 
ATOM     10  C   UNL     1      30.266 -23.200 -15.515  0.00  0.00    +0.000 C 
ATOM     11  C   UNL     1      31.493 -24.936 -14.366  0.00  0.00    +0.000 C 
ATOM     12  C   UNL     1      29.085 -23.641 -14.919  0.00  0.00    +0.000 C 
ATOM     13  C   UNL     1      30.311 -25.376 -13.770  0.00  0.00    +0.000 C 
ATOM     14  C   UNL     1      29.108 -24.728 -14.046  0.00  0.00    +0.000 C 
ENDBRANCH   4   9
BRANCH   6  15
ATOM     15  O   UNL     1      33.910 -23.600 -13.794  0.00  0.00    -0.471 OA
ATOM     16  C   UNL     1      35.023 -24.368 -13.342  0.00  0.00    +0.252 C 
ENDBRANCH   6  15
ENDBRANCH   1   3
BRANCH   1  17
ATOM     17  C   UNL     1      36.015 -21.170 -18.925  0.00  0.00    -0.087 C 
ATOM     18  C   UNL     1      35.770 -20.469 -19.870  0.00  0.00    -0.076 C 
BRANCH  18  23
ATOM     19  N   UNL     1      33.874 -18.771 -22.571  0.00  0.00    -0.336 NA
ATOM     20  N   UNL     1      36.176 -18.067 -22.678  0.00  0.00    -0.317 NA
ATOM     21  N   UNL     1      37.763 -18.902 -21.135  0.00  0.00    -0.334 N 
ATOM     22  N   UNL     1      34.592 -17.245 -24.202  0.00  0.00    -0.283 N 
ATOM     23  C   UNL     1      35.473 -19.633 -20.991  0.00  0.00    +0.179 C 
ATOM     24  C   UNL     1      34.200 -19.546 -21.515  0.00  0.00    +0.120 C 
ATOM     25  C   UNL     1      36.430 -18.864 -21.619  0.00  0.00    +0.186 C 
ATOM     26  C   UNL     1      33.071 -20.330 -20.927  0.00  0.00    +0.064 C 
ATOM     27  C   UNL     1      34.896 -18.068 -23.095  0.00  0.00    +0.196 C 
ATOM     28  H   UNL     1      38.460 -18.360 -21.571  0.00  0.00    +0.144 HD
ATOM     29  H   UNL     1      37.990 -19.471 -20.365  0.00  0.00    +0.144 HD
ATOM     30  H   UNL     1      33.673 -17.208 -24.549  0.00  0.00    +0.156 HD
ATOM     31  H   UNL     1      35.301 -16.708 -24.626  0.00  0.00    +0.156 HD
ENDBRANCH  18  23
ENDBRANCH   1  17
TORSDOF 5
ENDMDL
MODEL 6
REMARK VINA RESULT:     -10.3      4.864      7.947
REMARK  Name = 25195365
REMARK  5 active torsions:
REMARK  status: ('A' for Active; 'I' for Inactive)
REMARK    1  A    between atoms: C_1  and  C_3
REMARK    2  A    between atoms: C_1  and  C_17
REMARK    3  A    between atoms: C_4  and  C_9
REMARK    4  A    between atoms: C_6  and  O_15
REMARK    5  A    between atoms: C_18  and  C_23
REMARK                            x       y       z     vdW  Elec       q    Type
REMARK                         _______ _______ _______ _____ _____    ______ ____
ROOT
ATOM      1  C   UNL     1      35.016 -17.738 -23.627  0.00  0.00    +0.086 C 
ATOM      2  C   UNL     1      34.283 -18.428 -24.793  0.00  0.00    +0.019 C 
ENDROOT
BRANCH   1   3
ATOM      3  C   UNL     1      34.485 -16.376 -23.335  0.00  0.00    -0.007 C 
ATOM      4  C   UNL     1      33.492 -13.827 -22.789  0.00  0.00    +0.034 C 
ATOM      5  C   UNL     1      33.822 -15.657 -24.331  0.00  0.00    +0.034 C 
ATOM      6  C   UNL     1      33.326 -14.382 -24.057  0.00  0.00    +0.138 C 
ATOM      7  C   UNL     1      34.652 -15.819 -22.067  0.00  0.00    -0.003 C 
ATOM      8  C   UNL     1      34.155 -14.545 -21.794  0.00  0.00    +0.003 C 
BRANCH   4   9
ATOM      9  C   UNL     1      32.986 -12.506 -22.484  0.00  0.00    +0.003 C 
ATOM     10  C   UNL     1      33.489 -11.393 -23.160  0.00  0.00    +0.000 C 
ATOM     11  C   UNL     1      31.996 -12.344 -21.515  0.00  0.00    +0.000 C 
ATOM     12  C   UNL     1      33.000 -10.120 -22.868  0.00  0.00    +0.000 C 
ATOM     13  C   UNL     1      31.508 -11.070 -21.223  0.00  0.00    +0.000 C 
ATOM     14  C   UNL     1      32.010  -9.959 -21.899  0.00  0.00    +0.000 C 
ENDBRANCH   4   9
BRANCH   6  15
ATOM     15  O   UNL     1      32.681 -13.703 -25.048  0.00  0.00    -0.471 OA
ATOM     16  C   UNL     1      33.381 -13.536 -26.279  0.00  0.00    +0.252 C 
ENDBRANCH   6  15
ENDBRANCH   1   3
BRANCH   1  17
ATOM     17  C   UNL     1      34.988 -18.621 -22.432  0.00  0.00    -0.087 C 
ATOM     18  C   UNL     1      34.961 -19.353 -21.479  0.00  0.00    -0.076 C 
BRANCH  18  23
ATOM     19  N   UNL     1      33.681 -21.630 -18.843  0.00  0.00    -0.336 NA
ATOM     20  N   UNL     1      36.063 -21.384 -18.567  0.00  0.00    -0.317 NA
ATOM     21  N   UNL     1      37.309 -20.012 -20.036  0.00  0.00    -0.334 N 
ATOM     22  N   UNL     1      34.815 -22.744 -17.116  0.00  0.00    -0.283 N 
ATOM     23  C   UNL     1      34.931 -20.229 -20.349  0.00  0.00    +0.179 C 
ATOM     24  C   UNL     1      33.756 -20.799 -19.903  0.00  0.00    +0.120 C 
ATOM     25  C   UNL     1      36.064 -20.561 -19.636  0.00  0.00    +0.186 C 
ATOM     26  C   UNL     1      32.457 -20.520 -20.589  0.00  0.00    +0.064 C 
ATOM     27  C   UNL     1      34.855 -21.877 -18.231  0.00  0.00    +0.196 C 
ATOM     28  H   UNL     1      38.128 -20.237 -19.539  0.00  0.00    +0.144 HD
ATOM     29  H   UNL     1      37.353 -19.407 -20.811  0.00  0.00    +0.144 HD
ATOM     30  H   UNL     1      33.959 -23.132 -16.826  0.00  0.00    +0.156 HD
ATOM     31  H   UNL     1      35.644 -22.959 -16.631  0.00  0.00    +0.156 HD
ENDBRANCH  18  23
ENDBRANCH   1  17
TORSDOF 5
ENDMDL
MODEL 7
REMARK VINA RESULT:     -10.0      5.099      8.145
REMARK  Name = 25195365
REMARK  5 active torsions:
REMARK  status: ('A' for Active; 'I' for Inactive)
REMARK    1  A    between atoms: C_1  and  C_3
REMARK    2  A    between atoms: C_1  and  C_17
REMARK    3  A    between atoms: C_4  and  C_9
REMARK    4  A    between atoms: C_6  and  O_15
REMARK    5  A    between atoms: C_18  and  C_23
REMARK                            x       y       z     vdW  Elec       q    Type
REMARK                         _______ _______ _______ _____ _____    ______ ____
ROOT
ATOM      1  C   UNL     1      33.994 -17.579 -24.526  0.00  0.00    +0.086 C 
ATOM      2  C   UNL     1      32.754 -18.148 -25.241  0.00  0.00    +0.019 C 
ENDROOT
BRANCH   1   3
ATOM      3  C   UNL     1      33.884 -16.118 -24.250  0.00  0.00    -0.007 C 
ATOM      4  C   UNL     1      33.678 -13.384 -23.737  0.00  0.00    +0.034 C 
ATOM      5  C   UNL     1      34.256 -15.613 -23.004  0.00  0.00    +0.034 C 
ATOM      6  C   UNL     1      34.152 -14.245 -22.747  0.00  0.00    +0.138 C 
ATOM      7  C   UNL     1      33.410 -15.256 -25.239  0.00  0.00    -0.003 C 
ATOM      8  C   UNL     1      33.307 -13.889 -24.982  0.00  0.00    +0.003 C 
BRANCH   4   9
ATOM      9  C   UNL     1      33.563 -11.963 -23.490  0.00  0.00    +0.003 C 
ATOM     10  C   UNL     1      34.418 -11.071 -24.137  0.00  0.00    +0.000 C 
ATOM     11  C   UNL     1      32.595 -11.484 -22.607  0.00  0.00    +0.000 C 
ATOM     12  C   UNL     1      34.306  -9.701 -23.900  0.00  0.00    +0.000 C 
ATOM     13  C   UNL     1      32.484 -10.114 -22.370  0.00  0.00    +0.000 C 
ATOM     14  C   UNL     1      33.339  -9.223 -23.017  0.00  0.00    +0.000 C 
ENDBRANCH   4   9
BRANCH   6  15
ATOM     15  O   UNL     1      34.524 -13.778 -21.521  0.00  0.00    -0.471 OA
ATOM     16  C   UNL     1      34.330 -14.651 -20.410  0.00  0.00    +0.252 C 
ENDBRANCH   6  15
ENDBRANCH   1   3
BRANCH   1  17
ATOM     17  C   UNL     1      34.261 -18.366 -23.294  0.00  0.00    -0.087 C 
ATOM     18  C   UNL     1      34.465 -19.020 -22.307  0.00  0.00    -0.076 C 
BRANCH  18  23
ATOM     19  N   UNL     1      36.251 -20.682 -19.510  0.00  0.00    -0.336 NA
ATOM     20  N   UNL     1      33.903 -21.204 -19.351  0.00  0.00    -0.317 NA
ATOM     21  N   UNL     1      32.371 -20.352 -20.938  0.00  0.00    -0.334 N 
ATOM     22  N   UNL     1      35.434 -22.042 -17.781  0.00  0.00    -0.283 N 
ATOM     23  C   UNL     1      34.708 -19.804 -21.136  0.00  0.00    +0.179 C 
ATOM     24  C   UNL     1      35.975 -19.953 -20.611  0.00  0.00    +0.120 C 
ATOM     25  C   UNL     1      33.701 -20.459 -20.457  0.00  0.00    +0.186 C 
ATOM     26  C   UNL     1      37.155 -19.295 -21.253  0.00  0.00    +0.064 C 
ATOM     27  C   UNL     1      35.184 -21.271 -18.938  0.00  0.00    +0.196 C 
ATOM     28  H   UNL     1      31.639 -20.812 -20.467  0.00  0.00    +0.144 HD
ATOM     29  H   UNL     1      32.181 -19.818 -21.743  0.00  0.00    +0.144 HD
ATOM     30  H   UNL     1      36.351 -22.126 -17.435  0.00  0.00    +0.156 HD
ATOM     31  H   UNL     1      34.690 -22.495 -17.322  0.00  0.00    +0.156 HD
ENDBRANCH  18  23
ENDBRANCH   1  17
TORSDOF 5
ENDMDL
MODEL 8
REMARK VINA RESULT:     -10.0      4.826      8.649
REMARK  Name = 25195365
REMARK  5 active torsions:
REMARK  status: ('A' for Active; 'I' for Inactive)
REMARK    1  A    between atoms: C_1  and  C_3
REMARK    2  A    between atoms: C_1  and  C_17
REMARK    3  A    between atoms: C_4  and  C_9
REMARK    4  A    between atoms: C_6  and  O_15
REMARK    5  A    between atoms: C_18  and  C_23
REMARK                            x       y       z     vdW  Elec       q    Type
REMARK                         _______ _______ _______ _____ _____    ______ ____
ROOT
ATOM      1  C   UNL     1      36.304 -21.978 -17.833  0.00  0.00    +0.086 C 
ATOM      2  C   UNL     1      37.255 -21.222 -16.886  0.00  0.00    +0.019 C 
ENDROOT
BRANCH   1   3
ATOM      3  C   UNL     1      35.073 -22.466 -17.149  0.00  0.00    -0.007 C 
ATOM      4  C   UNL     1      32.768 -23.380 -15.869  0.00  0.00    +0.034 C 
ATOM      5  C   UNL     1      35.115 -22.808 -15.797  0.00  0.00    +0.034 C 
ATOM      6  C   UNL     1      33.962 -23.265 -15.157  0.00  0.00    +0.138 C 
ATOM      7  C   UNL     1      33.878 -22.582 -17.860  0.00  0.00    -0.003 C 
ATOM      8  C   UNL     1      32.727 -23.038 -17.221  0.00  0.00    +0.003 C 
BRANCH   4   9
ATOM      9  C   UNL     1      31.562 -23.853 -15.225  0.00  0.00    +0.003 C 
ATOM     10  C   UNL     1      31.641 -24.813 -14.215  0.00  0.00    +0.000 C 
ATOM     11  C   UNL     1      30.320 -23.349 -15.612  0.00  0.00    +0.000 C 
ATOM     12  C   UNL     1      30.478 -25.268 -13.594  0.00  0.00    +0.000 C 
ATOM     13  C   UNL     1      29.158 -23.805 -14.990  0.00  0.00    +0.000 C 
ATOM     14  C   UNL     1      29.237 -24.764 -13.981  0.00  0.00    +0.000 C 
ENDBRANCH   4   9
BRANCH   6  15
ATOM     15  O   UNL     1      34.031 -23.591 -13.835  0.00  0.00    -0.471 OA
ATOM     16  C   UNL     1      35.268 -24.123 -13.363  0.00  0.00    +0.252 C 
ENDBRANCH   6  15
ENDBRANCH   1   3
BRANCH   1  17
ATOM     17  C   UNL     1      35.993 -21.123 -19.009  0.00  0.00    -0.087 C 
ATOM     18  C   UNL     1      35.719 -20.435 -19.955  0.00  0.00    -0.076 C 
BRANCH  18  23
ATOM     19  N   UNL     1      36.063 -18.037 -22.766  0.00  0.00    -0.336 NA
ATOM     20  N   UNL     1      33.777 -18.791 -22.665  0.00  0.00    -0.317 NA
ATOM     21  N   UNL     1      33.092 -20.340 -21.015  0.00  0.00    -0.334 N 
ATOM     22  N   UNL     1      34.468 -17.254 -24.299  0.00  0.00    -0.283 N 
ATOM     23  C   UNL     1      35.387 -19.614 -21.078  0.00  0.00    +0.179 C 
ATOM     24  C   UNL     1      36.330 -18.826 -21.705  0.00  0.00    +0.120 C 
ATOM     25  C   UNL     1      34.115 -19.556 -21.607  0.00  0.00    +0.186 C 
ATOM     26  C   UNL     1      37.748 -18.797 -21.229  0.00  0.00    +0.064 C 
ATOM     27  C   UNL     1      34.785 -18.068 -23.189  0.00  0.00    +0.196 C 
ATOM     28  H   UNL     1      32.178 -20.312 -21.378  0.00  0.00    +0.144 HD
ATOM     29  H   UNL     1      33.298 -20.912 -20.240  0.00  0.00    +0.144 HD
ATOM     30  H   UNL     1      35.166 -16.705 -24.721  0.00  0.00    +0.156 HD
ATOM     31  H   UNL     1      33.548 -17.238 -24.651  0.00  0.00    +0.156 HD
ENDBRANCH  18  23
ENDBRANCH   1  17
TORSDOF 5
ENDMDL
MODEL 9
REMARK VINA RESULT:      -9.9      5.648      8.867
REMARK  Name = 25195365
REMARK  5 active torsions:
REMARK  status: ('A' for Active; 'I' for Inactive)
REMARK    1  A    between atoms: C_1  and  C_3
REMARK    2  A    between atoms: C_1  and  C_17
REMARK    3  A    between atoms: C_4  and  C_9
REMARK    4  A    between atoms: C_6  and  O_15
REMARK    5  A    between atoms: C_18  and  C_23
REMARK                            x       y       z     vdW  Elec       q    Type
REMARK                         _______ _______ _______ _____ _____    ______ ____
ROOT
ATOM      1  C   UNL     1      33.969 -17.166 -24.669  0.00  0.00    +0.086 C 
ATOM      2  C   UNL     1      32.636 -17.721 -25.207  0.00  0.00    +0.019 C 
ENDROOT
BRANCH   1   3
ATOM      3  C   UNL     1      33.920 -15.700 -24.404  0.00  0.00    -0.007 C 
ATOM      4  C   UNL     1      33.828 -12.957 -23.906  0.00  0.00    +0.034 C 
ATOM      5  C   UNL     1      33.547 -14.819 -25.419  0.00  0.00    +0.034 C 
ATOM      6  C   UNL     1      33.502 -13.447 -25.170  0.00  0.00    +0.138 C 
ATOM      7  C   UNL     1      34.247 -15.209 -23.140  0.00  0.00    -0.003 C 
ATOM      8  C   UNL     1      34.201 -13.838 -22.891  0.00  0.00    +0.003 C 
BRANCH   4   9
ATOM      9  C   UNL     1      33.789 -11.538 -23.627  0.00  0.00    +0.003 C 
ATOM     10  C   UNL     1      32.757 -11.008 -22.851  0.00  0.00    +0.000 C 
ATOM     11  C   UNL     1      34.782 -10.699 -24.132  0.00  0.00    +0.000 C 
ATOM     12  C   UNL     1      32.719  -9.640 -22.581  0.00  0.00    +0.000 C 
ATOM     13  C   UNL     1      34.743  -9.330 -23.862  0.00  0.00    +0.000 C 
ATOM     14  C   UNL     1      33.712  -8.802 -23.087  0.00  0.00    +0.000 C 
ENDBRANCH   4   9
BRANCH   6  15
ATOM     15  O   UNL     1      33.133 -12.608 -26.180  0.00  0.00    -0.471 OA
ATOM     16  C   UNL     1      31.979 -12.973 -26.935  0.00  0.00    +0.252 C 
ENDBRANCH   6  15
ENDBRANCH   1   3
BRANCH   1  17
ATOM     17  C   UNL     1      34.382 -17.942 -23.471  0.00  0.00    -0.087 C 
ATOM     18  C   UNL     1      34.706 -18.588 -22.511  0.00  0.00    -0.076 C 
BRANCH  18  23
ATOM     19  N   UNL     1      36.810 -20.129 -19.871  0.00  0.00    -0.336 NA
ATOM     20  N   UNL     1      34.528 -20.841 -19.559  0.00  0.00    -0.317 NA
ATOM     21  N   UNL     1      32.826 -20.099 -21.024  0.00  0.00    -0.334 N 
ATOM     22  N   UNL     1      36.227 -21.570 -18.112  0.00  0.00    -0.283 N 
ATOM     23  C   UNL     1      35.092 -19.362 -21.372  0.00  0.00    +0.179 C 
ATOM     24  C   UNL     1      36.401 -19.413 -20.938  0.00  0.00    +0.120 C 
ATOM     25  C   UNL     1      34.190 -20.103 -20.637  0.00  0.00    +0.186 C 
ATOM     26  C   UNL     1      37.476 -18.655 -21.649  0.00  0.00    +0.064 C 
ATOM     27  C   UNL     1      35.836 -20.809 -19.236  0.00  0.00    +0.196 C 
ATOM     28  H   UNL     1      32.168 -20.622 -20.511  0.00  0.00    +0.144 HD
ATOM     29  H   UNL     1      32.538 -19.574 -21.805  0.00  0.00    +0.144 HD
ATOM     30  H   UNL     1      37.170 -21.583 -17.831  0.00  0.00    +0.156 HD
ATOM     31  H   UNL     1      35.556 -22.086 -17.610  0.00  0.00    +0.156 HD
ENDBRANCH  18  23
ENDBRANCH   1  17
TORSDOF 5
ENDMDL
