MODEL 1
REMARK VINA RESULT:     -12.6      0.000      0.000
REMARK  Name = 11840906
REMARK  7 active torsions:
REMARK  status: ('A' for Active; 'I' for Inactive)
REMARK    1  A    between atoms: O_1  and  C_3
REMARK    2  A    between atoms: O_1  and  C_18
REMARK    3  A    between atoms: C_5  and  C_9
REMARK    4  A    between atoms: C_18  and  C_19
REMARK    5  A    between atoms: C_19  and  N_20
REMARK    6  A    between atoms: C_19  and  C_24
REMARK    7  A    between atoms: C_24  and  C_26
REMARK                            x       y       z     vdW  Elec       q    Type
REMARK                         _______ _______ _______ _____ _____    ______ ____
ROOT
ATOM      1  O   UNL     1      35.276 -15.118 -23.251  0.00  0.00    -0.476 OA
ENDROOT
BRANCH   1   3
ATOM      2  N   UNL     1      33.988 -18.257 -24.584  0.00  0.00    -0.239 NA
ATOM      3  C   UNL     1      34.930 -16.443 -23.315  0.00  0.00    +0.158 C 
ATOM      4  C   UNL     1      35.157 -17.281 -22.239  0.00  0.00    +0.040 C 
ATOM      5  C   UNL     1      34.796 -18.620 -22.334  0.00  0.00    +0.022 C 
ATOM      6  C   UNL     1      34.353 -16.961 -24.454  0.00  0.00    +0.136 C 
ATOM      7  C   UNL     1      34.220 -19.054 -23.517  0.00  0.00    +0.099 C 
BRANCH   5   9
ATOM      8  N   UNL     1      34.574 -22.832 -17.419  0.00  0.00    -0.242 NA
ATOM      9  C   UNL     1      35.013 -19.530 -21.233  0.00  0.00    +0.002 C 
ATOM     10  C   UNL     1      34.125 -21.065 -19.565  0.00  0.00    +0.003 C 
ATOM     11  C   UNL     1      33.929 -20.179 -20.637  0.00  0.00    +0.000 C 
ATOM     12  C   UNL     1      35.434 -21.294 -19.094  0.00  0.00    +0.019 C 
ATOM     13  C   UNL     1      36.305 -19.759 -20.763  0.00  0.00    +0.000 C 
ATOM     14  C   UNL     1      36.518 -20.636 -19.699  0.00  0.00    +0.002 C 
ATOM     15  C   UNL     1      33.058 -21.730 -18.949  0.00  0.00    +0.021 C 
ATOM     16  C   UNL     1      35.590 -22.181 -18.028  0.00  0.00    +0.099 C 
ATOM     17  C   UNL     1      33.334 -22.589 -17.897  0.00  0.00    +0.099 C 
ENDBRANCH   5   9
ENDBRANCH   1   3
BRANCH   1  18
ATOM     18  C   UNL     1      34.351 -14.245 -22.614  0.00  0.00    +0.184 C 
BRANCH  18  19
ATOM     19  C   UNL     1      33.846 -13.203 -23.617  0.00  0.00    -0.021 C 
BRANCH  19  20
ATOM     20  N   UNL     1      32.728 -13.778 -24.366  0.00  0.00    +0.384 N 
ATOM     21  H   UNL     1      32.524 -14.712 -24.009  0.00  0.00    -0.089 HD
ATOM     22  H   UNL     1      32.976 -13.839 -25.354  0.00  0.00    -0.089 HD
ATOM     23  H   UNL     1      31.905 -13.185 -24.258  0.00  0.00    -0.089 HD
ENDBRANCH  19  20
BRANCH  19  24
ATOM     24  C   UNL     1      33.425 -11.897 -22.910  0.00  0.00    -0.012 C 
BRANCH  24  26
ATOM     25  N   UNL     1      35.317  -9.160 -23.846  0.00  0.00    -0.270 NA
ATOM     26  C   UNL     1      33.466 -10.673 -23.805  0.00  0.00    +0.046 C 
ATOM     27  C   UNL     1      33.120  -9.397 -23.107  0.00  0.00    -0.007 C 
ATOM     28  C   UNL     1      34.899 -10.336 -24.204  0.00  0.00    +0.130 C 
ATOM     29  C   UNL     1      34.240  -8.559 -23.171  0.00  0.00    +0.071 C 
ATOM     30  C   UNL     1      31.950  -8.999 -22.489  0.00  0.00    -0.024 C 
ATOM     31  C   UNL     1      34.212  -7.295 -22.606  0.00  0.00    +0.014 C 
ATOM     32  C   UNL     1      31.914  -7.726 -21.917  0.00  0.00    +0.052 C 
ATOM     33  C   UNL     1      33.036  -6.882 -21.974  0.00  0.00    -0.020 C 
ENDBRANCH  24  26
ENDBRANCH  19  24
ENDBRANCH  18  19
ENDBRANCH   1  18
TORSDOF 7
ENDMDL
MODEL 2
REMARK VINA RESULT:     -12.3      1.420      2.080
REMARK  Name = 11840906
REMARK  7 active torsions:
REMARK  status: ('A' for Active; 'I' for Inactive)
REMARK    1  A    between atoms: O_1  and  C_3
REMARK    2  A    between atoms: O_1  and  C_18
REMARK    3  A    between atoms: C_5  and  C_9
REMARK    4  A    between atoms: C_18  and  C_19
REMARK    5  A    between atoms: C_19  and  N_20
REMARK    6  A    between atoms: C_19  and  C_24
REMARK    7  A    between atoms: C_24  and  C_26
REMARK                            x       y       z     vdW  Elec       q    Type
REMARK                         _______ _______ _______ _____ _____    ______ ____
ROOT
ATOM      1  O   UNL     1      34.616 -13.827 -22.960  0.00  0.00    -0.476 OA
ENDROOT
BRANCH   1   3
ATOM      2  N   UNL     1      34.178 -16.837 -24.968  0.00  0.00    -0.239 NA
ATOM      3  C   UNL     1      34.584 -15.155 -23.297  0.00  0.00    +0.158 C 
ATOM      4  C   UNL     1      34.910 -16.124 -22.365  0.00  0.00    +0.040 C 
ATOM      5  C   UNL     1      34.869 -17.464 -22.737  0.00  0.00    +0.022 C 
ATOM      6  C   UNL     1      34.229 -15.546 -24.570  0.00  0.00    +0.136 C 
ATOM      7  C   UNL     1      34.500 -17.765 -24.037  0.00  0.00    +0.099 C 
BRANCH   5   9
ATOM      8  N   UNL     1      35.162 -22.329 -18.473  0.00  0.00    -0.242 NA
ATOM      9  C   UNL     1      35.200 -18.507 -21.795  0.00  0.00    +0.002 C 
ATOM     10  C   UNL     1      34.493 -20.301 -20.308  0.00  0.00    +0.003 C 
ATOM     11  C   UNL     1      34.186 -19.284 -21.226  0.00  0.00    +0.000 C 
ATOM     12  C   UNL     1      35.840 -20.533 -19.965  0.00  0.00    +0.019 C 
ATOM     13  C   UNL     1      36.530 -18.740 -21.451  0.00  0.00    +0.000 C 
ATOM     14  C   UNL     1      36.852 -19.747 -20.541  0.00  0.00    +0.002 C 
ATOM     15  C   UNL     1      33.499 -21.095 -19.723  0.00  0.00    +0.021 C 
ATOM     16  C   UNL     1      36.107 -21.553 -19.050  0.00  0.00    +0.099 C 
ATOM     17  C   UNL     1      33.883 -22.080 -18.826  0.00  0.00    +0.099 C 
ENDBRANCH   5   9
ENDBRANCH   1   3
BRANCH   1  18
ATOM     18  C   UNL     1      33.510 -13.035 -23.374  0.00  0.00    +0.184 C 
BRANCH  18  19
ATOM     19  C   UNL     1      33.930 -11.565 -23.468  0.00  0.00    -0.021 C 
BRANCH  19  20
ATOM     20  N   UNL     1      34.667 -11.369 -24.717  0.00  0.00    +0.384 N 
ATOM     21  H   UNL     1      35.520 -11.930 -24.700  0.00  0.00    -0.089 HD
ATOM     22  H   UNL     1      34.911 -10.383 -24.817  0.00  0.00    -0.089 HD
ATOM     23  H   UNL     1      34.086 -11.657 -25.504  0.00  0.00    -0.089 HD
ENDBRANCH  19  20
BRANCH  19  24
ATOM     24  C   UNL     1      32.709 -10.623 -23.392  0.00  0.00    -0.012 C 
BRANCH  24  26
ATOM     25  N   UNL     1      31.295  -7.695 -22.219  0.00  0.00    -0.270 NA
ATOM     26  C   UNL     1      32.875  -9.480 -22.409  0.00  0.00    +0.046 C 
ATOM     27  C   UNL     1      33.419  -8.228 -23.017  0.00  0.00    -0.007 C 
ATOM     28  C   UNL     1      31.519  -8.948 -21.957  0.00  0.00    +0.130 C 
ATOM     29  C   UNL     1      32.451  -7.227 -22.869  0.00  0.00    +0.071 C 
ATOM     30  C   UNL     1      34.633  -7.979 -23.627  0.00  0.00    -0.024 C 
ATOM     31  C   UNL     1      32.680  -5.945 -23.339  0.00  0.00    +0.014 C 
ATOM     32  C   UNL     1      34.871  -6.688 -24.104  0.00  0.00    +0.052 C 
ATOM     33  C   UNL     1      33.903  -5.680 -23.962  0.00  0.00    -0.020 C 
ENDBRANCH  24  26
ENDBRANCH  19  24
ENDBRANCH  18  19
ENDBRANCH   1  18
TORSDOF 7
ENDMDL
MODEL 3
REMARK VINA RESULT:     -12.2      1.522     10.733
REMARK  Name = 11840906
REMARK  7 active torsions:
REMARK  status: ('A' for Active; 'I' for Inactive)
REMARK    1  A    between atoms: O_1  and  C_3
REMARK    2  A    between atoms: O_1  and  C_18
REMARK    3  A    between atoms: C_5  and  C_9
REMARK    4  A    between atoms: C_18  and  C_19
REMARK    5  A    between atoms: C_19  and  N_20
REMARK    6  A    between atoms: C_19  and  C_24
REMARK    7  A    between atoms: C_24  and  C_26
REMARK                            x       y       z     vdW  Elec       q    Type
REMARK                         _______ _______ _______ _____ _____    ______ ____
ROOT
ATOM      1  O   UNL     1      34.372 -15.550 -23.004  0.00  0.00    -0.476 OA
ENDROOT
BRANCH   1   3
ATOM      2  N   UNL     1      33.337 -13.782 -26.019  0.00  0.00    -0.239 NA
ATOM      3  C   UNL     1      34.050 -14.513 -23.841  0.00  0.00    +0.158 C 
ATOM      4  C   UNL     1      34.102 -13.206 -23.392  0.00  0.00    +0.040 C 
ATOM      5  C   UNL     1      33.769 -12.175 -24.265  0.00  0.00    +0.022 C 
ATOM      6  C   UNL     1      33.667 -14.757 -25.143  0.00  0.00    +0.136 C 
ATOM      7  C   UNL     1      33.397 -12.513 -25.555  0.00  0.00    +0.099 C 
BRANCH   5   9
ATOM      8  N   UNL     1      32.887  -6.231 -21.851  0.00  0.00    -0.242 NA
ATOM      9  C   UNL     1      33.811 -10.796 -23.838  0.00  0.00    +0.002 C 
ATOM     10  C   UNL     1      32.784  -8.922 -22.671  0.00  0.00    +0.003 C 
ATOM     11  C   UNL     1      32.757 -10.262 -23.092  0.00  0.00    +0.000 C 
ATOM     12  C   UNL     1      33.890  -8.118 -23.010  0.00  0.00    +0.019 C 
ATOM     13  C   UNL     1      34.903  -9.996 -24.172  0.00  0.00    +0.000 C 
ATOM     14  C   UNL     1      34.945  -8.663 -23.761  0.00  0.00    +0.002 C 
ATOM     15  C   UNL     1      31.742  -8.361 -21.922  0.00  0.00    +0.021 C 
ATOM     16  C   UNL     1      33.883  -6.792 -22.574  0.00  0.00    +0.099 C 
ATOM     17  C   UNL     1      31.844  -7.031 -21.544  0.00  0.00    +0.099 C 
ENDBRANCH   5   9
ENDBRANCH   1   3
BRANCH   1  18
ATOM     18  C   UNL     1      35.049 -16.656 -23.587  0.00  0.00    +0.184 C 
BRANCH  18  19
ATOM     19  C   UNL     1      34.208 -17.926 -23.421  0.00  0.00    -0.021 C 
BRANCH  19  20
ATOM     20  N   UNL     1      33.709 -18.332 -24.735  0.00  0.00    +0.384 N 
ATOM     21  H   UNL     1      34.402 -18.100 -25.448  0.00  0.00    -0.089 HD
ATOM     22  H   UNL     1      32.838 -17.841 -24.935  0.00  0.00    -0.089 HD
ATOM     23  H   UNL     1      33.542 -19.338 -24.739  0.00  0.00    -0.089 HD
ENDBRANCH  19  20
BRANCH  19  24
ATOM     24  C   UNL     1      35.022 -19.060 -22.762  0.00  0.00    -0.012 C 
BRANCH  24  26
ATOM     25  N   UNL     1      37.122 -19.825 -20.125  0.00  0.00    -0.270 NA
ATOM     26  C   UNL     1      35.261 -18.862 -21.277  0.00  0.00    +0.046 C 
ATOM     27  C   UNL     1      34.820 -20.012 -20.431  0.00  0.00    -0.007 C 
ATOM     28  C   UNL     1      36.752 -18.897 -20.955  0.00  0.00    +0.130 C 
ATOM     29  C   UNL     1      35.951 -20.525 -19.785  0.00  0.00    +0.071 C 
ATOM     30  C   UNL     1      33.564 -20.553 -20.233  0.00  0.00    -0.024 C 
ATOM     31  C   UNL     1      35.847 -21.604 -18.924  0.00  0.00    +0.014 C 
ATOM     32  C   UNL     1      33.451 -21.642 -19.366  0.00  0.00    +0.052 C 
ATOM     33  C   UNL     1      34.583 -22.163 -18.718  0.00  0.00    -0.020 C 
ENDBRANCH  24  26
ENDBRANCH  19  24
ENDBRANCH  18  19
ENDBRANCH   1  18
TORSDOF 7
ENDMDL
MODEL 4
REMARK VINA RESULT:     -12.1      3.418     11.614
REMARK  Name = 11840906
REMARK  7 active torsions:
REMARK  status: ('A' for Active; 'I' for Inactive)
REMARK    1  A    between atoms: O_1  and  C_3
REMARK    2  A    between atoms: O_1  and  C_18
REMARK    3  A    between atoms: C_5  and  C_9
REMARK    4  A    between atoms: C_18  and  C_19
REMARK    5  A    between atoms: C_19  and  N_20
REMARK    6  A    between atoms: C_19  and  C_24
REMARK    7  A    between atoms: C_24  and  C_26
REMARK                            x       y       z     vdW  Elec       q    Type
REMARK                         _______ _______ _______ _____ _____    ______ ____
ROOT
ATOM      1  O   UNL     1      35.026 -21.784 -19.840  0.00  0.00    -0.476 OA
ENDROOT
BRANCH   1   3
ATOM      2  N   UNL     1      37.418 -19.044 -20.074  0.00  0.00    -0.239 NA
ATOM      3  C   UNL     1      35.602 -20.610 -20.253  0.00  0.00    +0.158 C 
ATOM      4  C   UNL     1      34.992 -19.831 -21.220  0.00  0.00    +0.040 C 
ATOM      5  C   UNL     1      35.600 -18.646 -21.618  0.00  0.00    +0.022 C 
ATOM      6  C   UNL     1      36.797 -20.189 -19.713  0.00  0.00    +0.136 C 
ATOM      7  C   UNL     1      36.801 -18.300 -21.020  0.00  0.00    +0.099 C 
BRANCH   5   9
ATOM      8  N   UNL     1      33.162 -13.963 -25.368  0.00  0.00    -0.242 NA
ATOM      9  C   UNL     1      34.998 -17.802 -22.624  0.00  0.00    +0.002 C 
ATOM     10  C   UNL     1      34.343 -15.587 -23.395  0.00  0.00    +0.003 C 
ATOM     11  C   UNL     1      34.927 -16.420 -22.427  0.00  0.00    +0.000 C 
ATOM     12  C   UNL     1      33.826 -16.163 -24.574  0.00  0.00    +0.019 C 
ATOM     13  C   UNL     1      34.485 -18.366 -23.791  0.00  0.00    +0.000 C 
ATOM     14  C   UNL     1      33.901 -17.552 -24.763  0.00  0.00    +0.002 C 
ATOM     15  C   UNL     1      34.258 -14.200 -23.225  0.00  0.00    +0.021 C 
ATOM     16  C   UNL     1      33.254 -15.304 -25.514  0.00  0.00    +0.099 C 
ATOM     17  C   UNL     1      33.668 -13.447 -24.227  0.00  0.00    +0.099 C 
ENDBRANCH   5   9
ENDBRANCH   1   3
BRANCH   1  18
ATOM     18  C   UNL     1      35.011 -22.032 -18.440  0.00  0.00    +0.184 C 
BRANCH  18  19
ATOM     19  C   UNL     1      33.566 -22.188 -17.956  0.00  0.00    -0.021 C 
BRANCH  19  20
ATOM     20  N   UNL     1      32.693 -22.319 -19.124  0.00  0.00    +0.384 N 
ATOM     21  H   UNL     1      32.555 -21.402 -19.550  0.00  0.00    -0.089 HD
ATOM     22  H   UNL     1      31.791 -22.697 -18.833  0.00  0.00    -0.089 HD
ATOM     23  H   UNL     1      33.123 -22.948 -19.801  0.00  0.00    -0.089 HD
ENDBRANCH  19  20
BRANCH  19  24
ATOM     24  C   UNL     1      33.415 -23.400 -17.013  0.00  0.00    -0.012 C 
BRANCH  24  26
ATOM     25  N   UNL     1      32.735 -24.630 -13.854  0.00  0.00    -0.270 NA
ATOM     26  C   UNL     1      32.864 -23.048 -15.643  0.00  0.00    +0.046 C 
ATOM     27  C   UNL     1      31.451 -23.483 -15.426  0.00  0.00    -0.007 C 
ATOM     28  C   UNL     1      33.533 -23.883 -14.556  0.00  0.00    +0.130 C 
ATOM     29  C   UNL     1      31.446 -24.400 -14.368  0.00  0.00    +0.071 C 
ATOM     30  C   UNL     1      30.287 -23.113 -16.071  0.00  0.00    -0.024 C 
ATOM     31  C   UNL     1      30.263 -24.976 -13.935  0.00  0.00    +0.014 C 
ATOM     32  C   UNL     1      29.090 -23.690 -15.640  0.00  0.00    +0.052 C 
ATOM     33  C   UNL     1      29.079 -24.613 -14.582  0.00  0.00    -0.020 C 
ENDBRANCH  24  26
ENDBRANCH  19  24
ENDBRANCH  18  19
ENDBRANCH   1  18
TORSDOF 7
ENDMDL
MODEL 5
REMARK VINA RESULT:     -11.8      1.909     10.615
REMARK  Name = 11840906
REMARK  7 active torsions:
REMARK  status: ('A' for Active; 'I' for Inactive)
REMARK    1  A    between atoms: O_1  and  C_3
REMARK    2  A    between atoms: O_1  and  C_18
REMARK    3  A    between atoms: C_5  and  C_9
REMARK    4  A    between atoms: C_18  and  C_19
REMARK    5  A    between atoms: C_19  and  N_20
REMARK    6  A    between atoms: C_19  and  C_24
REMARK    7  A    between atoms: C_24  and  C_26
REMARK                            x       y       z     vdW  Elec       q    Type
REMARK                         _______ _______ _______ _____ _____    ______ ____
ROOT
ATOM      1  O   UNL     1      35.508 -17.590 -22.496  0.00  0.00    -0.476 OA
ENDROOT
BRANCH   1   3
ATOM      2  N   UNL     1      33.931 -16.254 -25.498  0.00  0.00    -0.239 NA
ATOM      3  C   UNL     1      34.866 -16.711 -23.329  0.00  0.00    +0.158 C 
ATOM      4  C   UNL     1      34.513 -15.451 -22.884  0.00  0.00    +0.040 C 
ATOM      5  C   UNL     1      33.862 -14.582 -23.753  0.00  0.00    +0.022 C 
ATOM      6  C   UNL     1      34.561 -17.071 -24.625  0.00  0.00    +0.136 C 
ATOM      7  C   UNL     1      33.597 -15.027 -25.037  0.00  0.00    +0.099 C 
BRANCH   5   9
ATOM      8  N   UNL     1      31.550  -9.212 -20.966  0.00  0.00    -0.242 NA
ATOM      9  C   UNL     1      33.476 -13.256 -23.329  0.00  0.00    +0.002 C 
ATOM     10  C   UNL     1      32.291 -11.806 -21.773  0.00  0.00    +0.003 C 
ATOM     11  C   UNL     1      32.675 -13.089 -22.196  0.00  0.00    +0.000 C 
ATOM     12  C   UNL     1      32.725 -10.683 -22.506  0.00  0.00    +0.019 C 
ATOM     13  C   UNL     1      33.902 -12.142 -24.051  0.00  0.00    +0.000 C 
ATOM     14  C   UNL     1      33.529 -10.860 -23.643  0.00  0.00    +0.002 C 
ATOM     15  C   UNL     1      31.490 -11.609 -20.642  0.00  0.00    +0.021 C 
ATOM     16  C   UNL     1      32.324  -9.424 -22.055  0.00  0.00    +0.099 C 
ATOM     17  C   UNL     1      31.155 -10.311 -20.288  0.00  0.00    +0.099 C 
ENDBRANCH   5   9
ENDBRANCH   1   3
BRANCH   1  18
ATOM     18  C   UNL     1      34.968 -18.903 -22.411  0.00  0.00    +0.184 C 
BRANCH  18  19
ATOM     19  C   UNL     1      35.563 -19.632 -21.202  0.00  0.00    -0.021 C 
BRANCH  19  20
ATOM     20  N   UNL     1      36.524 -18.744 -20.546  0.00  0.00    +0.384 N 
ATOM     21  H   UNL     1      36.614 -17.883 -21.086  0.00  0.00    -0.089 HD
ATOM     22  H   UNL     1      37.431 -19.207 -20.490  0.00  0.00    -0.089 HD
ATOM     23  H   UNL     1      36.195 -18.523 -19.606  0.00  0.00    -0.089 HD
ENDBRANCH  19  20
BRANCH  19  24
ATOM     24  C   UNL     1      34.463 -20.082 -20.218  0.00  0.00    -0.012 C 
BRANCH  24  26
ATOM     25  N   UNL     1      33.048 -22.563 -18.271  0.00  0.00    -0.270 NA
ATOM     26  C   UNL     1      34.525 -21.554 -19.857  0.00  0.00    +0.046 C 
ATOM     27  C   UNL     1      35.241 -21.837 -18.576  0.00  0.00    -0.007 C 
ATOM     28  C   UNL     1      33.146 -22.081 -19.473  0.00  0.00    +0.130 C 
ATOM     29  C   UNL     1      34.324 -22.428 -17.697  0.00  0.00    +0.071 C 
ATOM     30  C   UNL     1      36.555 -21.615 -18.212  0.00  0.00    -0.024 C 
ATOM     31  C   UNL     1      34.708 -22.806 -16.422  0.00  0.00    +0.014 C 
ATOM     32  C   UNL     1      36.950 -21.994 -16.927  0.00  0.00    +0.052 C 
ATOM     33  C   UNL     1      36.034 -22.583 -16.039  0.00  0.00    -0.020 C 
ENDBRANCH  24  26
ENDBRANCH  19  24
ENDBRANCH  18  19
ENDBRANCH   1  18
TORSDOF 7
ENDMDL
MODEL 6
REMARK VINA RESULT:     -11.8      3.810      7.291
REMARK  Name = 11840906
REMARK  7 active torsions:
REMARK  status: ('A' for Active; 'I' for Inactive)
REMARK    1  A    between atoms: O_1  and  C_3
REMARK    2  A    between atoms: O_1  and  C_18
REMARK    3  A    between atoms: C_5  and  C_9
REMARK    4  A    between atoms: C_18  and  C_19
REMARK    5  A    between atoms: C_19  and  N_20
REMARK    6  A    between atoms: C_19  and  C_24
REMARK    7  A    between atoms: C_24  and  C_26
REMARK                            x       y       z     vdW  Elec       q    Type
REMARK                         _______ _______ _______ _____ _____    ______ ____
ROOT
ATOM      1  O   UNL     1      35.890 -20.798 -19.589  0.00  0.00    -0.476 OA
ENDROOT
BRANCH   1   3
ATOM      2  N   UNL     1      32.796 -22.437 -18.576  0.00  0.00    -0.239 NA
ATOM      3  C   UNL     1      35.006 -21.524 -18.833  0.00  0.00    +0.158 C 
ATOM      4  C   UNL     1      35.396 -22.061 -17.620  0.00  0.00    +0.040 C 
ATOM      5  C   UNL     1      34.477 -22.793 -16.876  0.00  0.00    +0.022 C 
ATOM      6  C   UNL     1      33.716 -21.732 -19.271  0.00  0.00    +0.136 C 
ATOM      7  C   UNL     1      33.202 -22.951 -17.393  0.00  0.00    +0.099 C 
BRANCH   5   9
ATOM      8  N   UNL     1      37.239 -25.337 -11.599  0.00  0.00    -0.242 NA
ATOM      9  C   UNL     1      34.842 -23.370 -15.603  0.00  0.00    +0.002 C 
ATOM     10  C   UNL     1      36.552 -24.211 -14.086  0.00  0.00    +0.003 C 
ATOM     11  C   UNL     1      36.182 -23.648 -15.319  0.00  0.00    +0.000 C 
ATOM     12  C   UNL     1      35.552 -24.493 -13.134  0.00  0.00    +0.019 C 
ATOM     13  C   UNL     1      33.858 -23.652 -14.657  0.00  0.00    +0.000 C 
ATOM     14  C   UNL     1      34.208 -24.211 -13.427  0.00  0.00    +0.002 C 
ATOM     15  C   UNL     1      37.886 -24.499 -13.774  0.00  0.00    +0.021 C 
ATOM     16  C   UNL     1      35.956 -25.051 -11.919  0.00  0.00    +0.099 C 
ATOM     17  C   UNL     1      38.169 -25.053 -12.535  0.00  0.00    +0.099 C 
ENDBRANCH   5   9
ENDBRANCH   1   3
BRANCH   1  18
ATOM     18  C   UNL     1      35.356 -20.112 -20.715  0.00  0.00    +0.184 C 
BRANCH  18  19
ATOM     19  C   UNL     1      36.158 -18.832 -20.971  0.00  0.00    -0.021 C 
BRANCH  19  20
ATOM     20  N   UNL     1      37.562 -19.086 -20.646  0.00  0.00    +0.384 N 
ATOM     21  H   UNL     1      37.841 -19.990 -21.029  0.00  0.00    -0.089 HD
ATOM     22  H   UNL     1      37.680 -19.096 -19.633  0.00  0.00    -0.089 HD
ATOM     23  H   UNL     1      38.143 -18.352 -21.050  0.00  0.00    -0.089 HD
ENDBRANCH  19  20
BRANCH  19  24
ATOM     24  C   UNL     1      36.005 -18.354 -22.431  0.00  0.00    -0.012 C 
BRANCH  24  26
ATOM     25  N   UNL     1      33.869 -17.786 -25.089  0.00  0.00    -0.270 NA
ATOM     26  C   UNL     1      34.581 -18.000 -22.816  0.00  0.00    +0.046 C 
ATOM     27  C   UNL     1      34.387 -16.562 -23.175  0.00  0.00    -0.007 C 
ATOM     28  C   UNL     1      34.208 -18.625 -24.157  0.00  0.00    +0.130 C 
ATOM     29  C   UNL     1      33.969 -16.509 -24.510  0.00  0.00    +0.071 C 
ATOM     30  C   UNL     1      34.547 -15.418 -22.418  0.00  0.00    -0.024 C 
ATOM     31  C   UNL     1      33.705 -15.295 -25.121  0.00  0.00    +0.014 C 
ATOM     32  C   UNL     1      34.283 -14.190 -23.028  0.00  0.00    +0.052 C 
ATOM     33  C   UNL     1      33.866 -14.129 -24.368  0.00  0.00    -0.020 C 
ENDBRANCH  24  26
ENDBRANCH  19  24
ENDBRANCH  18  19
ENDBRANCH   1  18
TORSDOF 7
ENDMDL
MODEL 7
REMARK VINA RESULT:     -11.7      3.396     12.073
REMARK  Name = 11840906
REMARK  7 active torsions:
REMARK  status: ('A' for Active; 'I' for Inactive)
REMARK    1  A    between atoms: O_1  and  C_3
REMARK    2  A    between atoms: O_1  and  C_18
REMARK    3  A    between atoms: C_5  and  C_9
REMARK    4  A    between atoms: C_18  and  C_19
REMARK    5  A    between atoms: C_19  and  N_20
REMARK    6  A    between atoms: C_19  and  C_24
REMARK    7  A    between atoms: C_24  and  C_26
REMARK                            x       y       z     vdW  Elec       q    Type
REMARK                         _______ _______ _______ _____ _____    ______ ____
ROOT
ATOM      1  O   UNL     1      31.523 -11.847 -21.779  0.00  0.00    -0.476 OA
ENDROOT
BRANCH   1   3
ATOM      2  N   UNL     1      32.086  -9.419 -19.120  0.00  0.00    -0.239 NA
ATOM      3  C   UNL     1      31.687 -10.637 -21.155  0.00  0.00    +0.158 C 
ATOM      4  C   UNL     1      31.626  -9.460 -21.877  0.00  0.00    +0.040 C 
ATOM      5  C   UNL     1      31.797  -8.248 -21.215  0.00  0.00    +0.022 C 
ATOM      6  C   UNL     1      31.916 -10.576 -19.797  0.00  0.00    +0.136 C 
ATOM      7  C   UNL     1      32.022  -8.282 -19.849  0.00  0.00    +0.099 C 
BRANCH   5   9
ATOM      8  N   UNL     1      32.341  -3.145 -25.165  0.00  0.00    -0.242 NA
ATOM      9  C   UNL     1      31.740  -6.995 -21.931  0.00  0.00    +0.002 C 
ATOM     10  C   UNL     1      32.467  -5.598 -23.788  0.00  0.00    +0.003 C 
ATOM     11  C   UNL     1      32.511  -6.811 -23.082  0.00  0.00    +0.000 C 
ATOM     12  C   UNL     1      31.633  -4.562 -23.321  0.00  0.00    +0.019 C 
ATOM     13  C   UNL     1      30.917  -5.967 -21.473  0.00  0.00    +0.000 C 
ATOM     14  C   UNL     1      30.861  -4.755 -22.163  0.00  0.00    +0.002 C 
ATOM     15  C   UNL     1      33.228  -5.385 -24.944  0.00  0.00    +0.021 C 
ATOM     16  C   UNL     1      31.614  -3.371 -24.048  0.00  0.00    +0.099 C 
ATOM     17  C   UNL     1      33.128  -4.160 -25.584  0.00  0.00    +0.099 C 
ENDBRANCH   5   9
ENDBRANCH   1   3
BRANCH   1  18
ATOM     18  C   UNL     1      32.394 -12.897 -21.379  0.00  0.00    +0.184 C 
BRANCH  18  19
ATOM     19  C   UNL     1      33.166 -13.422 -22.594  0.00  0.00    -0.021 C 
BRANCH  19  20
ATOM     20  N   UNL     1      33.968 -12.330 -23.146  0.00  0.00    +0.384 N 
ATOM     21  H   UNL     1      34.843 -12.704 -23.515  0.00  0.00    -0.089 HD
ATOM     22  H   UNL     1      34.172 -11.652 -22.412  0.00  0.00    -0.089 HD
ATOM     23  H   UNL     1      33.451 -11.873 -23.897  0.00  0.00    -0.089 HD
ENDBRANCH  19  20
BRANCH  19  24
ATOM     24  C   UNL     1      34.053 -14.628 -22.221  0.00  0.00    -0.012 C 
BRANCH  24  26
ATOM     25  N   UNL     1      33.414 -16.489 -25.062  0.00  0.00    -0.270 NA
ATOM     26  C   UNL     1      34.688 -15.317 -23.413  0.00  0.00    +0.046 C 
ATOM     27  C   UNL     1      34.847 -16.794 -23.250  0.00  0.00    -0.007 C 
ATOM     28  C   UNL     1      33.743 -15.317 -24.610  0.00  0.00    +0.130 C 
ATOM     29  C   UNL     1      34.082 -17.417 -24.244  0.00  0.00    +0.071 C 
ATOM     30  C   UNL     1      35.587 -17.524 -22.340  0.00  0.00    -0.024 C 
ATOM     31  C   UNL     1      34.038 -18.798 -24.342  0.00  0.00    +0.014 C 
ATOM     32  C   UNL     1      35.547 -18.916 -22.433  0.00  0.00    +0.052 C 
ATOM     33  C   UNL     1      34.779 -19.548 -23.425  0.00  0.00    -0.020 C 
ENDBRANCH  24  26
ENDBRANCH  19  24
ENDBRANCH  18  19
ENDBRANCH   1  18
TORSDOF 7
ENDMDL
MODEL 8
REMARK VINA RESULT:     -11.5      3.918     12.052
REMARK  Name = 11840906
REMARK  7 active torsions:
REMARK  status: ('A' for Active; 'I' for Inactive)
REMARK    1  A    between atoms: O_1  and  C_3
REMARK    2  A    between atoms: O_1  and  C_18
REMARK    3  A    between atoms: C_5  and  C_9
REMARK    4  A    between atoms: C_18  and  C_19
REMARK    5  A    between atoms: C_19  and  N_20
REMARK    6  A    between atoms: C_19  and  C_24
REMARK    7  A    between atoms: C_24  and  C_26
REMARK                            x       y       z     vdW  Elec       q    Type
REMARK                         _______ _______ _______ _____ _____    ______ ____
ROOT
ATOM      1  O   UNL     1      33.109 -22.264 -18.583  0.00  0.00    -0.476 OA
ENDROOT
BRANCH   1   3
ATOM      2  N   UNL     1      36.502 -21.077 -19.186  0.00  0.00    -0.239 NA
ATOM      3  C   UNL     1      34.147 -21.562 -19.140  0.00  0.00    +0.158 C 
ATOM      4  C   UNL     1      33.917 -20.670 -20.172  0.00  0.00    +0.040 C 
ATOM      5  C   UNL     1      34.991 -19.973 -20.717  0.00  0.00    +0.022 C 
ATOM      6  C   UNL     1      35.435 -21.736 -18.682  0.00  0.00    +0.136 C 
ATOM      7  C   UNL     1      36.251 -20.210 -20.193  0.00  0.00    +0.099 C 
BRANCH   5   9
ATOM      8  N   UNL     1      34.256 -14.912 -24.690  0.00  0.00    -0.242 NA
ATOM      9  C   UNL     1      34.796 -19.031 -21.794  0.00  0.00    +0.002 C 
ATOM     10  C   UNL     1      34.640 -16.730 -22.574  0.00  0.00    +0.003 C 
ATOM     11  C   UNL     1      34.830 -17.657 -21.537  0.00  0.00    +0.000 C 
ATOM     12  C   UNL     1      34.415 -17.201 -23.884  0.00  0.00    +0.019 C 
ATOM     13  C   UNL     1      34.572 -19.491 -23.091  0.00  0.00    +0.000 C 
ATOM     14  C   UNL     1      34.382 -18.582 -24.133  0.00  0.00    +0.002 C 
ATOM     15  C   UNL     1      34.670 -15.348 -22.347  0.00  0.00    +0.021 C 
ATOM     16  C   UNL     1      34.232 -16.250 -24.889  0.00  0.00    +0.099 C 
ATOM     17  C   UNL     1      34.475 -14.497 -23.424  0.00  0.00    +0.099 C 
ENDBRANCH   5   9
ENDBRANCH   1   3
BRANCH   1  18
ATOM     18  C   UNL     1      33.451 -23.408 -17.812  0.00  0.00    +0.184 C 
BRANCH  18  19
ATOM     19  C   UNL     1      33.222 -23.120 -16.325  0.00  0.00    -0.021 C 
BRANCH  19  20
ATOM     20  N   UNL     1      31.842 -23.470 -15.987  0.00  0.00    +0.384 N 
ATOM     21  H   UNL     1      31.789 -23.731 -15.002  0.00  0.00    -0.089 HD
ATOM     22  H   UNL     1      31.540 -24.256 -16.563  0.00  0.00    -0.089 HD
ATOM     23  H   UNL     1      31.236 -22.669 -16.160  0.00  0.00    -0.089 HD
ENDBRANCH  19  20
BRANCH  19  24
ATOM     24  C   UNL     1      34.222 -23.895 -15.440  0.00  0.00    -0.012 C 
BRANCH  24  26
ATOM     25  N   UNL     1      37.530 -23.211 -14.704  0.00  0.00    -0.270 NA
ATOM     26  C   UNL     1      35.149 -23.003 -14.635  0.00  0.00    +0.046 C 
ATOM     27  C   UNL     1      35.660 -23.633 -13.379  0.00  0.00    -0.007 C 
ATOM     28  C   UNL     1      36.480 -22.809 -15.354  0.00  0.00    +0.130 C 
ATOM     29  C   UNL     1      37.053 -23.721 -13.483  0.00  0.00    +0.071 C 
ATOM     30  C   UNL     1      34.987 -24.075 -12.257  0.00  0.00    -0.024 C 
ATOM     31  C   UNL     1      37.807 -24.264 -12.457  0.00  0.00    +0.014 C 
ATOM     32  C   UNL     1      35.740 -24.624 -11.217  0.00  0.00    +0.052 C 
ATOM     33  C   UNL     1      37.139 -24.719 -11.317  0.00  0.00    -0.020 C 
ENDBRANCH  24  26
ENDBRANCH  19  24
ENDBRANCH  18  19
ENDBRANCH   1  18
TORSDOF 7
ENDMDL
MODEL 9
REMARK VINA RESULT:     -11.3      3.625      6.975
REMARK  Name = 11840906
REMARK  7 active torsions:
REMARK  status: ('A' for Active; 'I' for Inactive)
REMARK    1  A    between atoms: O_1  and  C_3
REMARK    2  A    between atoms: O_1  and  C_18
REMARK    3  A    between atoms: C_5  and  C_9
REMARK    4  A    between atoms: C_18  and  C_19
REMARK    5  A    between atoms: C_19  and  N_20
REMARK    6  A    between atoms: C_19  and  C_24
REMARK    7  A    between atoms: C_24  and  C_26
REMARK                            x       y       z     vdW  Elec       q    Type
REMARK                         _______ _______ _______ _____ _____    ______ ____
ROOT
ATOM      1  O   UNL     1      35.425 -20.982 -19.973  0.00  0.00    -0.476 OA
ENDROOT
BRANCH   1   3
ATOM      2  N   UNL     1      32.841 -22.710 -18.069  0.00  0.00    -0.239 NA
ATOM      3  C   UNL     1      34.822 -21.669 -18.951  0.00  0.00    +0.158 C 
ATOM      4  C   UNL     1      35.536 -22.009 -17.817  0.00  0.00    +0.040 C 
ATOM      5  C   UNL     1      34.897 -22.707 -16.797  0.00  0.00    +0.022 C 
ATOM      6  C   UNL     1      33.495 -22.033 -19.039  0.00  0.00    +0.136 C 
ATOM      7  C   UNL     1      33.561 -23.030 -16.971  0.00  0.00    +0.099 C 
BRANCH   5   9
ATOM      8  N   UNL     1      36.969 -24.502 -10.930  0.00  0.00    -0.242 NA
ATOM      9  C   UNL     1      35.604 -23.081 -15.595  0.00  0.00    +0.002 C 
ATOM     10  C   UNL     1      35.567 -23.778 -13.262  0.00  0.00    +0.003 C 
ATOM     11  C   UNL     1      34.893 -23.414 -14.439  0.00  0.00    +0.000 C 
ATOM     12  C   UNL     1      36.977 -23.805 -13.259  0.00  0.00    +0.019 C 
ATOM     13  C   UNL     1      36.998 -23.109 -15.586  0.00  0.00    +0.000 C 
ATOM     14  C   UNL     1      37.684 -23.469 -14.425  0.00  0.00    +0.002 C 
ATOM     15  C   UNL     1      34.881 -24.117 -12.090  0.00  0.00    +0.021 C 
ATOM     16  C   UNL     1      37.613 -24.172 -12.072  0.00  0.00    +0.099 C 
ATOM     17  C   UNL     1      35.619 -24.466 -10.970  0.00  0.00    +0.099 C 
ENDBRANCH   5   9
ENDBRANCH   1   3
BRANCH   1  18
ATOM     18  C   UNL     1      34.585 -20.161 -20.775  0.00  0.00    +0.184 C 
BRANCH  18  19
ATOM     19  C   UNL     1      35.259 -18.806 -21.015  0.00  0.00    -0.021 C 
BRANCH  19  20
ATOM     20  N   UNL     1      36.708 -19.002 -21.037  0.00  0.00    +0.384 N 
ATOM     21  H   UNL     1      36.960 -19.750 -20.389  0.00  0.00    -0.089 HD
ATOM     22  H   UNL     1      37.173 -18.138 -20.755  0.00  0.00    -0.089 HD
ATOM     23  H   UNL     1      37.004 -19.255 -21.979  0.00  0.00    -0.089 HD
ENDBRANCH  19  20
BRANCH  19  24
ATOM     24  C   UNL     1      34.768 -18.156 -22.326  0.00  0.00    -0.012 C 
BRANCH  24  26
ATOM     25  N   UNL     1      34.180 -14.821 -21.636  0.00  0.00    -0.270 NA
ATOM     26  C   UNL     1      35.277 -16.744 -22.540  0.00  0.00    +0.046 C 
ATOM     27  C   UNL     1      34.558 -15.994 -23.614  0.00  0.00    -0.007 C 
ATOM     28  C   UNL     1      34.921 -15.850 -21.356  0.00  0.00    +0.130 C 
ATOM     29  C   UNL     1      33.944 -14.883 -23.021  0.00  0.00    +0.071 C 
ATOM     30  C   UNL     1      34.454 -16.242 -24.969  0.00  0.00    -0.024 C 
ATOM     31  C   UNL     1      33.202 -13.994 -23.780  0.00  0.00    +0.014 C 
ATOM     32  C   UNL     1      33.707 -15.349 -25.741  0.00  0.00    +0.052 C 
ATOM     33  C   UNL     1      33.086 -14.236 -25.152  0.00  0.00    -0.020 C 
ENDBRANCH  24  26
ENDBRANCH  19  24
ENDBRANCH  18  19
ENDBRANCH   1  18
TORSDOF 7
ENDMDL
