MODEL 1
REMARK VINA RESULT:     -12.2      0.000      0.000
REMARK  Name = 11634458
REMARK  5 active torsions:
REMARK  status: ('A' for Active; 'I' for Inactive)
REMARK    1  A    between atoms: N_3  and  C_11
REMARK    2  A    between atoms: C_4  and  C_19
REMARK    3  A    between atoms: C_5  and  O_35
REMARK    4  A    between atoms: N_18  and  C_22
REMARK    5  A    between atoms: C_25  and  N_29
REMARK                            x       y       z     vdW  Elec       q    Type
REMARK                         _______ _______ _______ _____ _____    ______ ____
ROOT
ATOM      1  O   UNL     1      31.960 -23.644 -12.391  0.00  0.00    -0.252 OA
ATOM      2  N   UNL     1      33.865 -24.160 -13.567  0.00  0.00    -0.255 N 
ATOM      3  N   UNL     1      31.868 -23.721 -14.719  0.00  0.00    -0.268 N 
ATOM      4  C   UNL     1      34.617 -24.560 -14.754  0.00  0.00    +0.156 C 
ATOM      5  C   UNL     1      36.089 -24.563 -12.848  0.00  0.00    +0.137 C 
ATOM      6  C   UNL     1      35.887 -25.219 -14.212  0.00  0.00    +0.061 C 
ATOM      7  C   UNL     1      34.673 -24.301 -12.358  0.00  0.00    +0.125 C 
ATOM      8  C   UNL     1      32.504 -23.826 -13.482  0.00  0.00    +0.308 C 
ATOM      9  H   UNL     1      32.429 -23.893 -15.509  0.00  0.00    +0.156 HD
ENDROOT
BRANCH   3  11
ATOM     10 CL   UNL     1      26.205 -22.360 -15.793  0.00  0.00    -0.082 Cl
ATOM     11  C   UNL     1      30.514 -23.395 -14.976  0.00  0.00    +0.052 C 
ATOM     12  C   UNL     1      29.782 -24.147 -15.891  0.00  0.00    +0.016 C 
ATOM     13  C   UNL     1      29.921 -22.324 -14.312  0.00  0.00    +0.016 C 
ATOM     14  C   UNL     1      28.448 -23.827 -16.145  0.00  0.00    +0.013 C 
ATOM     15  C   UNL     1      28.587 -22.004 -14.565  0.00  0.00    +0.013 C 
ATOM     16  C   UNL     1      27.851 -22.755 -15.482  0.00  0.00    +0.058 C 
ENDBRANCH   3  11
BRANCH   4  19
ATOM     17  O   UNL     1      35.520 -22.381 -15.027  0.00  0.00    -0.273 OA
ATOM     18  N   UNL     1      34.512 -23.454 -16.863  0.00  0.00    -0.281 N 
ATOM     19  C   UNL     1      34.945 -23.331 -15.549  0.00  0.00    +0.244 C 
ATOM     20  H   UNL     1      34.063 -24.299 -17.096  0.00  0.00    +0.155 HD
BRANCH  18  22
ATOM     21  F   UNL     1      32.280 -22.402 -18.135  0.00  0.00    -0.203 F 
ATOM     22  C   UNL     1      34.641 -22.506 -17.905  0.00  0.00    +0.078 C 
ATOM     23  C   UNL     1      33.503 -22.005 -18.514  0.00  0.00    +0.155 C 
ATOM     24  C   UNL     1      35.907 -22.100 -18.294  0.00  0.00    +0.018 C 
ATOM     25  C   UNL     1      34.902 -20.652 -19.946  0.00  0.00    +0.061 C 
ATOM     26  C   UNL     1      33.634 -21.071 -19.542  0.00  0.00    +0.046 C 
ATOM     27  C   UNL     1      36.038 -21.166 -19.323  0.00  0.00    +0.017 C 
BRANCH  25  29
ATOM     28  O   UNL     1      36.928 -18.593 -20.088  0.00  0.00    -0.269 OA
ATOM     29  N   UNL     1      35.037 -19.681 -21.016  0.00  0.00    -0.233 N 
ATOM     30  C   UNL     1      36.102 -18.744 -20.989  0.00  0.00    +0.257 C 
ATOM     31  C   UNL     1      34.113 -19.646 -22.062  0.00  0.00    +0.072 C 
ATOM     32  C   UNL     1      36.197 -17.811 -22.153  0.00  0.00    +0.059 C 
ATOM     33  C   UNL     1      34.201 -18.778 -23.075  0.00  0.00    +0.017 C 
ATOM     34  C   UNL     1      35.280 -17.839 -23.123  0.00  0.00    +0.006 C 
ENDBRANCH  25  29
ENDBRANCH  18  22
ENDBRANCH   4  19
BRANCH   5  35
ATOM     35  O   UNL     1      36.793 -23.336 -13.006  0.00  0.00    -0.352 OA
ATOM     36  C   UNL     1      37.215 -22.813 -11.755  0.00  0.00    +0.174 C 
ENDBRANCH   5  35
TORSDOF 5
ENDMDL
MODEL 2
REMARK VINA RESULT:     -11.3      2.023      2.786
REMARK  Name = 11634458
REMARK  5 active torsions:
REMARK  status: ('A' for Active; 'I' for Inactive)
REMARK    1  A    between atoms: N_3  and  C_11
REMARK    2  A    between atoms: C_4  and  C_19
REMARK    3  A    between atoms: C_5  and  O_35
REMARK    4  A    between atoms: N_18  and  C_22
REMARK    5  A    between atoms: C_25  and  N_29
REMARK                            x       y       z     vdW  Elec       q    Type
REMARK                         _______ _______ _______ _____ _____    ______ ____
ROOT
ATOM      1  O   UNL     1      33.643 -23.493 -11.720  0.00  0.00    -0.252 OA
ATOM      2  N   UNL     1      35.372 -24.763 -12.539  0.00  0.00    -0.255 N 
ATOM      3  N   UNL     1      33.329 -24.697 -13.691  0.00  0.00    -0.268 N 
ATOM      4  C   UNL     1      35.970 -25.791 -13.389  0.00  0.00    +0.156 C 
ATOM      5  C   UNL     1      37.604 -25.043 -11.787  0.00  0.00    +0.137 C 
ATOM      6  C   UNL     1      37.215 -26.254 -12.631  0.00  0.00    +0.061 C 
ATOM      7  C   UNL     1      36.272 -24.392 -11.449  0.00  0.00    +0.125 C 
ATOM      8  C   UNL     1      34.064 -24.259 -12.589  0.00  0.00    +0.308 C 
ATOM      9  H   UNL     1      33.796 -25.308 -14.307  0.00  0.00    +0.156 HD
ENDROOT
BRANCH   3  11
ATOM     10 CL   UNL     1      27.747 -23.324 -15.120  0.00  0.00    -0.082 Cl
ATOM     11  C   UNL     1      31.994 -24.369 -14.033  0.00  0.00    +0.052 C 
ATOM     12  C   UNL     1      31.721 -23.169 -14.685  0.00  0.00    +0.016 C 
ATOM     13  C   UNL     1      30.962 -25.247 -13.714  0.00  0.00    +0.016 C 
ATOM     14  C   UNL     1      30.406 -22.845 -15.022  0.00  0.00    +0.013 C 
ATOM     15  C   UNL     1      29.647 -24.923 -14.051  0.00  0.00    +0.013 C 
ATOM     16  C   UNL     1      29.370 -23.723 -14.705  0.00  0.00    +0.058 C 
ENDBRANCH   3  11
BRANCH   4  19
ATOM     17  O   UNL     1      37.238 -25.642 -15.391  0.00  0.00    -0.273 OA
ATOM     18  N   UNL     1      35.550 -24.059 -14.971  0.00  0.00    -0.281 N 
ATOM     19  C   UNL     1      36.339 -25.169 -14.703  0.00  0.00    +0.244 C 
ATOM     20  H   UNL     1      34.875 -23.830 -14.291  0.00  0.00    +0.155 HD
BRANCH  18  22
ATOM     21  F   UNL     1      37.797 -22.523 -15.521  0.00  0.00    -0.203 F 
ATOM     22  C   UNL     1      35.603 -23.217 -16.107  0.00  0.00    +0.078 C 
ATOM     23  C   UNL     1      36.742 -22.468 -16.346  0.00  0.00    +0.155 C 
ATOM     24  C   UNL     1      34.509 -23.161 -16.956  0.00  0.00    +0.018 C 
ATOM     25  C   UNL     1      35.698 -21.570 -18.331  0.00  0.00    +0.061 C 
ATOM     26  C   UNL     1      36.790 -21.638 -17.466  0.00  0.00    +0.046 C 
ATOM     27  C   UNL     1      34.558 -22.331 -18.076  0.00  0.00    +0.017 C 
BRANCH  25  29
ATOM     28  O   UNL     1      33.450 -20.926 -20.034  0.00  0.00    -0.269 OA
ATOM     29  N   UNL     1      35.748 -20.707 -19.496  0.00  0.00    -0.233 N 
ATOM     30  C   UNL     1      34.563 -20.437 -20.228  0.00  0.00    +0.257 C 
ATOM     31  C   UNL     1      36.960 -20.155 -19.918  0.00  0.00    +0.072 C 
ATOM     32  C   UNL     1      34.695 -19.500 -21.386  0.00  0.00    +0.059 C 
ATOM     33  C   UNL     1      37.057 -19.347 -20.977  0.00  0.00    +0.017 C 
ATOM     34  C   UNL     1      35.886 -19.004 -21.727  0.00  0.00    +0.006 C 
ENDBRANCH  25  29
ENDBRANCH  18  22
ENDBRANCH   4  19
BRANCH   5  35
ATOM     35  O   UNL     1      38.405 -24.156 -12.561  0.00  0.00    -0.352 OA
ATOM     36  C   UNL     1      39.518 -24.827 -13.135  0.00  0.00    +0.174 C 
ENDBRANCH   5  35
TORSDOF 5
ENDMDL
MODEL 3
REMARK VINA RESULT:     -11.2      1.334      1.656
REMARK  Name = 11634458
REMARK  5 active torsions:
REMARK  status: ('A' for Active; 'I' for Inactive)
REMARK    1  A    between atoms: N_3  and  C_11
REMARK    2  A    between atoms: C_4  and  C_19
REMARK    3  A    between atoms: C_5  and  O_35
REMARK    4  A    between atoms: N_18  and  C_22
REMARK    5  A    between atoms: C_25  and  N_29
REMARK                            x       y       z     vdW  Elec       q    Type
REMARK                         _______ _______ _______ _____ _____    ______ ____
ROOT
ATOM      1  O   UNL     1      32.727 -23.888 -12.139  0.00  0.00    -0.252 OA
ATOM      2  N   UNL     1      34.747 -24.534 -13.023  0.00  0.00    -0.255 N 
ATOM      3  N   UNL     1      32.899 -24.237 -14.438  0.00  0.00    -0.268 N 
ATOM      4  C   UNL     1      35.624 -25.069 -14.062  0.00  0.00    +0.156 C 
ATOM      5  C   UNL     1      36.871 -24.846 -12.014  0.00  0.00    +0.137 C 
ATOM      6  C   UNL     1      36.816 -25.657 -13.306  0.00  0.00    +0.061 C 
ATOM      7  C   UNL     1      35.412 -24.531 -11.722  0.00  0.00    +0.125 C 
ATOM      8  C   UNL     1      33.389 -24.196 -13.132  0.00  0.00    +0.308 C 
ATOM      9  H   UNL     1      33.544 -24.500 -15.134  0.00  0.00    +0.156 HD
ENDROOT
BRANCH   3  11
ATOM     10 CL   UNL     1      27.408 -23.023 -16.300  0.00  0.00    -0.082 Cl
ATOM     11  C   UNL     1      31.586 -23.947 -14.883  0.00  0.00    +0.052 C 
ATOM     12  C   UNL     1      30.529 -24.774 -14.512  0.00  0.00    +0.016 C 
ATOM     13  C   UNL     1      31.358 -22.835 -15.691  0.00  0.00    +0.016 C 
ATOM     14  C   UNL     1      29.236 -24.489 -14.950  0.00  0.00    +0.013 C 
ATOM     15  C   UNL     1      30.065 -22.550 -16.129  0.00  0.00    +0.013 C 
ATOM     16  C   UNL     1      29.004 -23.377 -15.759  0.00  0.00    +0.058 C 
ENDBRANCH   3  11
BRANCH   4  19
ATOM     17  O   UNL     1      37.014 -23.238 -14.656  0.00  0.00    -0.273 OA
ATOM     18  N   UNL     1      35.235 -23.846 -16.070  0.00  0.00    -0.281 N 
ATOM     19  C   UNL     1      36.053 -23.941 -14.952  0.00  0.00    +0.244 C 
ATOM     20  H   UNL     1      34.506 -24.505 -16.133  0.00  0.00    +0.155 HD
BRANCH  18  22
ATOM     21  F   UNL     1      33.177 -23.549 -17.910  0.00  0.00    -0.203 F 
ATOM     22  C   UNL     1      35.326 -22.911 -17.128  0.00  0.00    +0.078 C 
ATOM     23  C   UNL     1      34.278 -22.793 -18.024  0.00  0.00    +0.155 C 
ATOM     24  C   UNL     1      36.467 -22.133 -17.244  0.00  0.00    +0.018 C 
ATOM     25  C   UNL     1      35.514 -21.081 -19.198  0.00  0.00    +0.061 C 
ATOM     26  C   UNL     1      34.372 -21.872 -19.067  0.00  0.00    +0.046 C 
ATOM     27  C   UNL     1      36.561 -21.212 -18.286  0.00  0.00    +0.017 C 
BRANCH  25  29
ATOM     28  O   UNL     1      33.315 -20.209 -20.862  0.00  0.00    -0.269 OA
ATOM     29  N   UNL     1      35.612 -20.122 -20.283  0.00  0.00    -0.233 N 
ATOM     30  C   UNL     1      34.447 -19.746 -21.001  0.00  0.00    +0.257 C 
ATOM     31  C   UNL     1      36.849 -19.583 -20.642  0.00  0.00    +0.072 C 
ATOM     32  C   UNL     1      34.628 -18.718 -22.071  0.00  0.00    +0.059 C 
ATOM     33  C   UNL     1      36.989 -18.689 -21.627  0.00  0.00    +0.017 C 
ATOM     34  C   UNL     1      35.842 -18.240 -22.356  0.00  0.00    +0.006 C 
ENDBRANCH  25  29
ENDBRANCH  18  22
ENDBRANCH   4  19
BRANCH   5  35
ATOM     35  O   UNL     1      37.601 -23.644 -12.233  0.00  0.00    -0.352 OA
ATOM     36  C   UNL     1      37.274 -22.653 -11.269  0.00  0.00    +0.174 C 
ENDBRANCH   5  35
TORSDOF 5
ENDMDL
