MODEL 1
REMARK VINA RESULT:     -12.2      0.000      0.000
REMARK  Name = 11987860
REMARK  5 active torsions:
REMARK  status: ('A' for Active; 'I' for Inactive)
REMARK    1  A    between atoms: N_2  and  C_19
REMARK    2  A    between atoms: C_3  and  C_11
REMARK    3  A    between atoms: N_9  and  O_17
REMARK    4  A    between atoms: C_19  and  C_20
REMARK    5  A    between atoms: C_23  and  C_26
REMARK                            x       y       z     vdW  Elec       q    Type
REMARK                         _______ _______ _______ _____ _____    ______ ____
ROOT
ATOM      1  O   UNL     1      33.881 -22.794 -14.693  0.00  0.00    -0.272 OA
ATOM      2  N   UNL     1      34.429 -23.555 -16.823  0.00  0.00    -0.298 N 
ATOM      3  C   UNL     1      34.645 -23.358 -15.470  0.00  0.00    +0.253 C 
ATOM      4  H   UNL     1      35.120 -24.025 -17.345  0.00  0.00    +0.150 HD
ENDROOT
BRANCH   3  11
ATOM      5  O   UNL     1      35.459 -24.737 -12.914  0.00  0.00    -0.327 OA
ATOM      6  O   UNL     1      35.797 -25.362 -15.125  0.00  0.00    -0.320 OA
ATOM      7  O   UNL     1      40.373 -24.521 -13.474  0.00  0.00    -0.250 OA
ATOM      8  N   UNL     1      38.165 -25.237 -13.469  0.00  0.00    -0.255 N 
ATOM      9  N   UNL     1      39.928 -26.724 -13.916  0.00  0.00    -0.181 N 
ATOM     10  C   UNL     1      36.206 -23.685 -13.539  0.00  0.00    +0.174 C 
ATOM     11  C   UNL     1      35.944 -23.943 -15.013  0.00  0.00    +0.222 C 
ATOM     12  C   UNL     1      35.776 -25.838 -13.771  0.00  0.00    +0.256 C 
ATOM     13  C   UNL     1      37.673 -23.890 -13.147  0.00  0.00    +0.128 C 
ATOM     14  C   UNL     1      37.176 -26.333 -13.411  0.00  0.00    +0.156 C 
ATOM     15  C   UNL     1      39.552 -25.434 -13.609  0.00  0.00    +0.326 C 
ATOM     16  H   UNL     1      39.275 -27.452 -14.024  0.00  0.00    +0.184 HD
BRANCH   9  17
ATOM     17  O   UNL     1      41.309 -26.927 -14.063  0.00  0.00    -0.294 OA
ATOM     18  H   UNL     1      41.519 -27.059 -15.002  0.00  0.00    +0.241 HD
ENDBRANCH   9  17
ENDBRANCH   3  11
BRANCH   2  19
ATOM     19  C   UNL     1      33.238 -23.105 -17.506  0.00  0.00    +0.116 C 
BRANCH  19  20
ATOM     20  C   UNL     1      33.584 -22.078 -18.548  0.00  0.00    -0.003 C 
ATOM     21  C   UNL     1      32.568 -21.354 -19.161  0.00  0.00    -0.003 C 
ATOM     22  C   UNL     1      34.914 -21.866 -18.886  0.00  0.00    -0.003 C 
ATOM     23  C   UNL     1      34.222 -20.181 -20.474  0.00  0.00    -0.000 C 
ATOM     24  C   UNL     1      32.890 -20.402 -20.128  0.00  0.00    -0.000 C 
ATOM     25  C   UNL     1      35.234 -20.913 -19.853  0.00  0.00    -0.000 C 
BRANCH  23  26
ATOM     26  C   UNL     1      34.556 -19.192 -21.477  0.00  0.00    -0.000 C 
ATOM     27  C   UNL     1      34.183 -19.393 -22.805  0.00  0.00    -0.000 C 
ATOM     28  C   UNL     1      35.249 -18.038 -21.114  0.00  0.00    -0.000 C 
ATOM     29  C   UNL     1      34.504 -18.439 -23.772  0.00  0.00    +0.000 C 
ATOM     30  C   UNL     1      35.570 -17.084 -22.079  0.00  0.00    +0.000 C 
ATOM     31  C   UNL     1      35.198 -17.285 -23.409  0.00  0.00    +0.000 C 
ENDBRANCH  23  26
ENDBRANCH  19  20
ENDBRANCH   2  19
TORSDOF 5
ENDMDL
MODEL 2
REMARK VINA RESULT:     -11.3      1.719      2.176
REMARK  Name = 11987860
REMARK  5 active torsions:
REMARK  status: ('A' for Active; 'I' for Inactive)
REMARK    1  A    between atoms: N_2  and  C_19
REMARK    2  A    between atoms: C_3  and  C_11
REMARK    3  A    between atoms: N_9  and  O_17
REMARK    4  A    between atoms: C_19  and  C_20
REMARK    5  A    between atoms: C_23  and  C_26
REMARK                            x       y       z     vdW  Elec       q    Type
REMARK                         _______ _______ _______ _____ _____    ______ ____
ROOT
ATOM      1  O   UNL     1      32.450 -23.112 -15.207  0.00  0.00    -0.272 OA
ATOM      2  N   UNL     1      34.146 -23.372 -16.780  0.00  0.00    -0.298 N 
ATOM      3  C   UNL     1      33.636 -23.234 -15.501  0.00  0.00    +0.253 C 
ATOM      4  H   UNL     1      35.121 -23.463 -16.889  0.00  0.00    +0.150 HD
ENDROOT
BRANCH   3  11
ATOM      5  O   UNL     1      34.726 -25.474 -13.800  0.00  0.00    -0.327 OA
ATOM      6  O   UNL     1      35.839 -23.887 -15.079  0.00  0.00    -0.320 OA
ATOM      7  O   UNL     1      37.175 -22.760 -10.461  0.00  0.00    -0.250 OA
ATOM      8  N   UNL     1      36.639 -24.065 -12.305  0.00  0.00    -0.255 N 
ATOM      9  N   UNL     1      38.874 -23.601 -11.748  0.00  0.00    -0.181 N 
ATOM     10  C   UNL     1      34.347 -24.186 -13.296  0.00  0.00    +0.174 C 
ATOM     11  C   UNL     1      34.707 -23.274 -14.457  0.00  0.00    +0.222 C 
ATOM     12  C   UNL     1      35.971 -25.160 -14.430  0.00  0.00    +0.256 C 
ATOM     13  C   UNL     1      35.198 -23.931 -12.048  0.00  0.00    +0.128 C 
ATOM     14  C   UNL     1      37.038 -25.040 -13.341  0.00  0.00    +0.156 C 
ATOM     15  C   UNL     1      37.543 -23.428 -11.433  0.00  0.00    +0.326 C 
ATOM     16  H   UNL     1      39.168 -24.133 -12.522  0.00  0.00    +0.184 HD
BRANCH   9  17
ATOM     17  O   UNL     1      39.781 -22.964 -10.886  0.00  0.00    -0.294 OA
ATOM     18  H   UNL     1      40.650 -22.909 -11.314  0.00  0.00    +0.241 HD
ENDBRANCH   9  17
ENDBRANCH   3  11
BRANCH   2  19
ATOM     19  C   UNL     1      33.317 -23.389 -17.964  0.00  0.00    +0.116 C 
BRANCH  19  20
ATOM     20  C   UNL     1      33.670 -22.243 -18.871  0.00  0.00    -0.003 C 
ATOM     21  C   UNL     1      35.007 -21.956 -19.123  0.00  0.00    -0.003 C 
ATOM     22  C   UNL     1      32.658 -21.486 -19.446  0.00  0.00    -0.003 C 
ATOM     23  C   UNL     1      34.325 -20.128 -20.547  0.00  0.00    -0.000 C 
ATOM     24  C   UNL     1      35.334 -20.894 -19.965  0.00  0.00    -0.000 C 
ATOM     25  C   UNL     1      32.987 -20.424 -20.288  0.00  0.00    -0.000 C 
BRANCH  23  26
ATOM     26  C   UNL     1      34.665 -19.025 -21.422  0.00  0.00    -0.000 C 
ATOM     27  C   UNL     1      34.398 -19.111 -22.787  0.00  0.00    -0.000 C 
ATOM     28  C   UNL     1      35.259 -17.878 -20.897  0.00  0.00    -0.000 C 
ATOM     29  C   UNL     1      34.725 -18.048 -23.630  0.00  0.00    +0.000 C 
ATOM     30  C   UNL     1      35.586 -16.815 -21.739  0.00  0.00    +0.000 C 
ATOM     31  C   UNL     1      35.319 -16.900 -23.106  0.00  0.00    +0.000 C 
ENDBRANCH  23  26
ENDBRANCH  19  20
ENDBRANCH   2  19
TORSDOF 5
ENDMDL
MODEL 3
REMARK VINA RESULT:     -11.2      8.711     13.132
REMARK  Name = 11987860
REMARK  5 active torsions:
REMARK  status: ('A' for Active; 'I' for Inactive)
REMARK    1  A    between atoms: N_2  and  C_19
REMARK    2  A    between atoms: C_3  and  C_11
REMARK    3  A    between atoms: N_9  and  O_17
REMARK    4  A    between atoms: C_19  and  C_20
REMARK    5  A    between atoms: C_23  and  C_26
REMARK                            x       y       z     vdW  Elec       q    Type
REMARK                         _______ _______ _______ _____ _____    ______ ____
ROOT
ATOM      1  O   UNL     1      32.720 -14.903 -25.987  0.00  0.00    -0.272 OA
ATOM      2  N   UNL     1      34.248 -15.156 -24.249  0.00  0.00    -0.298 N 
ATOM      3  C   UNL     1      33.240 -14.512 -24.945  0.00  0.00    +0.253 C 
ATOM      4  H   UNL     1      34.585 -14.741 -23.421  0.00  0.00    +0.150 HD
ENDROOT
BRANCH   3  11
ATOM      5  O   UNL     1      34.652 -12.626 -23.061  0.00  0.00    -0.327 OA
ATOM      6  O   UNL     1      33.432 -12.184 -24.988  0.00  0.00    -0.320 OA
ATOM      7  O   UNL     1      30.715 -10.109 -21.425  0.00  0.00    -0.250 OA
ATOM      8  N   UNL     1      32.602 -10.762 -22.610  0.00  0.00    -0.255 N 
ATOM      9  N   UNL     1      31.699  -8.606 -22.847  0.00  0.00    -0.181 N 
ATOM     10  C   UNL     1      33.331 -13.142 -22.851  0.00  0.00    +0.174 C 
ATOM     11  C   UNL     1      32.803 -13.250 -24.272  0.00  0.00    +0.222 C 
ATOM     12  C   UNL     1      34.400 -11.647 -24.074  0.00  0.00    +0.256 C 
ATOM     13  C   UNL     1      32.579 -12.105 -22.010  0.00  0.00    +0.128 C 
ATOM     14  C   UNL     1      33.799 -10.413 -23.402  0.00  0.00    +0.156 C 
ATOM     15  C   UNL     1      31.607  -9.839 -22.235  0.00  0.00    +0.326 C 
ATOM     16  H   UNL     1      32.409  -8.389 -23.492  0.00  0.00    +0.184 HD
BRANCH   9  17
ATOM     17  O   UNL     1      30.707  -7.682 -22.483  0.00  0.00    -0.294 OA
ATOM     18  H   UNL     1      31.119  -6.925 -22.035  0.00  0.00    +0.241 HD
ENDBRANCH   9  17
ENDBRANCH   3  11
BRANCH   2  19
ATOM     19  C   UNL     1      34.830 -16.407 -24.678  0.00  0.00    +0.116 C 
BRANCH  19  20
ATOM     20  C   UNL     1      34.767 -17.424 -23.573  0.00  0.00    -0.003 C 
ATOM     21  C   UNL     1      34.179 -18.661 -23.812  0.00  0.00    -0.003 C 
ATOM     22  C   UNL     1      35.296 -17.117 -22.326  0.00  0.00    -0.003 C 
ATOM     23  C   UNL     1      34.650 -19.304 -21.532  0.00  0.00    -0.000 C 
ATOM     24  C   UNL     1      34.121 -19.604 -22.786  0.00  0.00    -0.000 C 
ATOM     25  C   UNL     1      35.238 -18.061 -21.302  0.00  0.00    -0.000 C 
BRANCH  23  26
ATOM     26  C   UNL     1      34.590 -20.284 -20.467  0.00  0.00    -0.000 C 
ATOM     27  C   UNL     1      35.768 -20.790 -19.919  0.00  0.00    -0.000 C 
ATOM     28  C   UNL     1      33.354 -20.720 -19.990  0.00  0.00    -0.000 C 
ATOM     29  C   UNL     1      35.711 -21.733 -18.892  0.00  0.00    +0.000 C 
ATOM     30  C   UNL     1      33.296 -21.663 -18.964  0.00  0.00    +0.000 C 
ATOM     31  C   UNL     1      34.475 -22.170 -18.415  0.00  0.00    +0.000 C 
ENDBRANCH  23  26
ENDBRANCH  19  20
ENDBRANCH   2  19
TORSDOF 5
ENDMDL
MODEL 4
REMARK VINA RESULT:     -10.8     10.537     14.530
REMARK  Name = 11987860
REMARK  5 active torsions:
REMARK  status: ('A' for Active; 'I' for Inactive)
REMARK    1  A    between atoms: N_2  and  C_19
REMARK    2  A    between atoms: C_3  and  C_11
REMARK    3  A    between atoms: N_9  and  O_17
REMARK    4  A    between atoms: C_19  and  C_20
REMARK    5  A    between atoms: C_23  and  C_26
REMARK                            x       y       z     vdW  Elec       q    Type
REMARK                         _______ _______ _______ _____ _____    ______ ____
ROOT
ATOM      1  O   UNL     1      31.583 -12.263 -20.169  0.00  0.00    -0.272 OA
ATOM      2  N   UNL     1      32.081 -10.879 -21.974  0.00  0.00    -0.298 N 
ATOM      3  C   UNL     1      31.962 -12.097 -21.326  0.00  0.00    +0.253 C 
ATOM      4  H   UNL     1      32.396 -10.874 -22.907  0.00  0.00    +0.150 HD
ENDROOT
BRANCH   3  11
ATOM      5  O   UNL     1      34.547 -12.873 -22.672  0.00  0.00    -0.327 OA
ATOM      6  O   UNL     1      33.085 -14.144 -21.391  0.00  0.00    -0.320 OA
ATOM      7  O   UNL     1      32.759 -16.211 -25.863  0.00  0.00    -0.250 OA
ATOM      8  N   UNL     1      33.722 -15.201 -24.006  0.00  0.00    -0.255 N 
ATOM      9  N   UNL     1      33.778 -17.533 -24.293  0.00  0.00    -0.181 N 
ATOM     10  C   UNL     1      33.271 -12.837 -23.328  0.00  0.00    +0.174 C 
ATOM     11  C   UNL     1      32.329 -13.247 -22.208  0.00  0.00    +0.222 C 
ATOM     12  C   UNL     1      34.422 -14.076 -21.908  0.00  0.00    +0.256 C 
ATOM     13  C   UNL     1      33.330 -13.861 -24.466  0.00  0.00    +0.128 C 
ATOM     14  C   UNL     1      34.637 -15.262 -22.849  0.00  0.00    +0.156 C 
ATOM     15  C   UNL     1      33.378 -16.313 -24.798  0.00  0.00    +0.326 C 
ATOM     16  H   UNL     1      34.270 -17.616 -23.446  0.00  0.00    +0.184 HD
BRANCH   9  17
ATOM     17  O   UNL     1      33.434 -18.647 -25.074  0.00  0.00    -0.294 OA
ATOM     18  H   UNL     1      33.476 -18.408 -26.015  0.00  0.00    +0.241 HD
ENDBRANCH   9  17
ENDBRANCH   3  11
BRANCH   2  19
ATOM     19  C   UNL     1      31.764  -9.616 -21.347  0.00  0.00    +0.116 C 
BRANCH  19  20
ATOM     20  C   UNL     1      32.151  -8.472 -22.243  0.00  0.00    -0.003 C 
ATOM     21  C   UNL     1      31.158  -7.702 -22.837  0.00  0.00    -0.003 C 
ATOM     22  C   UNL     1      33.493  -8.198 -22.465  0.00  0.00    -0.003 C 
ATOM     23  C   UNL     1      32.862  -6.358 -23.897  0.00  0.00    -0.000 C 
ATOM     24  C   UNL     1      31.517  -6.641 -23.668  0.00  0.00    -0.000 C 
ATOM     25  C   UNL     1      33.851  -7.137 -23.296  0.00  0.00    -0.000 C 
BRANCH  23  26
ATOM     26  C   UNL     1      33.235  -5.256 -24.759  0.00  0.00    -0.000 C 
ATOM     27  C   UNL     1      32.436  -4.114 -24.815  0.00  0.00    -0.000 C 
ATOM     28  C   UNL     1      34.393  -5.336 -25.531  0.00  0.00    -0.000 C 
ATOM     29  C   UNL     1      32.795  -3.051 -25.644  0.00  0.00    +0.000 C 
ATOM     30  C   UNL     1      34.752  -4.274 -26.361  0.00  0.00    +0.000 C 
ATOM     31  C   UNL     1      33.953  -3.131 -26.418  0.00  0.00    +0.000 C 
ENDBRANCH  23  26
ENDBRANCH  19  20
ENDBRANCH   2  19
TORSDOF 5
ENDMDL
MODEL 5
REMARK VINA RESULT:     -10.7      3.937      6.292
REMARK  Name = 11987860
REMARK  5 active torsions:
REMARK  status: ('A' for Active; 'I' for Inactive)
REMARK    1  A    between atoms: N_2  and  C_19
REMARK    2  A    between atoms: C_3  and  C_11
REMARK    3  A    between atoms: N_9  and  O_17
REMARK    4  A    between atoms: C_19  and  C_20
REMARK    5  A    between atoms: C_23  and  C_26
REMARK                            x       y       z     vdW  Elec       q    Type
REMARK                         _______ _______ _______ _____ _____    ______ ____
ROOT
ATOM      1  O   UNL     1      34.319 -23.893 -16.172  0.00  0.00    -0.272 OA
ATOM      2  N   UNL     1      33.699 -22.421 -17.866  0.00  0.00    -0.298 N 
ATOM      3  C   UNL     1      33.467 -23.256 -16.786  0.00  0.00    +0.253 C 
ATOM      4  H   UNL     1      32.931 -21.962 -18.276  0.00  0.00    +0.150 HD
ENDROOT
BRANCH   3  11
ATOM      5  O   UNL     1      32.067 -24.122 -14.259  0.00  0.00    -0.327 OA
ATOM      6  O   UNL     1      31.821 -22.187 -15.520  0.00  0.00    -0.320 OA
ATOM      7  O   UNL     1      27.452 -24.431 -16.025  0.00  0.00    -0.250 OA
ATOM      8  N   UNL     1      29.397 -23.679 -15.004  0.00  0.00    -0.255 N 
ATOM      9  N   UNL     1      27.375 -22.500 -14.794  0.00  0.00    -0.181 N 
ATOM     10  C   UNL     1      31.678 -24.526 -15.579  0.00  0.00    +0.174 C 
ATOM     11  C   UNL     1      32.023 -23.295 -16.401  0.00  0.00    +0.222 C 
ATOM     12  C   UNL     1      31.578 -22.778 -14.234  0.00  0.00    +0.256 C 
ATOM     13  C   UNL     1      30.174 -24.811 -15.530  0.00  0.00    +0.128 C 
ATOM     14  C   UNL     1      30.068 -22.826 -14.002  0.00  0.00    +0.156 C 
ATOM     15  C   UNL     1      28.028 -23.594 -15.322  0.00  0.00    +0.326 C 
ATOM     16  H   UNL     1      27.833 -21.834 -14.234  0.00  0.00    +0.184 HD
BRANCH   9  17
ATOM     17  O   UNL     1      26.011 -22.406 -15.111  0.00  0.00    -0.294 OA
ATOM     18  H   UNL     1      25.741 -23.190 -15.615  0.00  0.00    +0.241 HD
ENDBRANCH   9  17
ENDBRANCH   3  11
BRANCH   2  19
ATOM     19  C   UNL     1      35.015 -22.192 -18.419  0.00  0.00    +0.116 C 
BRANCH  19  20
ATOM     20  C   UNL     1      34.957 -21.155 -19.505  0.00  0.00    -0.003 C 
ATOM     21  C   UNL     1      33.726 -20.786 -20.036  0.00  0.00    -0.003 C 
ATOM     22  C   UNL     1      36.132 -20.577 -19.966  0.00  0.00    -0.003 C 
ATOM     23  C   UNL     1      34.847 -19.238 -21.513  0.00  0.00    -0.000 C 
ATOM     24  C   UNL     1      33.672 -19.824 -21.044  0.00  0.00    -0.000 C 
ATOM     25  C   UNL     1      36.078 -19.615 -20.974  0.00  0.00    -0.000 C 
BRANCH  23  26
ATOM     26  C   UNL     1      34.792 -18.239 -22.558  0.00  0.00    -0.000 C 
ATOM     27  C   UNL     1      34.259 -18.563 -23.805  0.00  0.00    -0.000 C 
ATOM     28  C   UNL     1      35.269 -16.951 -22.317  0.00  0.00    -0.000 C 
ATOM     29  C   UNL     1      34.204 -17.600 -24.813  0.00  0.00    +0.000 C 
ATOM     30  C   UNL     1      35.215 -15.987 -23.324  0.00  0.00    +0.000 C 
ATOM     31  C   UNL     1      34.682 -16.311 -24.572  0.00  0.00    +0.000 C 
ENDBRANCH  23  26
ENDBRANCH  19  20
ENDBRANCH   2  19
TORSDOF 5
ENDMDL
MODEL 6
REMARK VINA RESULT:     -10.4      3.037      4.777
REMARK  Name = 11987860
REMARK  5 active torsions:
REMARK  status: ('A' for Active; 'I' for Inactive)
REMARK    1  A    between atoms: N_2  and  C_19
REMARK    2  A    between atoms: C_3  and  C_11
REMARK    3  A    between atoms: N_9  and  O_17
REMARK    4  A    between atoms: C_19  and  C_20
REMARK    5  A    between atoms: C_23  and  C_26
REMARK                            x       y       z     vdW  Elec       q    Type
REMARK                         _______ _______ _______ _____ _____    ______ ____
ROOT
ATOM      1  O   UNL     1      37.276 -22.245 -16.074  0.00  0.00    -0.272 OA
ATOM      2  N   UNL     1      35.875 -21.805 -17.880  0.00  0.00    -0.298 N 
ATOM      3  C   UNL     1      36.158 -22.173 -16.576  0.00  0.00    +0.253 C 
ATOM      4  H   UNL     1      34.934 -21.785 -18.168  0.00  0.00    +0.150 HD
ENDROOT
BRANCH   3  11
ATOM      5  O   UNL     1      34.565 -24.702 -16.170  0.00  0.00    -0.327 OA
ATOM      6  O   UNL     1      35.354 -23.163 -14.619  0.00  0.00    -0.320 OA
ATOM      7  O   UNL     1      30.450 -22.702 -14.277  0.00  0.00    -0.250 OA
ATOM      8  N   UNL     1      32.519 -23.729 -14.511  0.00  0.00    -0.255 N 
ATOM      9  N   UNL     1      31.433 -23.636 -12.430  0.00  0.00    -0.181 N 
ATOM     10  C   UNL     1      33.993 -23.431 -16.509  0.00  0.00    +0.174 C 
ATOM     11  C   UNL     1      34.920 -22.465 -15.789  0.00  0.00    +0.222 C 
ATOM     12  C   UNL     1      34.862 -24.502 -14.785  0.00  0.00    +0.256 C 
ATOM     13  C   UNL     1      32.568 -23.423 -15.949  0.00  0.00    +0.128 C 
ATOM     14  C   UNL     1      33.561 -24.640 -13.994  0.00  0.00    +0.156 C 
ATOM     15  C   UNL     1      31.397 -23.314 -13.770  0.00  0.00    +0.326 C 
ATOM     16  H   UNL     1      32.186 -24.123 -12.026  0.00  0.00    +0.184 HD
BRANCH   9  17
ATOM     17  O   UNL     1      30.319 -23.221 -11.683  0.00  0.00    -0.294 OA
ATOM     18  H   UNL     1      29.727 -22.699 -12.248  0.00  0.00    +0.241 HD
ENDBRANCH   9  17
ENDBRANCH   3  11
BRANCH   2  19
ATOM     19  C   UNL     1      36.896 -21.450 -18.840  0.00  0.00    +0.116 C 
BRANCH  19  20
ATOM     20  C   UNL     1      36.342 -20.513 -19.877  0.00  0.00    -0.003 C 
ATOM     21  C   UNL     1      35.004 -20.608 -20.242  0.00  0.00    -0.003 C 
ATOM     22  C   UNL     1      37.173 -19.565 -20.458  0.00  0.00    -0.003 C 
ATOM     23  C   UNL     1      35.317 -18.783 -21.793  0.00  0.00    -0.000 C 
ATOM     24  C   UNL     1      34.491 -19.739 -21.204  0.00  0.00    -0.000 C 
ATOM     25  C   UNL     1      36.658 -18.696 -21.420  0.00  0.00    -0.000 C 
BRANCH  23  26
ATOM     26  C   UNL     1      34.784 -17.881 -22.791  0.00  0.00    -0.000 C 
ATOM     27  C   UNL     1      34.124 -18.389 -23.909  0.00  0.00    -0.000 C 
ATOM     28  C   UNL     1      34.928 -16.503 -22.632  0.00  0.00    -0.000 C 
ATOM     29  C   UNL     1      33.609 -17.519 -24.871  0.00  0.00    +0.000 C 
ATOM     30  C   UNL     1      34.414 -15.633 -23.593  0.00  0.00    +0.000 C 
ATOM     31  C   UNL     1      33.754 -16.140 -24.713  0.00  0.00    +0.000 C 
ENDBRANCH  23  26
ENDBRANCH  19  20
ENDBRANCH   2  19
TORSDOF 5
ENDMDL
MODEL 7
REMARK VINA RESULT:     -10.3      8.406     12.516
REMARK  Name = 11987860
REMARK  5 active torsions:
REMARK  status: ('A' for Active; 'I' for Inactive)
REMARK    1  A    between atoms: N_2  and  C_19
REMARK    2  A    between atoms: C_3  and  C_11
REMARK    3  A    between atoms: N_9  and  O_17
REMARK    4  A    between atoms: C_19  and  C_20
REMARK    5  A    between atoms: C_23  and  C_26
REMARK                            x       y       z     vdW  Elec       q    Type
REMARK                         _______ _______ _______ _____ _____    ______ ____
ROOT
ATOM      1  O   UNL     1      32.707 -14.168 -24.570  0.00  0.00    -0.272 OA
ATOM      2  N   UNL     1      34.574 -14.464 -23.211  0.00  0.00    -0.298 N 
ATOM      3  C   UNL     1      33.419 -13.826 -23.630  0.00  0.00    +0.253 C 
ATOM      4  H   UNL     1      35.062 -14.093 -22.440  0.00  0.00    +0.150 HD
ENDROOT
BRANCH   3  11
ATOM      5  O   UNL     1      31.478 -13.445 -21.352  0.00  0.00    -0.327 OA
ATOM      6  O   UNL     1      33.723 -12.871 -21.519  0.00  0.00    -0.320 OA
ATOM      7  O   UNL     1      31.455  -8.496 -21.203  0.00  0.00    -0.250 OA
ATOM      8  N   UNL     1      31.920 -10.732 -20.783  0.00  0.00    -0.255 N 
ATOM      9  N   UNL     1      32.711  -9.034 -19.364  0.00  0.00    -0.181 N 
ATOM     10  C   UNL     1      31.603 -12.552 -22.468  0.00  0.00    +0.174 C 
ATOM     11  C   UNL     1      33.087 -12.641 -22.780  0.00  0.00    +0.222 C 
ATOM     12  C   UNL     1      32.645 -13.099 -20.600  0.00  0.00    +0.256 C 
ATOM     13  C   UNL     1      31.176 -11.166 -21.975  0.00  0.00    +0.128 C 
ATOM     14  C   UNL     1      32.360 -11.794 -19.855  0.00  0.00    +0.156 C 
ATOM     15  C   UNL     1      31.991  -9.356 -20.496  0.00  0.00    +0.326 C 
ATOM     16  H   UNL     1      33.138  -9.717 -18.800  0.00  0.00    +0.184 HD
BRANCH   9  17
ATOM     17  O   UNL     1      32.790  -7.663 -19.074  0.00  0.00    -0.294 OA
ATOM     18  H   UNL     1      31.950  -7.364 -18.691  0.00  0.00    +0.241 HD
ENDBRANCH   9  17
ENDBRANCH   3  11
BRANCH   2  19
ATOM     19  C   UNL     1      35.098 -15.649 -23.852  0.00  0.00    +0.116 C 
BRANCH  19  20
ATOM     20  C   UNL     1      34.971 -16.840 -22.943  0.00  0.00    -0.003 C 
ATOM     21  C   UNL     1      35.282 -16.709 -21.595  0.00  0.00    -0.003 C 
ATOM     22  C   UNL     1      34.545 -18.055 -23.462  0.00  0.00    -0.003 C 
ATOM     23  C   UNL     1      34.737 -19.039 -21.264  0.00  0.00    -0.000 C 
ATOM     24  C   UNL     1      35.164 -17.814 -20.753  0.00  0.00    -0.000 C 
ATOM     25  C   UNL     1      34.427 -19.160 -22.618  0.00  0.00    -0.000 C 
BRANCH  23  26
ATOM     26  C   UNL     1      34.614 -20.186 -20.389  0.00  0.00    -0.000 C 
ATOM     27  C   UNL     1      35.757 -20.812 -19.895  0.00  0.00    -0.000 C 
ATOM     28  C   UNL     1      33.351 -20.662 -20.039  0.00  0.00    -0.000 C 
ATOM     29  C   UNL     1      35.639 -21.917 -19.051  0.00  0.00    +0.000 C 
ATOM     30  C   UNL     1      33.231 -21.767 -19.196  0.00  0.00    +0.000 C 
ATOM     31  C   UNL     1      34.375 -22.395 -18.701  0.00  0.00    +0.000 C 
ENDBRANCH  23  26
ENDBRANCH  19  20
ENDBRANCH   2  19
TORSDOF 5
ENDMDL
MODEL 8
REMARK VINA RESULT:      -9.8      5.464     10.409
REMARK  Name = 11987860
REMARK  5 active torsions:
REMARK  status: ('A' for Active; 'I' for Inactive)
REMARK    1  A    between atoms: N_2  and  C_19
REMARK    2  A    between atoms: C_3  and  C_11
REMARK    3  A    between atoms: N_9  and  O_17
REMARK    4  A    between atoms: C_19  and  C_20
REMARK    5  A    between atoms: C_23  and  C_26
REMARK                            x       y       z     vdW  Elec       q    Type
REMARK                         _______ _______ _______ _____ _____    ______ ____
ROOT
ATOM      1  O   UNL     1      36.897 -18.762 -19.867  0.00  0.00    -0.272 OA
ATOM      2  N   UNL     1      35.575 -20.672 -20.021  0.00  0.00    -0.298 N 
ATOM      3  C   UNL     1      35.982 -19.399 -20.382  0.00  0.00    +0.253 C 
ATOM      4  H   UNL     1      34.825 -21.080 -20.511  0.00  0.00    +0.150 HD
ENDROOT
BRANCH   3  11
ATOM      5  O   UNL     1      36.546 -19.216 -23.339  0.00  0.00    -0.327 OA
ATOM      6  O   UNL     1      34.664 -19.988 -22.218  0.00  0.00    -0.320 OA
ATOM      7  O   UNL     1      33.010 -15.981 -24.581  0.00  0.00    -0.250 OA
ATOM      8  N   UNL     1      34.201 -17.938 -24.205  0.00  0.00    -0.255 N 
ATOM      9  N   UNL     1      32.170 -17.955 -25.386  0.00  0.00    -0.181 N 
ATOM     10  C   UNL     1      36.057 -18.131 -22.540  0.00  0.00    +0.174 C 
ATOM     11  C   UNL     1      35.187 -18.853 -21.525  0.00  0.00    +0.222 C 
ATOM     12  C   UNL     1      35.361 -20.007 -23.473  0.00  0.00    +0.256 C 
ATOM     13  C   UNL     1      35.255 -17.219 -23.475  0.00  0.00    +0.128 C 
ATOM     14  C   UNL     1      34.470 -19.354 -24.530  0.00  0.00    +0.156 C 
ATOM     15  C   UNL     1      33.115 -17.204 -24.719  0.00  0.00    +0.326 C 
ATOM     16  H   UNL     1      32.253 -18.929 -25.496  0.00  0.00    +0.184 HD
BRANCH   9  17
ATOM     17  O   UNL     1      31.081 -17.230 -25.896  0.00  0.00    -0.294 OA
ATOM     18  H   UNL     1      30.806 -17.614 -26.745  0.00  0.00    +0.241 HD
ENDBRANCH   9  17
ENDBRANCH   3  11
BRANCH   2  19
ATOM     19  C   UNL     1      36.198 -21.429 -18.959  0.00  0.00    +0.116 C 
BRANCH  19  20
ATOM     20  C   UNL     1      35.156 -22.005 -18.041  0.00  0.00    -0.003 C 
ATOM     21  C   UNL     1      33.837 -22.097 -18.472  0.00  0.00    -0.003 C 
ATOM     22  C   UNL     1      35.522 -22.438 -16.774  0.00  0.00    -0.003 C 
ATOM     23  C   UNL     1      33.229 -23.068 -16.347  0.00  0.00    -0.000 C 
ATOM     24  C   UNL     1      32.871 -22.631 -17.621  0.00  0.00    -0.000 C 
ATOM     25  C   UNL     1      34.555 -22.972 -15.923  0.00  0.00    -0.000 C 
BRANCH  23  26
ATOM     26  C   UNL     1      32.226 -23.624 -15.463  0.00  0.00    -0.000 C 
ATOM     27  C   UNL     1      32.613 -24.270 -14.289  0.00  0.00    -0.000 C 
ATOM     28  C   UNL     1      30.874 -23.510 -15.784  0.00  0.00    -0.000 C 
ATOM     29  C   UNL     1      31.646 -24.805 -13.436  0.00  0.00    +0.000 C 
ATOM     30  C   UNL     1      29.908 -24.044 -14.932  0.00  0.00    +0.000 C 
ATOM     31  C   UNL     1      30.293 -24.692 -13.758  0.00  0.00    +0.000 C 
ENDBRANCH  23  26
ENDBRANCH  19  20
ENDBRANCH   2  19
TORSDOF 5
ENDMDL
MODEL 9
REMARK VINA RESULT:      -9.6      3.489      5.030
REMARK  Name = 11987860
REMARK  5 active torsions:
REMARK  status: ('A' for Active; 'I' for Inactive)
REMARK    1  A    between atoms: N_2  and  C_19
REMARK    2  A    between atoms: C_3  and  C_11
REMARK    3  A    between atoms: N_9  and  O_17
REMARK    4  A    between atoms: C_19  and  C_20
REMARK    5  A    between atoms: C_23  and  C_26
REMARK                            x       y       z     vdW  Elec       q    Type
REMARK                         _______ _______ _______ _____ _____    ______ ____
ROOT
ATOM      1  O   UNL     1      34.744 -23.069 -19.485  0.00  0.00    -0.272 OA
ATOM      2  N   UNL     1      35.939 -21.393 -18.398  0.00  0.00    -0.298 N 
ATOM      3  C   UNL     1      34.953 -22.358 -18.506  0.00  0.00    +0.253 C 
ATOM      4  H   UNL     1      36.008 -20.885 -17.557  0.00  0.00    +0.150 HD
ENDROOT
BRANCH   3  11
ATOM      5  O   UNL     1      33.805 -24.746 -17.064  0.00  0.00    -0.327 OA
ATOM      6  O   UNL     1      35.043 -22.957 -16.249  0.00  0.00    -0.320 OA
ATOM      7  O   UNL     1      30.648 -22.373 -14.077  0.00  0.00    -0.250 OA
ATOM      8  N   UNL     1      32.518 -23.454 -14.929  0.00  0.00    -0.255 N 
ATOM      9  N   UNL     1      32.332 -22.962 -12.639  0.00  0.00    -0.181 N 
ATOM     10  C   UNL     1      33.070 -23.552 -17.366  0.00  0.00    +0.174 C 
ATOM     11  C   UNL     1      34.143 -22.483 -17.254  0.00  0.00    +0.222 C 
ATOM     12  C   UNL     1      34.609 -24.296 -15.969  0.00  0.00    +0.256 C 
ATOM     13  C   UNL     1      31.980 -23.420 -16.297  0.00  0.00    +0.128 C 
ATOM     14  C   UNL     1      33.733 -24.268 -14.716  0.00  0.00    +0.156 C 
ATOM     15  C   UNL     1      31.753 -22.893 -13.889  0.00  0.00    +0.326 C 
ATOM     16  H   UNL     1      33.211 -23.376 -12.488  0.00  0.00    +0.184 HD
BRANCH   9  17
ATOM     17  O   UNL     1      31.577 -22.400 -11.597  0.00  0.00    -0.294 OA
ATOM     18  H   UNL     1      31.480 -21.446 -11.746  0.00  0.00    +0.241 HD
ENDBRANCH   9  17
ENDBRANCH   3  11
BRANCH   2  19
ATOM     19  C   UNL     1      36.871 -21.094 -19.462  0.00  0.00    +0.116 C 
BRANCH  19  20
ATOM     20  C   UNL     1      36.314 -20.030 -20.366  0.00  0.00    -0.003 C 
ATOM     21  C   UNL     1      34.957 -20.025 -20.665  0.00  0.00    -0.003 C 
ATOM     22  C   UNL     1      37.163 -19.065 -20.893  0.00  0.00    -0.003 C 
ATOM     23  C   UNL     1      35.285 -18.065 -22.038  0.00  0.00    -0.000 C 
ATOM     24  C   UNL     1      34.441 -19.038 -21.504  0.00  0.00    -0.000 C 
ATOM     25  C   UNL     1      36.646 -18.078 -21.732  0.00  0.00    -0.000 C 
BRANCH  23  26
ATOM     26  C   UNL     1      34.749 -17.040 -22.908  0.00  0.00    -0.000 C 
ATOM     27  C   UNL     1      34.295 -17.375 -24.183  0.00  0.00    -0.000 C 
ATOM     28  C   UNL     1      34.686 -15.717 -22.471  0.00  0.00    -0.000 C 
ATOM     29  C   UNL     1      33.777 -16.388 -25.022  0.00  0.00    +0.000 C 
ATOM     30  C   UNL     1      34.169 -14.729 -23.309  0.00  0.00    +0.000 C 
ATOM     31  C   UNL     1      33.715 -15.064 -24.585  0.00  0.00    +0.000 C 
ENDBRANCH  23  26
ENDBRANCH  19  20
ENDBRANCH   2  19
TORSDOF 5
ENDMDL
