MODEL 1
REMARK VINA RESULT:     -11.0      0.000      0.000
REMARK  Name = 6918248
REMARK  5 active torsions:
REMARK  status: ('A' for Active; 'I' for Inactive)
REMARK    1  A    between atoms: N_1  and  C_18
REMARK    2  A    between atoms: N_2  and  C_8
REMARK    3  A    between atoms: C_11  and  C_17
REMARK    4  A    between atoms: C_18  and  C_19
REMARK    5  A    between atoms: C_19  and  N_21
REMARK                            x       y       z     vdW  Elec       q    Type
REMARK                         _______ _______ _______ _____ _____    ______ ____
ROOT
ATOM      1  N   UNL     1      32.691 -12.698 -22.628  0.00  0.00    +0.391 N 
ATOM      2  N   UNL     1      32.619  -9.864 -22.276  0.00  0.00    -0.312 N 
ATOM      3  C   UNL     1      32.156 -12.117 -21.391  0.00  0.00    -0.055 C 
ATOM      4  C   UNL     1      33.778 -11.856 -23.146  0.00  0.00    -0.055 C 
ATOM      5  C   UNL     1      31.604 -10.712 -21.638  0.00  0.00    +0.068 C 
ATOM      6  C   UNL     1      33.279 -10.442 -23.451  0.00  0.00    +0.068 C 
ATOM      7  H   UNL     1      31.946 -12.736 -23.324  0.00  0.00    -0.079 HD
ENDROOT
BRANCH   2   8
ATOM      8  C   UNL     1      32.476  -8.476 -22.172  0.00  0.00    +0.048 C 
ATOM      9  C   UNL     1      32.843  -7.626 -23.234  0.00  0.00    +0.018 C 
ATOM     10  C   UNL     1      31.959  -7.886 -21.001  0.00  0.00    +0.015 C 
ATOM     11  C   UNL     1      32.699  -6.243 -23.130  0.00  0.00    +0.073 C 
ATOM     12  C   UNL     1      31.815  -6.502 -20.897  0.00  0.00    +0.001 C 
ATOM     13  C   UNL     1      32.185  -5.680 -21.961  0.00  0.00    +0.004 C 
BRANCH  11  17
ATOM     14  F   UNL     1      32.608  -5.777 -25.475  0.00  0.00    -0.166 F 
ATOM     15  F   UNL     1      32.671  -4.073 -24.135  0.00  0.00    -0.166 F 
ATOM     16  F   UNL     1      34.449  -5.288 -24.426  0.00  0.00    -0.166 F 
ATOM     17  C   UNL     1      33.096  -5.364 -24.267  0.00  0.00    +0.419 C 
ENDBRANCH  11  17
ENDBRANCH   2   8
BRANCH   1  18
ATOM     18  C   UNL     1      33.166 -14.061 -22.392  0.00  0.00    -0.052 C 
BRANCH  18  19
ATOM     19  C   UNL     1      34.337 -14.379 -23.309  0.00  0.00    +0.088 C 
BRANCH  19  21
ATOM     20  O   UNL     1      33.575 -15.610 -25.958  0.00  0.00    -0.247 OA
ATOM     21  N   UNL     1      34.327 -15.761 -23.706  0.00  0.00    -0.282 N 
ATOM     22  N   UNL     1      34.094 -17.669 -24.919  0.00  0.00    -0.305 N 
ATOM     23  C   UNL     1      34.689 -16.848 -22.893  0.00  0.00    +0.079 A 
ATOM     24  C   UNL     1      33.949 -16.254 -24.988  0.00  0.00    +0.328 A 
ATOM     25  C   UNL     1      34.543 -18.013 -23.643  0.00  0.00    +0.076 A 
ATOM     26  C   UNL     1      35.122 -16.883 -21.583  0.00  0.00    +0.019 C 
ATOM     27  C   UNL     1      34.821 -19.262 -23.130  0.00  0.00    +0.019 C 
ATOM     28  C   UNL     1      35.410 -18.139 -21.041  0.00  0.00    +0.002 C 
ATOM     29  C   UNL     1      35.261 -19.315 -21.805  0.00  0.00    +0.002 C 
ATOM     30  H   UNL     1      33.909 -18.300 -25.650  0.00  0.00    +0.170 HD
ENDBRANCH  19  21
ENDBRANCH  18  19
ENDBRANCH   1  18
TORSDOF 5
ENDMDL
MODEL 2
REMARK VINA RESULT:     -10.8      7.201     11.433
REMARK  Name = 6918248
REMARK  5 active torsions:
REMARK  status: ('A' for Active; 'I' for Inactive)
REMARK    1  A    between atoms: N_1  and  C_18
REMARK    2  A    between atoms: N_2  and  C_8
REMARK    3  A    between atoms: C_11  and  C_17
REMARK    4  A    between atoms: C_18  and  C_19
REMARK    5  A    between atoms: C_19  and  N_21
REMARK                            x       y       z     vdW  Elec       q    Type
REMARK                         _______ _______ _______ _____ _____    ______ ____
ROOT
ATOM      1  N   UNL     1      34.729 -18.272 -22.712  0.00  0.00    +0.391 N 
ATOM      2  N   UNL     1      35.217 -20.085 -20.558  0.00  0.00    -0.312 N 
ATOM      3  C   UNL     1      33.875 -19.451 -22.527  0.00  0.00    -0.055 C 
ATOM      4  C   UNL     1      36.103 -18.580 -22.296  0.00  0.00    -0.055 C 
ATOM      5  C   UNL     1      33.851 -19.887 -21.060  0.00  0.00    +0.068 C 
ATOM      6  C   UNL     1      36.153 -18.987 -20.822  0.00  0.00    +0.068 C 
ATOM      7  H   UNL     1      34.373 -17.512 -22.131  0.00  0.00    -0.079 HD
ENDROOT
BRANCH   2   8
ATOM      8  C   UNL     1      35.392 -20.891 -19.429  0.00  0.00    +0.048 C 
ATOM      9  C   UNL     1      34.318 -21.625 -18.887  0.00  0.00    +0.018 C 
ATOM     10  C   UNL     1      36.649 -20.996 -18.800  0.00  0.00    +0.015 C 
ATOM     11  C   UNL     1      34.494 -22.429 -17.761  0.00  0.00    +0.073 C 
ATOM     12  C   UNL     1      36.825 -21.801 -17.674  0.00  0.00    +0.001 C 
ATOM     13  C   UNL     1      35.747 -22.518 -17.154  0.00  0.00    +0.004 C 
BRANCH  11  17
ATOM     14  F   UNL     1      32.147 -22.543 -17.313  0.00  0.00    -0.166 F 
ATOM     15  F   UNL     1      33.144 -24.403 -17.810  0.00  0.00    -0.166 F 
ATOM     16  F   UNL     1      33.488 -23.472 -15.876  0.00  0.00    -0.166 F 
ATOM     17  C   UNL     1      33.342 -23.195 -17.205  0.00  0.00    +0.419 C 
ENDBRANCH  11  17
ENDBRANCH   2   8
BRANCH   1  18
ATOM     18  C   UNL     1      34.701 -17.832 -24.107  0.00  0.00    -0.052 C 
BRANCH  18  19
ATOM     19  C   UNL     1      35.309 -16.444 -24.236  0.00  0.00    +0.088 C 
BRANCH  19  21
ATOM     20  O   UNL     1      33.563 -15.168 -26.342  0.00  0.00    -0.247 OA
ATOM     21  N   UNL     1      34.307 -15.422 -24.097  0.00  0.00    -0.282 N 
ATOM     22  N   UNL     1      32.677 -13.905 -24.551  0.00  0.00    -0.305 N 
ATOM     23  C   UNL     1      33.937 -14.797 -22.894  0.00  0.00    +0.079 A 
ATOM     24  C   UNL     1      33.526 -14.876 -25.156  0.00  0.00    +0.328 A 
ATOM     25  C   UNL     1      32.939 -13.869 -23.180  0.00  0.00    +0.076 A 
ATOM     26  C   UNL     1      34.403 -14.982 -21.608  0.00  0.00    +0.019 C 
ATOM     27  C   UNL     1      32.357 -13.085 -22.208  0.00  0.00    +0.019 C 
ATOM     28  C   UNL     1      33.828 -14.197 -20.604  0.00  0.00    +0.002 C 
ATOM     29  C   UNL     1      32.817 -13.259 -20.900  0.00  0.00    +0.002 C 
ATOM     30  H   UNL     1      32.015 -13.350 -25.022  0.00  0.00    +0.170 HD
ENDBRANCH  19  21
ENDBRANCH  18  19
ENDBRANCH   1  18
TORSDOF 5
ENDMDL
MODEL 3
REMARK VINA RESULT:     -10.8      1.363      1.850
REMARK  Name = 6918248
REMARK  5 active torsions:
REMARK  status: ('A' for Active; 'I' for Inactive)
REMARK    1  A    between atoms: N_1  and  C_18
REMARK    2  A    between atoms: N_2  and  C_8
REMARK    3  A    between atoms: C_11  and  C_17
REMARK    4  A    between atoms: C_18  and  C_19
REMARK    5  A    between atoms: C_19  and  N_21
REMARK                            x       y       z     vdW  Elec       q    Type
REMARK                         _______ _______ _______ _____ _____    ______ ____
ROOT
ATOM      1  N   UNL     1      32.941 -12.840 -22.918  0.00  0.00    +0.391 N 
ATOM      2  N   UNL     1      33.216  -9.996 -22.907  0.00  0.00    -0.312 N 
ATOM      3  C   UNL     1      32.511 -12.057 -21.753  0.00  0.00    -0.055 C 
ATOM      4  C   UNL     1      34.106 -12.203 -23.545  0.00  0.00    -0.055 C 
ATOM      5  C   UNL     1      32.124 -10.634 -22.160  0.00  0.00    +0.068 C 
ATOM      6  C   UNL     1      33.772 -10.784 -24.011  0.00  0.00    +0.068 C 
ATOM      7  H   UNL     1      32.178 -12.869 -23.596  0.00  0.00    -0.079 HD
ENDROOT
BRANCH   2   8
ATOM      8  C   UNL     1      33.243  -8.599 -22.968  0.00  0.00    +0.048 C 
ATOM      9  C   UNL     1      32.168  -7.830 -22.479  0.00  0.00    +0.018 C 
ATOM     10  C   UNL     1      34.347  -7.917 -23.519  0.00  0.00    +0.015 C 
ATOM     11  C   UNL     1      32.195  -6.437 -22.539  0.00  0.00    +0.073 C 
ATOM     12  C   UNL     1      34.374  -6.524 -23.578  0.00  0.00    +0.001 C 
ATOM     13  C   UNL     1      33.298  -5.784 -23.089  0.00  0.00    +0.004 C 
BRANCH  11  17
ATOM     14  F   UNL     1      29.834  -6.251 -22.201  0.00  0.00    -0.166 F 
ATOM     15  F   UNL     1      31.117  -5.394 -20.677  0.00  0.00    -0.166 F 
ATOM     16  F   UNL     1      30.936  -4.422 -22.613  0.00  0.00    -0.166 F 
ATOM     17  C   UNL     1      31.045  -5.645 -22.017  0.00  0.00    +0.419 C 
ENDBRANCH  11  17
ENDBRANCH   2   8
BRANCH   1  18
ATOM     18  C   UNL     1      33.255 -14.214 -22.526  0.00  0.00    -0.052 C 
BRANCH  18  19
ATOM     19  C   UNL     1      34.548 -14.669 -23.187  0.00  0.00    +0.088 C 
BRANCH  19  21
ATOM     20  O   UNL     1      33.746 -15.863 -25.840  0.00  0.00    -0.247 OA
ATOM     21  N   UNL     1      34.472 -16.049 -23.582  0.00  0.00    -0.282 N 
ATOM     22  N   UNL     1      34.154 -17.944 -24.795  0.00  0.00    -0.305 N 
ATOM     23  C   UNL     1      34.773 -17.151 -22.765  0.00  0.00    +0.079 A 
ATOM     24  C   UNL     1      34.080 -16.524 -24.867  0.00  0.00    +0.328 A 
ATOM     25  C   UNL     1      34.575 -18.309 -23.515  0.00  0.00    +0.076 A 
ATOM     26  C   UNL     1      35.193 -17.206 -21.452  0.00  0.00    +0.019 C 
ATOM     27  C   UNL     1      34.785 -19.569 -23.000  0.00  0.00    +0.019 C 
ATOM     28  C   UNL     1      35.413 -18.475 -20.906  0.00  0.00    +0.002 C 
ATOM     29  C   UNL     1      35.211 -19.643 -21.671  0.00  0.00    +0.002 C 
ATOM     30  H   UNL     1      33.944 -18.567 -25.528  0.00  0.00    +0.170 HD
ENDBRANCH  19  21
ENDBRANCH  18  19
ENDBRANCH   1  18
TORSDOF 5
ENDMDL
MODEL 4
REMARK VINA RESULT:     -10.7      4.879      9.878
REMARK  Name = 6918248
REMARK  5 active torsions:
REMARK  status: ('A' for Active; 'I' for Inactive)
REMARK    1  A    between atoms: N_1  and  C_18
REMARK    2  A    between atoms: N_2  and  C_8
REMARK    3  A    between atoms: C_11  and  C_17
REMARK    4  A    between atoms: C_18  and  C_19
REMARK    5  A    between atoms: C_19  and  N_21
REMARK                            x       y       z     vdW  Elec       q    Type
REMARK                         _______ _______ _______ _____ _____    ______ ____
ROOT
ATOM      1  N   UNL     1      32.457 -10.263 -21.872  0.00  0.00    +0.391 N 
ATOM      2  N   UNL     1      33.133 -12.788 -23.027  0.00  0.00    -0.312 N 
ATOM      3  C   UNL     1      31.678 -11.462 -21.543  0.00  0.00    -0.055 C 
ATOM      4  C   UNL     1      32.935 -10.344 -23.259  0.00  0.00    -0.055 C 
ATOM      5  C   UNL     1      32.527 -12.727 -21.690  0.00  0.00    +0.068 C 
ATOM      6  C   UNL     1      33.825 -11.571 -23.463  0.00  0.00    +0.068 C 
ATOM      7  H   UNL     1      33.265 -10.213 -21.250  0.00  0.00    -0.079 HD
ENDROOT
BRANCH   2   8
ATOM      8  C   UNL     1      33.553 -14.035 -23.501  0.00  0.00    +0.048 C 
ATOM      9  C   UNL     1      34.114 -14.992 -22.632  0.00  0.00    +0.018 C 
ATOM     10  C   UNL     1      33.427 -14.373 -24.864  0.00  0.00    +0.015 C 
ATOM     11  C   UNL     1      34.532 -16.235 -23.106  0.00  0.00    +0.073 C 
ATOM     12  C   UNL     1      33.845 -15.616 -25.338  0.00  0.00    +0.001 C 
ATOM     13  C   UNL     1      34.398 -16.548 -24.459  0.00  0.00    +0.004 C 
BRANCH  11  17
ATOM     14  F   UNL     1      36.422 -17.547 -22.451  0.00  0.00    -0.166 F 
ATOM     15  F   UNL     1      35.135 -16.817 -20.866  0.00  0.00    -0.166 F 
ATOM     16  F   UNL     1      34.450 -18.418 -22.167  0.00  0.00    -0.166 F 
ATOM     17  C   UNL     1      35.124 -17.231 -22.167  0.00  0.00    +0.419 C 
ENDBRANCH  11  17
ENDBRANCH   2   8
BRANCH   1  18
ATOM     18  C   UNL     1      31.653  -9.058 -21.675  0.00  0.00    -0.052 C 
BRANCH  18  19
ATOM     19  C   UNL     1      32.547  -7.875 -21.337  0.00  0.00    +0.088 C 
BRANCH  19  21
ATOM     20  O   UNL     1      30.242  -5.930 -21.474  0.00  0.00    -0.247 OA
ATOM     21  N   UNL     1      32.327  -6.780 -22.243  0.00  0.00    -0.282 N 
ATOM     22  N   UNL     1      31.412  -4.988 -23.300  0.00  0.00    -0.305 N 
ATOM     23  C   UNL     1      33.188  -6.394 -23.283  0.00  0.00    +0.079 A 
ATOM     24  C   UNL     1      31.200  -5.908 -22.233  0.00  0.00    +0.328 A 
ATOM     25  C   UNL     1      32.621  -5.296 -23.926  0.00  0.00    +0.076 A 
ATOM     26  C   UNL     1      34.396  -6.924 -23.691  0.00  0.00    +0.019 C 
ATOM     27  C   UNL     1      33.223  -4.675 -24.999  0.00  0.00    +0.019 C 
ATOM     28  C   UNL     1      35.026  -6.310 -24.778  0.00  0.00    +0.002 C 
ATOM     29  C   UNL     1      34.446  -5.198 -25.425  0.00  0.00    +0.002 C 
ATOM     30  H   UNL     1      30.806  -4.256 -23.553  0.00  0.00    +0.170 HD
ENDBRANCH  19  21
ENDBRANCH  18  19
ENDBRANCH   1  18
TORSDOF 5
ENDMDL
MODEL 5
REMARK VINA RESULT:     -10.6      9.479     12.849
REMARK  Name = 6918248
REMARK  5 active torsions:
REMARK  status: ('A' for Active; 'I' for Inactive)
REMARK    1  A    between atoms: N_1  and  C_18
REMARK    2  A    between atoms: N_2  and  C_8
REMARK    3  A    between atoms: C_11  and  C_17
REMARK    4  A    between atoms: C_18  and  C_19
REMARK    5  A    between atoms: C_19  and  N_21
REMARK                            x       y       z     vdW  Elec       q    Type
REMARK                         _______ _______ _______ _____ _____    ______ ____
ROOT
ATOM      1  N   UNL     1      34.592 -23.072 -17.208  0.00  0.00    +0.391 N 
ATOM      2  N   UNL     1      35.307 -21.133 -19.182  0.00  0.00    -0.312 N 
ATOM      3  C   UNL     1      33.552 -22.368 -17.968  0.00  0.00    -0.055 C 
ATOM      4  C   UNL     1      35.743 -22.183 -16.997  0.00  0.00    -0.055 C 
ATOM      5  C   UNL     1      34.077 -21.922 -19.335  0.00  0.00    +0.068 C 
ATOM      6  C   UNL     1      36.340 -21.730 -18.330  0.00  0.00    +0.068 C 
ATOM      7  H   UNL     1      34.899 -23.884 -17.744  0.00  0.00    -0.079 HD
ENDROOT
BRANCH   2   8
ATOM      8  C   UNL     1      35.675 -20.281 -20.228  0.00  0.00    +0.048 C 
ATOM      9  C   UNL     1      34.835 -20.096 -21.344  0.00  0.00    +0.018 C 
ATOM     10  C   UNL     1      36.898 -19.580 -20.197  0.00  0.00    +0.015 C 
ATOM     11  C   UNL     1      35.203 -19.245 -22.387  0.00  0.00    +0.073 C 
ATOM     12  C   UNL     1      37.265 -18.729 -21.239  0.00  0.00    +0.001 C 
ATOM     13  C   UNL     1      36.418 -18.562 -22.335  0.00  0.00    +0.004 C 
BRANCH  11  17
ATOM     14  F   UNL     1      32.986 -19.327 -23.281  0.00  0.00    -0.166 F 
ATOM     15  F   UNL     1      34.310 -17.800 -24.070  0.00  0.00    -0.166 F 
ATOM     16  F   UNL     1      34.621 -19.885 -24.601  0.00  0.00    -0.166 F 
ATOM     17  C   UNL     1      34.298 -19.067 -23.558  0.00  0.00    +0.419 C 
ENDBRANCH  11  17
ENDBRANCH   2   8
BRANCH   1  18
ATOM     18  C   UNL     1      34.064 -23.541 -15.928  0.00  0.00    -0.052 C 
BRANCH  18  19
ATOM     19  C   UNL     1      34.760 -22.833 -14.777  0.00  0.00    +0.088 C 
BRANCH  19  21
ATOM     20  O   UNL     1      33.242 -23.962 -12.425  0.00  0.00    -0.247 OA
ATOM     21  N   UNL     1      35.192 -23.768 -13.774  0.00  0.00    -0.282 N 
ATOM     22  N   UNL     1      35.237 -25.146 -11.967  0.00  0.00    -0.305 N 
ATOM     23  C   UNL     1      36.464 -24.360 -13.701  0.00  0.00    +0.079 A 
ATOM     24  C   UNL     1      34.400 -24.249 -12.691  0.00  0.00    +0.328 A 
ATOM     25  C   UNL     1      36.484 -25.202 -12.591  0.00  0.00    +0.076 A 
ATOM     26  C   UNL     1      37.569 -24.213 -14.515  0.00  0.00    +0.019 C 
ATOM     27  C   UNL     1      37.596 -25.935 -12.239  0.00  0.00    +0.019 C 
ATOM     28  C   UNL     1      38.710 -24.948 -14.177  0.00  0.00    +0.002 C 
ATOM     29  C   UNL     1      38.724 -25.799 -13.052  0.00  0.00    +0.002 C 
ATOM     30  H   UNL     1      34.978 -25.644 -11.159  0.00  0.00    +0.170 HD
ENDBRANCH  19  21
ENDBRANCH  18  19
ENDBRANCH   1  18
TORSDOF 5
ENDMDL
MODEL 6
REMARK VINA RESULT:     -10.4      5.007     10.156
REMARK  Name = 6918248
REMARK  5 active torsions:
REMARK  status: ('A' for Active; 'I' for Inactive)
REMARK    1  A    between atoms: N_1  and  C_18
REMARK    2  A    between atoms: N_2  and  C_8
REMARK    3  A    between atoms: C_11  and  C_17
REMARK    4  A    between atoms: C_18  and  C_19
REMARK    5  A    between atoms: C_19  and  N_21
REMARK                            x       y       z     vdW  Elec       q    Type
REMARK                         _______ _______ _______ _____ _____    ______ ____
ROOT
ATOM      1  N   UNL     1      33.413 -12.616 -24.296  0.00  0.00    +0.391 N 
ATOM      2  N   UNL     1      34.167 -15.340 -23.883  0.00  0.00    -0.312 N 
ATOM      3  C   UNL     1      33.642 -13.505 -25.442  0.00  0.00    -0.055 C 
ATOM      4  C   UNL     1      34.313 -12.980 -23.194  0.00  0.00    -0.055 C 
ATOM      5  C   UNL     1      33.380 -14.965 -25.065  0.00  0.00    +0.068 C 
ATOM      6  C   UNL     1      34.075 -14.422 -22.743  0.00  0.00    +0.068 C 
ATOM      7  H   UNL     1      32.448 -12.725 -23.981  0.00  0.00    -0.079 HD
ENDROOT
BRANCH   2   8
ATOM      8  C   UNL     1      34.412 -16.700 -23.662  0.00  0.00    +0.048 C 
ATOM      9  C   UNL     1      35.236 -17.126 -22.601  0.00  0.00    +0.018 C 
ATOM     10  C   UNL     1      33.842 -17.685 -24.493  0.00  0.00    +0.015 C 
ATOM     11  C   UNL     1      35.479 -18.482 -22.381  0.00  0.00    +0.073 C 
ATOM     12  C   UNL     1      34.085 -19.040 -24.273  0.00  0.00    +0.001 C 
ATOM     13  C   UNL     1      34.904 -19.439 -23.217  0.00  0.00    +0.004 C 
BRANCH  11  17
ATOM     14  F   UNL     1      37.667 -19.057 -21.604  0.00  0.00    -0.166 F 
ATOM     15  F   UNL     1      36.365 -18.032 -20.205  0.00  0.00    -0.166 F 
ATOM     16  F   UNL     1      35.981 -20.109 -20.721  0.00  0.00    -0.166 F 
ATOM     17  C   UNL     1      36.356 -18.909 -21.253  0.00  0.00    +0.419 C 
ENDBRANCH  11  17
ENDBRANCH   2   8
BRANCH   1  18
ATOM     18  C   UNL     1      33.612 -11.219 -24.682  0.00  0.00    -0.052 C 
BRANCH  18  19
ATOM     19  C   UNL     1      34.185 -10.425 -23.518  0.00  0.00    +0.088 C 
BRANCH  19  21
ATOM     20  O   UNL     1      31.811 -11.086 -21.774  0.00  0.00    -0.247 OA
ATOM     21  N   UNL     1      33.197  -9.550 -22.949  0.00  0.00    -0.282 N 
ATOM     22  N   UNL     1      31.399  -8.758 -21.805  0.00  0.00    -0.305 N 
ATOM     23  C   UNL     1      33.151  -8.155 -23.108  0.00  0.00    +0.079 A 
ATOM     24  C   UNL     1      32.102  -9.954 -22.131  0.00  0.00    +0.328 A 
ATOM     25  C   UNL     1      32.047  -7.677 -22.405  0.00  0.00    +0.076 A 
ATOM     26  C   UNL     1      33.985  -7.304 -23.805  0.00  0.00    +0.019 C 
ATOM     27  C   UNL     1      31.721  -6.340 -22.360  0.00  0.00    +0.019 C 
ATOM     28  C   UNL     1      33.674  -5.941 -23.774  0.00  0.00    +0.002 C 
ATOM     29  C   UNL     1      32.555  -5.464 -23.060  0.00  0.00    +0.002 C 
ATOM     30  H   UNL     1      30.589  -8.704 -21.249  0.00  0.00    +0.170 HD
ENDBRANCH  19  21
ENDBRANCH  18  19
ENDBRANCH   1  18
TORSDOF 5
ENDMDL
MODEL 7
REMARK VINA RESULT:     -10.4      3.675      5.581
REMARK  Name = 6918248
REMARK  5 active torsions:
REMARK  status: ('A' for Active; 'I' for Inactive)
REMARK    1  A    between atoms: N_1  and  C_18
REMARK    2  A    between atoms: N_2  and  C_8
REMARK    3  A    between atoms: C_11  and  C_17
REMARK    4  A    between atoms: C_18  and  C_19
REMARK    5  A    between atoms: C_19  and  N_21
REMARK                            x       y       z     vdW  Elec       q    Type
REMARK                         _______ _______ _______ _____ _____    ______ ____
ROOT
ATOM      1  N   UNL     1      35.203 -16.839 -23.110  0.00  0.00    +0.391 N 
ATOM      2  N   UNL     1      33.997 -14.259 -22.877  0.00  0.00    -0.312 N 
ATOM      3  C   UNL     1      34.378 -16.304 -24.200  0.00  0.00    -0.055 C 
ATOM      4  C   UNL     1      34.684 -16.374 -21.817  0.00  0.00    -0.055 C 
ATOM      5  C   UNL     1      34.387 -14.774 -24.196  0.00  0.00    +0.068 C 
ATOM      6  C   UNL     1      34.703 -14.846 -21.735  0.00  0.00    +0.068 C 
ATOM      7  H   UNL     1      36.158 -16.498 -23.222  0.00  0.00    -0.079 HD
ENDROOT
BRANCH   2   8
ATOM      8  C   UNL     1      33.518 -12.947 -22.799  0.00  0.00    +0.048 C 
ATOM      9  C   UNL     1      32.634 -12.556 -21.774  0.00  0.00    +0.018 C 
ATOM     10  C   UNL     1      33.906 -11.976 -23.744  0.00  0.00    +0.015 C 
ATOM     11  C   UNL     1      32.158 -11.247 -21.696  0.00  0.00    +0.073 C 
ATOM     12  C   UNL     1      33.431 -10.667 -23.665  0.00  0.00    +0.001 C 
ATOM     13  C   UNL     1      32.556 -10.302 -22.642  0.00  0.00    +0.004 C 
BRANCH  11  17
ATOM     14  F   UNL     1      31.566 -11.364 -19.381  0.00  0.00    -0.166 F 
ATOM     15  F   UNL     1      31.132  -9.508 -20.416  0.00  0.00    -0.166 F 
ATOM     16  F   UNL     1      29.945 -11.282 -20.828  0.00  0.00    -0.166 F 
ATOM     17  C   UNL     1      31.223 -10.858 -20.603  0.00  0.00    +0.419 C 
ENDBRANCH  11  17
ENDBRANCH   2   8
BRANCH   1  18
ATOM     18  C   UNL     1      35.230 -18.300 -23.157  0.00  0.00    -0.052 C 
BRANCH  18  19
ATOM     19  C   UNL     1      34.400 -18.882 -22.023  0.00  0.00    +0.088 C 
BRANCH  19  21
ATOM     20  O   UNL     1      37.370 -18.635 -21.540  0.00  0.00    -0.247 OA
ATOM     21  N   UNL     1      35.230 -19.562 -21.066  0.00  0.00    -0.282 N 
ATOM     22  N   UNL     1      37.023 -20.254 -19.852  0.00  0.00    -0.305 N 
ATOM     23  C   UNL     1      34.790 -20.514 -20.132  0.00  0.00    +0.079 A 
ATOM     24  C   UNL     1      36.635 -19.381 -20.909  0.00  0.00    +0.328 A 
ATOM     25  C   UNL     1      35.894 -20.934 -19.393  0.00  0.00    +0.076 A 
ATOM     26  C   UNL     1      33.529 -21.021 -19.896  0.00  0.00    +0.019 C 
ATOM     27  C   UNL     1      35.798 -21.872 -18.388  0.00  0.00    +0.019 C 
ATOM     28  C   UNL     1      33.406 -21.975 -18.880  0.00  0.00    +0.002 C 
ATOM     29  C   UNL     1      34.527 -22.396 -18.135  0.00  0.00    +0.002 C 
ATOM     30  H   UNL     1      37.937 -20.361 -19.504  0.00  0.00    +0.170 HD
ENDBRANCH  19  21
ENDBRANCH  18  19
ENDBRANCH   1  18
TORSDOF 5
ENDMDL
MODEL 8
REMARK VINA RESULT:     -10.3      5.088     10.206
REMARK  Name = 6918248
REMARK  5 active torsions:
REMARK  status: ('A' for Active; 'I' for Inactive)
REMARK    1  A    between atoms: N_1  and  C_18
REMARK    2  A    between atoms: N_2  and  C_8
REMARK    3  A    between atoms: C_11  and  C_17
REMARK    4  A    between atoms: C_18  and  C_19
REMARK    5  A    between atoms: C_19  and  N_21
REMARK                            x       y       z     vdW  Elec       q    Type
REMARK                         _______ _______ _______ _____ _____    ______ ____
ROOT
ATOM      1  N   UNL     1      33.407 -11.736 -22.897  0.00  0.00    +0.391 N 
ATOM      2  N   UNL     1      33.760 -14.534 -23.359  0.00  0.00    -0.312 N 
ATOM      3  C   UNL     1      32.717 -12.720 -22.055  0.00  0.00    -0.055 C 
ATOM      4  C   UNL     1      33.537 -12.254 -24.266  0.00  0.00    -0.055 C 
ATOM      5  C   UNL     1      33.492 -14.038 -22.002  0.00  0.00    +0.068 C 
ATOM      6  C   UNL     1      34.339 -13.557 -24.286  0.00  0.00    +0.068 C 
ATOM      7  H   UNL     1      34.341 -11.574 -22.518  0.00  0.00    -0.079 HD
ENDROOT
BRANCH   2   8
ATOM      8  C   UNL     1      34.040 -15.895 -23.518  0.00  0.00    +0.048 C 
ATOM      9  C   UNL     1      34.869 -16.577 -22.606  0.00  0.00    +0.018 C 
ATOM     10  C   UNL     1      33.501 -16.625 -24.597  0.00  0.00    +0.015 C 
ATOM     11  C   UNL     1      35.148 -17.934 -22.765  0.00  0.00    +0.073 C 
ATOM     12  C   UNL     1      33.779 -17.983 -24.755  0.00  0.00    +0.001 C 
ATOM     13  C   UNL     1      34.604 -18.638 -23.840  0.00  0.00    +0.004 C 
BRANCH  11  17
ATOM     14  F   UNL     1      35.595 -19.887 -21.457  0.00  0.00    -0.166 F 
ATOM     15  F   UNL     1      37.309 -18.807 -22.230  0.00  0.00    -0.166 F 
ATOM     16  F   UNL     1      36.139 -17.963 -20.604  0.00  0.00    -0.166 F 
ATOM     17  C   UNL     1      36.029 -18.635 -21.787  0.00  0.00    +0.419 C 
ENDBRANCH  11  17
ENDBRANCH   2   8
BRANCH   1  18
ATOM     18  C   UNL     1      32.687 -10.463 -22.896  0.00  0.00    -0.052 C 
BRANCH  18  19
ATOM     19  C   UNL     1      31.735 -10.396 -21.711  0.00  0.00    +0.088 C 
BRANCH  19  21
ATOM     20  O   UNL     1      32.458  -9.854 -18.831  0.00  0.00    -0.247 OA
ATOM     21  N   UNL     1      31.855  -9.141 -21.019  0.00  0.00    -0.282 N 
ATOM     22  N   UNL     1      32.197  -7.576 -19.407  0.00  0.00    -0.305 N 
ATOM     23  C   UNL     1      31.646  -7.872 -21.585  0.00  0.00    +0.079 A 
ATOM     24  C   UNL     1      32.203  -8.980 -19.647  0.00  0.00    +0.328 A 
ATOM     25  C   UNL     1      31.857  -6.919 -20.591  0.00  0.00    +0.076 A 
ATOM     26  C   UNL     1      31.295  -7.510 -22.869  0.00  0.00    +0.019 C 
ATOM     27  C   UNL     1      31.731  -5.567 -20.825  0.00  0.00    +0.019 C 
ATOM     28  C   UNL     1      31.161  -6.142 -23.131  0.00  0.00    +0.002 C 
ATOM     29  C   UNL     1      31.376  -5.182 -22.120  0.00  0.00    +0.002 C 
ATOM     30  H   UNL     1      32.399  -7.141 -18.548  0.00  0.00    +0.170 HD
ENDBRANCH  19  21
ENDBRANCH  18  19
ENDBRANCH   1  18
TORSDOF 5
ENDMDL
MODEL 9
REMARK VINA RESULT:     -10.3      7.974     12.419
REMARK  Name = 6918248
REMARK  5 active torsions:
REMARK  status: ('A' for Active; 'I' for Inactive)
REMARK    1  A    between atoms: N_1  and  C_18
REMARK    2  A    between atoms: N_2  and  C_8
REMARK    3  A    between atoms: C_11  and  C_17
REMARK    4  A    between atoms: C_18  and  C_19
REMARK    5  A    between atoms: C_19  and  N_21
REMARK                            x       y       z     vdW  Elec       q    Type
REMARK                         _______ _______ _______ _____ _____    ______ ____
ROOT
ATOM      1  N   UNL     1      35.674 -19.749 -21.444  0.00  0.00    +0.391 N 
ATOM      2  N   UNL     1      34.834 -21.198 -19.129  0.00  0.00    -0.312 N 
ATOM      3  C   UNL     1      36.604 -19.974 -20.331  0.00  0.00    -0.055 C 
ATOM      4  C   UNL     1      34.307 -19.601 -20.929  0.00  0.00    -0.055 C 
ATOM      5  C   UNL     1      36.239 -21.242 -19.557  0.00  0.00    +0.068 C 
ATOM      6  C   UNL     1      33.865 -20.857 -20.175  0.00  0.00    +0.068 C 
ATOM      7  H   UNL     1      35.705 -20.556 -22.068  0.00  0.00    -0.079 HD
ENDROOT
BRANCH   2   8
ATOM      8  C   UNL     1      34.446 -22.015 -18.062  0.00  0.00    +0.048 C 
ATOM      9  C   UNL     1      35.376 -22.421 -17.083  0.00  0.00    +0.018 C 
ATOM     10  C   UNL     1      33.114 -22.455 -17.931  0.00  0.00    +0.015 C 
ATOM     11  C   UNL     1      34.988 -23.234 -16.018  0.00  0.00    +0.073 C 
ATOM     12  C   UNL     1      32.726 -23.268 -16.866  0.00  0.00    +0.001 C 
ATOM     13  C   UNL     1      33.663 -23.658 -15.910  0.00  0.00    +0.004 C 
BRANCH  11  17
ATOM     14  F   UNL     1      35.923 -22.932 -13.837  0.00  0.00    -0.166 F 
ATOM     15  F   UNL     1      35.867 -24.957 -14.612  0.00  0.00    -0.166 F 
ATOM     16  F   UNL     1      37.275 -23.520 -15.435  0.00  0.00    -0.166 F 
ATOM     17  C   UNL     1      35.990 -23.652 -14.996  0.00  0.00    +0.419 C 
ENDBRANCH  11  17
ENDBRANCH   2   8
BRANCH   1  18
ATOM     18  C   UNL     1      36.066 -18.565 -22.209  0.00  0.00    -0.052 C 
BRANCH  18  19
ATOM     19  C   UNL     1      35.142 -17.400 -21.889  0.00  0.00    +0.088 C 
BRANCH  19  21
ATOM     20  O   UNL     1      34.221 -18.830 -24.382  0.00  0.00    -0.247 OA
ATOM     21  N   UNL     1      34.547 -16.864 -23.083  0.00  0.00    -0.282 N 
ATOM     22  N   UNL     1      33.613 -16.677 -25.146  0.00  0.00    -0.305 N 
ATOM     23  C   UNL     1      34.271 -15.507 -23.321  0.00  0.00    +0.079 A 
ATOM     24  C   UNL     1      34.141 -17.621 -24.220  0.00  0.00    +0.328 A 
ATOM     25  C   UNL     1      33.699 -15.401 -24.587  0.00  0.00    +0.076 A 
ATOM     26  C   UNL     1      34.480 -14.397 -22.528  0.00  0.00    +0.019 C 
ATOM     27  C   UNL     1      33.309 -14.193 -25.123  0.00  0.00    +0.019 C 
ATOM     28  C   UNL     1      34.093 -13.159 -23.051  0.00  0.00    +0.002 C 
ATOM     29  C   UNL     1      33.514 -13.058 -24.334  0.00  0.00    +0.002 C 
ATOM     30  H   UNL     1      33.247 -16.889 -26.035  0.00  0.00    +0.170 HD
ENDBRANCH  19  21
ENDBRANCH  18  19
ENDBRANCH   1  18
TORSDOF 5
ENDMDL
