MODEL 1
REMARK VINA RESULT:     -12.0      0.000      0.000
REMARK  Name = 57336276
REMARK  5 active torsions:
REMARK  status: ('A' for Active; 'I' for Inactive)
REMARK    1  A    between atoms: C_2  and  C_16
REMARK    2  A    between atoms: C_6  and  O_17
REMARK    3  A    between atoms: O_17  and  C_18
REMARK    4  A    between atoms: C_18  and  C_21
REMARK    5  A    between atoms: C_22  and  C_26
REMARK                            x       y       z     vdW  Elec       q    Type
REMARK                         _______ _______ _______ _____ _____    ______ ____
ROOT
ATOM      1  N   UNL     1      32.989 -12.654 -22.605  0.00  0.00    -0.210 NA
ATOM      2  C   UNL     1      33.444 -14.188 -24.417  0.00  0.00    +0.073 C 
ATOM      3  C   UNL     1      33.793 -13.122 -25.240  0.00  0.00    +0.011 C 
ATOM      4  C   UNL     1      33.053 -13.903 -23.118  0.00  0.00    +0.107 C 
ATOM      5  C   UNL     1      33.740 -11.823 -24.747  0.00  0.00    +0.058 C 
ATOM      6  C   UNL     1      33.335 -11.644 -23.434  0.00  0.00    +0.225 C 
ENDROOT
BRANCH   2  16
ATOM      7  S   UNL     1      35.078 -18.535 -22.199  0.00  0.00    -0.007 S 
ATOM      8  O   UNL     1      34.390 -19.096 -21.053  0.00  0.00    -0.173 OA
ATOM      9  O   UNL     1      36.414 -18.976 -22.553  0.00  0.00    -0.173 OA
ATOM     10  O   UNL     1      32.665 -15.865 -25.772  0.00  0.00    -0.270 OA
ATOM     11  N   UNL     1      34.442 -16.432 -24.360  0.00  0.00    -0.272 N 
ATOM     12  C   UNL     1      34.026 -18.743 -23.626  0.00  0.00    +0.172 C 
ATOM     13  C   UNL     1      35.107 -16.760 -22.008  0.00  0.00    +0.172 C 
ATOM     14  C   UNL     1      34.460 -17.839 -24.770  0.00  0.00    +0.119 C 
ATOM     15  C   UNL     1      35.424 -16.069 -23.326  0.00  0.00    +0.119 C 
ATOM     16  C   UNL     1      33.489 -15.570 -24.908  0.00  0.00    +0.251 C 
ENDBRANCH   2  16
BRANCH   6  17
ATOM     17  O   UNL     1      33.276 -10.374 -22.925  0.00  0.00    -0.455 OA
BRANCH  17  18
ATOM     18  C   UNL     1      32.018  -9.944 -22.419  0.00  0.00    +0.238 C 
BRANCH  18  21
ATOM     19  O   UNL     1      32.315  -8.099 -19.240  0.00  0.00    -0.358 OA
ATOM     20  N   UNL     1      32.843  -7.143 -20.099  0.00  0.00    -0.078 NA
ATOM     21  C   UNL     1      32.244  -8.995 -21.280  0.00  0.00    +0.075 A 
ATOM     22  C   UNL     1      32.790  -7.701 -21.312  0.00  0.00    +0.122 A 
ATOM     23  C   UNL     1      31.962  -9.197 -19.954  0.00  0.00    +0.154 A 
ATOM     24  C   UNL     1      31.381 -10.313 -19.194  0.00  0.00    +0.075 C 
BRANCH  22  26
ATOM     25  F   UNL     1      34.624  -4.913 -25.769  0.00  0.00    -0.204 F 
ATOM     26  C   UNL     1      33.264  -6.980 -22.463  0.00  0.00    +0.021 C 
ATOM     27  C   UNL     1      32.400  -6.140 -23.165  0.00  0.00    +0.004 C 
ATOM     28  C   UNL     1      34.588  -7.123 -22.880  0.00  0.00    +0.004 C 
ATOM     29  C   UNL     1      32.859  -5.441 -24.281  0.00  0.00    +0.030 C 
ATOM     30  C   UNL     1      35.047  -6.424 -23.997  0.00  0.00    +0.030 C 
ATOM     31  C   UNL     1      34.183  -5.584 -24.697  0.00  0.00    +0.140 C 
ENDBRANCH  22  26
ENDBRANCH  18  21
ENDBRANCH  17  18
ENDBRANCH   6  17
TORSDOF 5
ENDMDL
MODEL 2
REMARK VINA RESULT:     -10.3      8.914     13.209
REMARK  Name = 57336276
REMARK  5 active torsions:
REMARK  status: ('A' for Active; 'I' for Inactive)
REMARK    1  A    between atoms: C_2  and  C_16
REMARK    2  A    between atoms: C_6  and  O_17
REMARK    3  A    between atoms: O_17  and  C_18
REMARK    4  A    between atoms: C_18  and  C_21
REMARK    5  A    between atoms: C_22  and  C_26
REMARK                            x       y       z     vdW  Elec       q    Type
REMARK                         _______ _______ _______ _____ _____    ______ ____
ROOT
ATOM      1  N   UNL     1      35.869 -22.662 -16.570  0.00  0.00    -0.210 NA
ATOM      2  C   UNL     1      37.676 -23.547 -15.230  0.00  0.00    +0.073 C 
ATOM      3  C   UNL     1      38.561 -22.653 -15.821  0.00  0.00    +0.011 C 
ATOM      4  C   UNL     1      36.350 -23.512 -15.635  0.00  0.00    +0.107 C 
ATOM      5  C   UNL     1      38.102 -21.763 -16.785  0.00  0.00    +0.058 C 
ATOM      6  C   UNL     1      36.759 -21.807 -17.121  0.00  0.00    +0.225 C 
ENDROOT
BRANCH   2  16
ATOM      7  S   UNL     1      35.820 -24.676 -10.564  0.00  0.00    -0.007 S 
ATOM      8  O   UNL     1      34.528 -25.313 -10.405  0.00  0.00    -0.173 OA
ATOM      9  O   UNL     1      36.479 -24.040  -9.439  0.00  0.00    -0.173 OA
ATOM     10  O   UNL     1      38.759 -25.473 -14.619  0.00  0.00    -0.270 OA
ATOM     11  N   UNL     1      37.810 -24.235 -12.875  0.00  0.00    -0.272 N 
ATOM     12  C   UNL     1      36.942 -25.877 -11.261  0.00  0.00    +0.172 C 
ATOM     13  C   UNL     1      35.684 -23.478 -11.881  0.00  0.00    +0.172 C 
ATOM     14  C   UNL     1      38.178 -25.207 -11.842  0.00  0.00    +0.119 C 
ATOM     15  C   UNL     1      37.056 -23.067 -12.395  0.00  0.00    +0.119 C 
ATOM     16  C   UNL     1      38.129 -24.499 -14.209  0.00  0.00    +0.251 C 
ENDBRANCH   2  16
BRANCH   6  17
ATOM     17  O   UNL     1      36.282 -20.940 -18.069  0.00  0.00    -0.455 OA
BRANCH  17  18
ATOM     18  C   UNL     1      35.904 -21.502 -19.320  0.00  0.00    +0.238 C 
BRANCH  18  21
ATOM     19  O   UNL     1      32.218 -21.640 -19.298  0.00  0.00    -0.358 OA
ATOM     20  N   UNL     1      32.394 -20.620 -20.226  0.00  0.00    -0.078 NA
ATOM     21  C   UNL     1      34.421 -21.357 -19.494  0.00  0.00    +0.075 A 
ATOM     22  C   UNL     1      33.718 -20.469 -20.327  0.00  0.00    +0.122 A 
ATOM     23  C   UNL     1      33.431 -22.071 -18.870  0.00  0.00    +0.154 A 
ATOM     24  C   UNL     1      33.427 -23.156 -17.879  0.00  0.00    +0.075 C 
BRANCH  22  26
ATOM     25  F   UNL     1      35.854 -16.644 -23.762  0.00  0.00    -0.204 F 
ATOM     26  C   UNL     1      34.270 -19.481 -21.214  0.00  0.00    +0.021 C 
ATOM     27  C   UNL     1      35.125 -18.497 -20.718  0.00  0.00    +0.004 C 
ATOM     28  C   UNL     1      33.950 -19.505 -22.572  0.00  0.00    +0.004 C 
ATOM     29  C   UNL     1      35.661 -17.539 -21.578  0.00  0.00    +0.030 C 
ATOM     30  C   UNL     1      34.485 -18.547 -23.433  0.00  0.00    +0.030 C 
ATOM     31  C   UNL     1      35.340 -17.564 -22.936  0.00  0.00    +0.140 C 
ENDBRANCH  22  26
ENDBRANCH  18  21
ENDBRANCH  17  18
ENDBRANCH   6  17
TORSDOF 5
ENDMDL
MODEL 3
REMARK VINA RESULT:     -10.2      4.436     10.170
REMARK  Name = 57336276
REMARK  5 active torsions:
REMARK  status: ('A' for Active; 'I' for Inactive)
REMARK    1  A    between atoms: C_2  and  C_16
REMARK    2  A    between atoms: C_6  and  O_17
REMARK    3  A    between atoms: O_17  and  C_18
REMARK    4  A    between atoms: C_18  and  C_21
REMARK    5  A    between atoms: C_22  and  C_26
REMARK                            x       y       z     vdW  Elec       q    Type
REMARK                         _______ _______ _______ _____ _____    ______ ____
ROOT
ATOM      1  N   UNL     1      32.562 -11.163 -22.212  0.00  0.00    -0.210 NA
ATOM      2  C   UNL     1      33.761  -9.265 -23.111  0.00  0.00    +0.073 C 
ATOM      3  C   UNL     1      34.453 -10.104 -23.976  0.00  0.00    +0.011 C 
ATOM      4  C   UNL     1      32.833  -9.839 -22.255  0.00  0.00    +0.107 C 
ATOM      5  C   UNL     1      34.201 -11.472 -23.961  0.00  0.00    +0.058 C 
ATOM      6  C   UNL     1      33.254 -11.946 -23.067  0.00  0.00    +0.225 C 
ENDROOT
BRANCH   2  16
ATOM      7  S   UNL     1      30.628  -5.292 -22.168  0.00  0.00    -0.007 S 
ATOM      8  O   UNL     1      30.063  -5.079 -20.849  0.00  0.00    -0.173 OA
ATOM      9  O   UNL     1      30.084  -4.612 -23.328  0.00  0.00    -0.173 OA
ATOM     10  O   UNL     1      35.157  -7.464 -22.862  0.00  0.00    -0.270 OA
ATOM     11  N   UNL     1      32.925  -6.968 -23.356  0.00  0.00    -0.272 N 
ATOM     12  C   UNL     1      32.375  -4.937 -22.081  0.00  0.00    +0.172 C 
ATOM     13  C   UNL     1      30.616  -7.048 -22.492  0.00  0.00    +0.172 C 
ATOM     14  C   UNL     1      33.117  -5.518 -23.275  0.00  0.00    +0.119 C 
ATOM     15  C   UNL     1      31.548  -7.402 -23.642  0.00  0.00    +0.119 C 
ATOM     16  C   UNL     1      34.004  -7.818 -23.103  0.00  0.00    +0.251 C 
ENDBRANCH   2  16
BRANCH   6  17
ATOM     17  O   UNL     1      32.988 -13.290 -23.034  0.00  0.00    -0.455 OA
BRANCH  17  18
ATOM     18  C   UNL     1      34.102 -14.167 -23.149  0.00  0.00    +0.238 C 
BRANCH  18  21
ATOM     19  O   UNL     1      33.355 -15.922 -26.307  0.00  0.00    -0.358 OA
ATOM     20  N   UNL     1      33.740 -17.011 -25.536  0.00  0.00    -0.078 NA
ATOM     21  C   UNL     1      33.870 -15.105 -24.297  0.00  0.00    +0.075 A 
ATOM     22  C   UNL     1      34.043 -16.499 -24.339  0.00  0.00    +0.122 A 
ATOM     23  C   UNL     1      33.436 -14.792 -25.559  0.00  0.00    +0.154 A 
ATOM     24  C   UNL     1      33.061 -13.538 -26.226  0.00  0.00    +0.075 C 
BRANCH  22  26
ATOM     25  F   UNL     1      35.770 -19.820 -20.217  0.00  0.00    -0.204 F 
ATOM     26  C   UNL     1      34.489 -17.357 -23.274  0.00  0.00    +0.021 C 
ATOM     27  C   UNL     1      35.007 -16.804 -22.103  0.00  0.00    +0.004 C 
ATOM     28  C   UNL     1      34.404 -18.743 -23.412  0.00  0.00    +0.004 C 
ATOM     29  C   UNL     1      35.439 -17.636 -21.070  0.00  0.00    +0.030 C 
ATOM     30  C   UNL     1      34.837 -19.575 -22.379  0.00  0.00    +0.030 C 
ATOM     31  C   UNL     1      35.354 -19.021 -21.209  0.00  0.00    +0.140 C 
ENDBRANCH  22  26
ENDBRANCH  18  21
ENDBRANCH  17  18
ENDBRANCH   6  17
TORSDOF 5
ENDMDL
MODEL 4
REMARK VINA RESULT:     -10.1      4.521     10.335
REMARK  Name = 57336276
REMARK  5 active torsions:
REMARK  status: ('A' for Active; 'I' for Inactive)
REMARK    1  A    between atoms: C_2  and  C_16
REMARK    2  A    between atoms: C_6  and  O_17
REMARK    3  A    between atoms: O_17  and  C_18
REMARK    4  A    between atoms: C_18  and  C_21
REMARK    5  A    between atoms: C_22  and  C_26
REMARK                            x       y       z     vdW  Elec       q    Type
REMARK                         _______ _______ _______ _____ _____    ______ ____
ROOT
ATOM      1  N   UNL     1      33.385 -13.621 -21.709  0.00  0.00    -0.210 NA
ATOM      2  C   UNL     1      32.439 -11.441 -22.154  0.00  0.00    +0.073 C 
ATOM      3  C   UNL     1      33.188 -11.347 -23.321  0.00  0.00    +0.011 C 
ATOM      4  C   UNL     1      32.571 -12.590 -21.389  0.00  0.00    +0.107 C 
ATOM      5  C   UNL     1      34.035 -12.389 -23.684  0.00  0.00    +0.058 C 
ATOM      6  C   UNL     1      34.097 -13.494 -22.851  0.00  0.00    +0.225 C 
ENDROOT
BRANCH   2  16
ATOM      7  S   UNL     1      32.419  -6.417 -23.271  0.00  0.00    -0.007 S 
ATOM      8  O   UNL     1      32.164  -5.950 -24.619  0.00  0.00    -0.173 OA
ATOM      9  O   UNL     1      32.996  -5.534 -22.275  0.00  0.00    -0.173 OA
ATOM     10  O   UNL     1      30.389 -10.693 -21.452  0.00  0.00    -0.270 OA
ATOM     11  N   UNL     1      32.037  -9.056 -21.725  0.00  0.00    -0.272 N 
ATOM     12  C   UNL     1      30.891  -7.070 -22.619  0.00  0.00    +0.172 C 
ATOM     13  C   UNL     1      33.438  -7.879 -23.379  0.00  0.00    +0.172 C 
ATOM     14  C   UNL     1      31.139  -7.945 -21.399  0.00  0.00    +0.119 C 
ATOM     15  C   UNL     1      33.412  -8.667 -22.077  0.00  0.00    +0.119 C 
ATOM     16  C   UNL     1      31.536 -10.359 -21.744  0.00  0.00    +0.251 C 
ENDBRANCH   2  16
BRANCH   6  17
ATOM     17  O   UNL     1      34.924 -14.533 -23.186  0.00  0.00    -0.455 OA
BRANCH  17  18
ATOM     18  C   UNL     1      34.751 -15.748 -22.466  0.00  0.00    +0.238 C 
BRANCH  18  21
ATOM     19  O   UNL     1      33.702 -17.948 -25.234  0.00  0.00    -0.358 OA
ATOM     20  N   UNL     1      34.153 -18.915 -24.344  0.00  0.00    -0.078 NA
ATOM     21  C   UNL     1      34.408 -16.845 -23.430  0.00  0.00    +0.075 A 
ATOM     22  C   UNL     1      34.570 -18.232 -23.274  0.00  0.00    +0.122 A 
ATOM     23  C   UNL     1      33.859 -16.720 -24.679  0.00  0.00    +0.154 A 
ATOM     24  C   UNL     1      33.428 -15.575 -25.494  0.00  0.00    +0.075 C 
BRANCH  22  26
ATOM     25  F   UNL     1      36.662 -20.919 -18.868  0.00  0.00    -0.204 F 
ATOM     26  C   UNL     1      35.110 -18.926 -22.136  0.00  0.00    +0.021 C 
ATOM     27  C   UNL     1      36.444 -18.739 -21.772  0.00  0.00    +0.004 C 
ATOM     28  C   UNL     1      34.301 -19.788 -21.394  0.00  0.00    +0.004 C 
ATOM     29  C   UNL     1      36.968 -19.411 -20.668  0.00  0.00    +0.030 C 
ATOM     30  C   UNL     1      34.825 -20.461 -20.290  0.00  0.00    +0.030 C 
ATOM     31  C   UNL     1      36.158 -20.273 -19.928  0.00  0.00    +0.140 C 
ENDBRANCH  22  26
ENDBRANCH  18  21
ENDBRANCH  17  18
ENDBRANCH   6  17
TORSDOF 5
ENDMDL
MODEL 5
REMARK VINA RESULT:      -9.9      4.355     10.194
REMARK  Name = 57336276
REMARK  5 active torsions:
REMARK  status: ('A' for Active; 'I' for Inactive)
REMARK    1  A    between atoms: C_2  and  C_16
REMARK    2  A    between atoms: C_6  and  O_17
REMARK    3  A    between atoms: O_17  and  C_18
REMARK    4  A    between atoms: C_18  and  C_21
REMARK    5  A    between atoms: C_22  and  C_26
REMARK                            x       y       z     vdW  Elec       q    Type
REMARK                         _______ _______ _______ _____ _____    ______ ____
ROOT
ATOM      1  N   UNL     1      31.713 -12.410 -20.943  0.00  0.00    -0.210 NA
ATOM      2  C   UNL     1      32.162 -10.034 -20.947  0.00  0.00    +0.073 C 
ATOM      3  C   UNL     1      32.795 -10.149 -22.179  0.00  0.00    +0.011 C 
ATOM      4  C   UNL     1      31.642 -11.185 -20.375  0.00  0.00    +0.107 C 
ATOM      5  C   UNL     1      32.887 -11.392 -22.795  0.00  0.00    +0.058 C 
ATOM      6  C   UNL     1      32.335 -12.482 -22.141  0.00  0.00    +0.225 C 
ENDROOT
BRANCH   2  16
ATOM      7  S   UNL     1      31.246  -5.312 -22.779  0.00  0.00    -0.007 S 
ATOM      8  O   UNL     1      29.968  -4.974 -23.374  0.00  0.00    -0.173 OA
ATOM      9  O   UNL     1      32.405  -4.461 -22.972  0.00  0.00    -0.173 OA
ATOM     10  O   UNL     1      31.693  -8.768 -19.094  0.00  0.00    -0.270 OA
ATOM     11  N   UNL     1      32.339  -7.584 -21.006  0.00  0.00    -0.272 N 
ATOM     12  C   UNL     1      30.995  -5.523 -21.024  0.00  0.00    +0.172 C 
ATOM     13  C   UNL     1      31.674  -6.966 -23.299  0.00  0.00    +0.172 C 
ATOM     14  C   UNL     1      32.157  -6.270 -20.385  0.00  0.00    +0.119 C 
ATOM     15  C   UNL     1      32.762  -7.558 -22.415  0.00  0.00    +0.119 C 
ATOM     16  C   UNL     1      32.048  -8.736 -20.271  0.00  0.00    +0.251 C 
ENDBRANCH   2  16
BRANCH   6  17
ATOM     17  O   UNL     1      32.413 -13.718 -22.727  0.00  0.00    -0.455 OA
BRANCH  17  18
ATOM     18  C   UNL     1      33.698 -14.326 -22.771  0.00  0.00    +0.238 C 
BRANCH  18  21
ATOM     19  O   UNL     1      33.823 -15.662 -26.207  0.00  0.00    -0.358 OA
ATOM     20  N   UNL     1      34.234 -16.795 -25.515  0.00  0.00    -0.078 NA
ATOM     21  C   UNL     1      33.831 -15.100 -24.050  0.00  0.00    +0.075 A 
ATOM     22  C   UNL     1      34.231 -16.435 -24.229  0.00  0.00    +0.122 A 
ATOM     23  C   UNL     1      33.585 -14.660 -25.324  0.00  0.00    +0.154 A 
ATOM     24  C   UNL     1      33.138 -13.380 -25.892  0.00  0.00    +0.075 C 
BRANCH  22  26
ATOM     25  F   UNL     1      35.703 -20.084 -20.289  0.00  0.00    -0.204 F 
ATOM     26  C   UNL     1      34.611 -17.378 -23.211  0.00  0.00    +0.021 C 
ATOM     27  C   UNL     1      35.321 -16.946 -22.090  0.00  0.00    +0.004 C 
ATOM     28  C   UNL     1      34.271 -18.725 -23.344  0.00  0.00    +0.004 C 
ATOM     29  C   UNL     1      35.689 -17.860 -21.103  0.00  0.00    +0.030 C 
ATOM     30  C   UNL     1      34.640 -19.639 -22.356  0.00  0.00    +0.030 C 
ATOM     31  C   UNL     1      35.349 -19.206 -21.237  0.00  0.00    +0.140 C 
ENDBRANCH  22  26
ENDBRANCH  18  21
ENDBRANCH  17  18
ENDBRANCH   6  17
TORSDOF 5
ENDMDL
MODEL 6
REMARK VINA RESULT:      -9.9      8.097     13.285
REMARK  Name = 57336276
REMARK  5 active torsions:
REMARK  status: ('A' for Active; 'I' for Inactive)
REMARK    1  A    between atoms: C_2  and  C_16
REMARK    2  A    between atoms: C_6  and  O_17
REMARK    3  A    between atoms: O_17  and  C_18
REMARK    4  A    between atoms: C_18  and  C_21
REMARK    5  A    between atoms: C_22  and  C_26
REMARK                            x       y       z     vdW  Elec       q    Type
REMARK                         _______ _______ _______ _____ _____    ______ ____
ROOT
ATOM      1  N   UNL     1      32.836 -20.952 -19.683  0.00  0.00    -0.210 NA
ATOM      2  C   UNL     1      35.043 -20.099 -20.181  0.00  0.00    +0.073 C 
ATOM      3  C   UNL     1      35.616 -21.145 -19.466  0.00  0.00    +0.011 C 
ATOM      4  C   UNL     1      33.660 -20.048 -20.259  0.00  0.00    +0.107 C 
ATOM      5  C   UNL     1      34.800 -22.095 -18.860  0.00  0.00    +0.058 C 
ATOM      6  C   UNL     1      33.429 -21.954 -18.997  0.00  0.00    +0.225 C 
ENDROOT
BRANCH   2  16
ATOM      7  S   UNL     1      34.204 -17.148 -24.313  0.00  0.00    -0.007 S 
ATOM      8  O   UNL     1      33.177 -16.125 -24.308  0.00  0.00    -0.173 OA
ATOM      9  O   UNL     1      34.796 -17.601 -25.558  0.00  0.00    -0.173 OA
ATOM     10  O   UNL     1      36.697 -18.513 -20.113  0.00  0.00    -0.270 OA
ATOM     11  N   UNL     1      35.671 -18.834 -22.191  0.00  0.00    -0.272 N 
ATOM     12  C   UNL     1      35.520 -16.611 -23.233  0.00  0.00    +0.172 C 
ATOM     13  C   UNL     1      33.565 -18.573 -23.448  0.00  0.00    +0.172 C 
ATOM     14  C   UNL     1      36.430 -17.768 -22.850  0.00  0.00    +0.119 C 
ATOM     15  C   UNL     1      34.686 -19.520 -23.042  0.00  0.00    +0.119 C 
ATOM     16  C   UNL     1      35.876 -19.081 -20.831  0.00  0.00    +0.251 C 
ENDBRANCH   2  16
BRANCH   6  17
ATOM     17  O   UNL     1      32.605 -22.878 -18.409  0.00  0.00    -0.455 OA
BRANCH  17  18
ATOM     18  C   UNL     1      33.218 -23.824 -17.543  0.00  0.00    +0.238 C 
BRANCH  18  21
ATOM     19  O   UNL     1      31.732 -22.937 -14.286  0.00  0.00    -0.358 OA
ATOM     20  N   UNL     1      33.054 -23.093 -13.889  0.00  0.00    -0.078 NA
ATOM     21  C   UNL     1      32.867 -23.490 -16.123  0.00  0.00    +0.075 A 
ATOM     22  C   UNL     1      33.713 -23.423 -15.003  0.00  0.00    +0.122 A 
ATOM     23  C   UNL     1      31.633 -23.175 -15.618  0.00  0.00    +0.154 A 
ATOM     24  C   UNL     1      30.292 -23.053 -16.206  0.00  0.00    +0.075 C 
BRANCH  22  26
ATOM     25  F   UNL     1      39.200 -24.358 -14.847  0.00  0.00    -0.204 F 
ATOM     26  C   UNL     1      35.131 -23.664 -14.963  0.00  0.00    +0.021 C 
ATOM     27  C   UNL     1      35.616 -24.904 -14.545  0.00  0.00    +0.004 C 
ATOM     28  C   UNL     1      36.022 -22.659 -15.341  0.00  0.00    +0.004 C 
ATOM     29  C   UNL     1      36.990 -25.138 -14.507  0.00  0.00    +0.030 C 
ATOM     30  C   UNL     1      37.397 -22.894 -15.302  0.00  0.00    +0.030 C 
ATOM     31  C   UNL     1      37.880 -24.133 -14.884  0.00  0.00    +0.140 C 
ENDBRANCH  22  26
ENDBRANCH  18  21
ENDBRANCH  17  18
ENDBRANCH   6  17
TORSDOF 5
ENDMDL
MODEL 7
REMARK VINA RESULT:      -9.8      4.343     10.279
REMARK  Name = 57336276
REMARK  5 active torsions:
REMARK  status: ('A' for Active; 'I' for Inactive)
REMARK    1  A    between atoms: C_2  and  C_16
REMARK    2  A    between atoms: C_6  and  O_17
REMARK    3  A    between atoms: O_17  and  C_18
REMARK    4  A    between atoms: C_18  and  C_21
REMARK    5  A    between atoms: C_22  and  C_26
REMARK                            x       y       z     vdW  Elec       q    Type
REMARK                         _______ _______ _______ _____ _____    ______ ____
ROOT
ATOM      1  N   UNL     1      34.346 -13.303 -23.374  0.00  0.00    -0.210 NA
ATOM      2  C   UNL     1      33.354 -11.125 -23.031  0.00  0.00    +0.073 C 
ATOM      3  C   UNL     1      32.524 -11.651 -22.047  0.00  0.00    +0.011 C 
ATOM      4  C   UNL     1      34.241 -11.986 -23.659  0.00  0.00    +0.107 C 
ATOM      5  C   UNL     1      32.604 -13.002 -21.726  0.00  0.00    +0.058 C 
ATOM      6  C   UNL     1      33.523 -13.778 -22.413  0.00  0.00    +0.225 C 
ENDROOT
BRANCH   2  16
ATOM      7  S   UNL     1      32.239  -6.946 -20.241  0.00  0.00    -0.007 S 
ATOM      8  O   UNL     1      33.109  -6.507 -19.168  0.00  0.00    -0.173 OA
ATOM      9  O   UNL     1      30.885  -6.439 -20.355  0.00  0.00    -0.173 OA
ATOM     10  O   UNL     1      33.995  -9.358 -24.343  0.00  0.00    -0.270 OA
ATOM     11  N   UNL     1      32.467  -8.868 -22.640  0.00  0.00    -0.272 N 
ATOM     12  C   UNL     1      33.079  -6.643 -21.787  0.00  0.00    +0.172 C 
ATOM     13  C   UNL     1      32.167  -8.729 -20.196  0.00  0.00    +0.172 C 
ATOM     14  C   UNL     1      32.447  -7.430 -22.925  0.00  0.00    +0.119 C 
ATOM     15  C   UNL     1      31.633  -9.293 -21.505  0.00  0.00    +0.119 C 
ATOM     16  C   UNL     1      33.294  -9.704 -23.393  0.00  0.00    +0.251 C 
ENDBRANCH   2  16
BRANCH   6  17
ATOM     17  O   UNL     1      33.621 -15.112 -22.114  0.00  0.00    -0.455 OA
BRANCH  17  18
ATOM     18  C   UNL     1      34.797 -15.781 -22.552  0.00  0.00    +0.238 C 
BRANCH  18  21
ATOM     19  O   UNL     1      33.642 -18.030 -25.239  0.00  0.00    -0.358 OA
ATOM     20  N   UNL     1      34.090 -18.982 -24.333  0.00  0.00    -0.078 NA
ATOM     21  C   UNL     1      34.409 -16.896 -23.480  0.00  0.00    +0.075 A 
ATOM     22  C   UNL     1      34.544 -18.282 -23.290  0.00  0.00    +0.122 A 
ATOM     23  C   UNL     1      33.837 -16.791 -24.720  0.00  0.00    +0.154 A 
ATOM     24  C   UNL     1      33.414 -15.658 -25.555  0.00  0.00    +0.075 C 
BRANCH  22  26
ATOM     25  F   UNL     1      36.668 -20.897 -18.857  0.00  0.00    -0.204 F 
ATOM     26  C   UNL     1      35.093 -18.958 -22.145  0.00  0.00    +0.021 C 
ATOM     27  C   UNL     1      34.288 -19.804 -21.381  0.00  0.00    +0.004 C 
ATOM     28  C   UNL     1      36.430 -18.767 -21.795  0.00  0.00    +0.004 C 
ATOM     29  C   UNL     1      34.820 -20.459 -20.272  0.00  0.00    +0.030 C 
ATOM     30  C   UNL     1      36.962 -19.422 -20.685  0.00  0.00    +0.030 C 
ATOM     31  C   UNL     1      36.157 -20.268 -19.923  0.00  0.00    +0.140 C 
ENDBRANCH  22  26
ENDBRANCH  18  21
ENDBRANCH  17  18
ENDBRANCH   6  17
TORSDOF 5
ENDMDL
MODEL 8
REMARK VINA RESULT:      -9.7      7.689     11.659
REMARK  Name = 57336276
REMARK  5 active torsions:
REMARK  status: ('A' for Active; 'I' for Inactive)
REMARK    1  A    between atoms: C_2  and  C_16
REMARK    2  A    between atoms: C_6  and  O_17
REMARK    3  A    between atoms: O_17  and  C_18
REMARK    4  A    between atoms: C_18  and  C_21
REMARK    5  A    between atoms: C_22  and  C_26
REMARK                            x       y       z     vdW  Elec       q    Type
REMARK                         _______ _______ _______ _____ _____    ______ ____
ROOT
ATOM      1  N   UNL     1      32.620 -21.923 -18.770  0.00  0.00    -0.210 NA
ATOM      2  C   UNL     1      33.302 -22.856 -16.646  0.00  0.00    +0.073 C 
ATOM      3  C   UNL     1      34.636 -22.765 -17.027  0.00  0.00    +0.011 C 
ATOM      4  C   UNL     1      32.340 -22.425 -17.546  0.00  0.00    +0.107 C 
ATOM      5  C   UNL     1      34.964 -22.253 -18.278  0.00  0.00    +0.058 C 
ATOM      6  C   UNL     1      33.928 -21.850 -19.105  0.00  0.00    +0.225 C 
ENDROOT
BRANCH   2  16
ATOM      7  S   UNL     1      36.138 -24.130 -12.545  0.00  0.00    -0.007 S 
ATOM      8  O   UNL     1      36.857 -23.124 -11.788  0.00  0.00    -0.173 OA
ATOM      9  O   UNL     1      36.447 -25.539 -12.388  0.00  0.00    -0.173 OA
ATOM     10  O   UNL     1      31.787 -23.126 -14.948  0.00  0.00    -0.270 OA
ATOM     11  N   UNL     1      33.871 -24.142 -14.632  0.00  0.00    -0.272 N 
ATOM     12  C   UNL     1      34.394 -23.905 -12.239  0.00  0.00    +0.172 C 
ATOM     13  C   UNL     1      36.274 -23.717 -14.276  0.00  0.00    +0.172 C 
ATOM     14  C   UNL     1      33.552 -24.622 -13.284  0.00  0.00    +0.119 C 
ATOM     15  C   UNL     1      35.229 -24.454 -15.102  0.00  0.00    +0.119 C 
ATOM     16  C   UNL     1      32.924 -23.392 -15.333  0.00  0.00    +0.251 C 
ENDBRANCH   2  16
BRANCH   6  17
ATOM     17  O   UNL     1      34.225 -21.342 -20.342  0.00  0.00    -0.455 OA
BRANCH  17  18
ATOM     18  C   UNL     1      34.193 -19.926 -20.478  0.00  0.00    +0.238 C 
BRANCH  18  21
ATOM     19  O   UNL     1      37.740 -19.062 -21.004  0.00  0.00    -0.358 OA
ATOM     20  N   UNL     1      37.193 -18.430 -22.114  0.00  0.00    -0.078 NA
ATOM     21  C   UNL     1      35.546 -19.445 -20.914  0.00  0.00    +0.075 A 
ATOM     22  C   UNL     1      35.881 -18.672 -22.039  0.00  0.00    +0.122 A 
ATOM     23  C   UNL     1      36.750 -19.663 -20.297  0.00  0.00    +0.154 A 
ATOM     24  C   UNL     1      37.158 -20.383 -19.083  0.00  0.00    +0.075 C 
BRANCH  22  26
ATOM     25  F   UNL     1      32.428 -16.685 -25.927  0.00  0.00    -0.204 F 
ATOM     26  C   UNL     1      34.989 -18.159 -23.043  0.00  0.00    +0.021 C 
ATOM     27  C   UNL     1      34.902 -16.784 -23.263  0.00  0.00    +0.004 C 
ATOM     28  C   UNL     1      34.210 -19.035 -23.799  0.00  0.00    +0.004 C 
ATOM     29  C   UNL     1      34.038 -16.286 -24.238  0.00  0.00    +0.030 C 
ATOM     30  C   UNL     1      33.344 -18.537 -24.773  0.00  0.00    +0.030 C 
ATOM     31  C   UNL     1      33.258 -17.163 -24.992  0.00  0.00    +0.140 C 
ENDBRANCH  22  26
ENDBRANCH  18  21
ENDBRANCH  17  18
ENDBRANCH   6  17
TORSDOF 5
ENDMDL
MODEL 9
REMARK VINA RESULT:      -9.2      7.711     11.601
REMARK  Name = 57336276
REMARK  5 active torsions:
REMARK  status: ('A' for Active; 'I' for Inactive)
REMARK    1  A    between atoms: C_2  and  C_16
REMARK    2  A    between atoms: C_6  and  O_17
REMARK    3  A    between atoms: O_17  and  C_18
REMARK    4  A    between atoms: C_18  and  C_21
REMARK    5  A    between atoms: C_22  and  C_26
REMARK                            x       y       z     vdW  Elec       q    Type
REMARK                         _______ _______ _______ _____ _____    ______ ____
ROOT
ATOM      1  N   UNL     1      35.409 -21.739 -18.655  0.00  0.00    -0.210 NA
ATOM      2  C   UNL     1      34.298 -22.974 -16.898  0.00  0.00    +0.073 C 
ATOM      3  C   UNL     1      33.082 -22.830 -17.556  0.00  0.00    +0.011 C 
ATOM      4  C   UNL     1      35.424 -22.415 -17.484  0.00  0.00    +0.107 C 
ATOM      5  C   UNL     1      33.029 -22.141 -18.764  0.00  0.00    +0.058 C 
ATOM      6  C   UNL     1      34.210 -21.619 -19.265  0.00  0.00    +0.225 C 
ENDROOT
BRANCH   2  16
ATOM      7  S   UNL     1      30.675 -24.416 -13.539  0.00  0.00    -0.007 S 
ATOM      8  O   UNL     1      29.682 -25.412 -13.890  0.00  0.00    -0.173 OA
ATOM      9  O   UNL     1      30.493 -23.560 -12.382  0.00  0.00    -0.173 OA
ATOM     10  O   UNL     1      35.355 -24.445 -15.492  0.00  0.00    -0.270 OA
ATOM     11  N   UNL     1      33.384 -23.484 -14.676  0.00  0.00    -0.272 N 
ATOM     12  C   UNL     1      32.249 -25.242 -13.381  0.00  0.00    +0.172 C 
ATOM     13  C   UNL     1      30.937 -23.376 -14.967  0.00  0.00    +0.172 C 
ATOM     14  C   UNL     1      33.402 -24.250 -13.426  0.00  0.00    +0.119 C 
ATOM     15  C   UNL     1      32.231 -22.585 -14.842  0.00  0.00    +0.119 C 
ATOM     16  C   UNL     1      34.388 -23.695 -15.623  0.00  0.00    +0.251 C 
ENDBRANCH   2  16
BRANCH   6  17
ATOM     17  O   UNL     1      34.183 -20.937 -20.453  0.00  0.00    -0.455 OA
BRANCH  17  18
ATOM     18  C   UNL     1      34.325 -19.524 -20.383  0.00  0.00    +0.238 C 
BRANCH  18  21
ATOM     19  O   UNL     1      37.835 -18.824 -21.277  0.00  0.00    -0.358 OA
ATOM     20  N   UNL     1      37.214 -18.312 -22.409  0.00  0.00    -0.078 NA
ATOM     21  C   UNL     1      35.648 -19.134 -20.975  0.00  0.00    +0.075 A 
ATOM     22  C   UNL     1      35.908 -18.507 -22.206  0.00  0.00    +0.122 A 
ATOM     23  C   UNL     1      36.893 -19.311 -20.430  0.00  0.00    +0.154 A 
ATOM     24  C   UNL     1      37.382 -19.894 -19.173  0.00  0.00    +0.075 C 
BRANCH  22  26
ATOM     25  F   UNL     1      32.198 -16.896 -26.032  0.00  0.00    -0.204 F 
ATOM     26  C   UNL     1      34.949 -18.091 -23.194  0.00  0.00    +0.021 C 
ATOM     27  C   UNL     1      34.162 -19.040 -23.846  0.00  0.00    +0.004 C 
ATOM     28  C   UNL     1      34.806 -16.737 -23.502  0.00  0.00    +0.004 C 
ATOM     29  C   UNL     1      33.232 -18.636 -24.804  0.00  0.00    +0.030 C 
ATOM     30  C   UNL     1      33.876 -16.334 -24.461  0.00  0.00    +0.030 C 
ATOM     31  C   UNL     1      33.090 -17.283 -25.112  0.00  0.00    +0.140 C 
ENDBRANCH  22  26
ENDBRANCH  18  21
ENDBRANCH  17  18
ENDBRANCH   6  17
TORSDOF 5
ENDMDL
