MODEL 1
REMARK VINA RESULT:     -11.3      0.000      0.000
REMARK  Name = 10050566
REMARK  9 active torsions:
REMARK  status: ('A' for Active; 'I' for Inactive)
REMARK    1  A    between atoms: C_2  and  N_11
REMARK    2  A    between atoms: C_3  and  O_22
REMARK    3  A    between atoms: C_12  and  C_14
REMARK    4  A    between atoms: C_19  and  O_20
REMARK    5  A    between atoms: O_22  and  C_24
REMARK    6  A    between atoms: C_24  and  C_25
REMARK    7  A    between atoms: C_30  and  C_32
REMARK    8  A    between atoms: C_32  and  C_33
REMARK    9  A    between atoms: C_34  and  O_39
REMARK                            x       y       z     vdW  Elec       q    Type
REMARK                         _______ _______ _______ _____ _____    ______ ____
ROOT
ATOM      1  N   UNL     1      32.172 -22.148 -13.985  0.00  0.00    +0.385 N 
ATOM      2  C   UNL     1      34.277 -23.101 -14.944  0.00  0.00    +0.091 C 
ATOM      3  C   UNL     1      33.562 -23.872 -16.067  0.00  0.00    +0.185 C 
ATOM      4  C   UNL     1      32.359 -24.726 -15.650  0.00  0.00    +0.043 C 
ATOM      5  C   UNL     1      33.452 -22.793 -13.690  0.00  0.00    -0.058 C 
ATOM      6  C   UNL     1      31.073 -23.950 -15.354  0.00  0.00    -0.020 C 
ATOM      7  C   UNL     1      31.087 -23.127 -14.071  0.00  0.00    -0.082 C 
ATOM      8  H   UNL     1      32.246 -21.656 -14.876  0.00  0.00    -0.084 HD
ATOM      9  H   UNL     1      31.959 -21.499 -13.228  0.00  0.00    -0.084 HD
ENDROOT
BRANCH   2  11
ATOM     10  O   UNL     1      36.949 -22.602 -15.865  0.00  0.00    -0.270 OA
ATOM     11  N   UNL     1      35.477 -23.816 -14.548  0.00  0.00    -0.301 N 
ATOM     12  C   UNL     1      36.722 -23.495 -15.053  0.00  0.00    +0.246 C 
ATOM     13  H   UNL     1      35.400 -24.553 -13.900  0.00  0.00    +0.150 HD
BRANCH  12  14
ATOM     14  C   UNL     1      37.846 -24.339 -14.569  0.00  0.00    +0.054 C 
ATOM     15  C   UNL     1      39.028 -24.344 -15.280  0.00  0.00    +0.008 C 
ATOM     16  C   UNL     1      37.672 -25.091 -13.425  0.00  0.00    +0.008 C 
ATOM     17  C   UNL     1      40.084 -25.135 -14.826  0.00  0.00    +0.037 C 
ATOM     18  C   UNL     1      38.727 -25.881 -12.971  0.00  0.00    +0.037 C 
ATOM     19  C   UNL     1      39.933 -25.904 -13.673  0.00  0.00    +0.134 C 
BRANCH  19  20
ATOM     20  O   UNL     1      40.963 -26.674 -13.228  0.00  0.00    -0.506 OA
ATOM     21  H   UNL     1      41.466 -27.179 -13.837  0.00  0.00    +0.292 HD
ENDBRANCH  19  20
ENDBRANCH  12  14
ENDBRANCH   2  11
BRANCH   3  22
ATOM     22  O   UNL     1      33.177 -22.957 -17.098  0.00  0.00    -0.448 OA
BRANCH  22  24
ATOM     23  O   UNL     1      33.506 -24.412 -18.851  0.00  0.00    -0.245 OA
ATOM     24  C   UNL     1      33.557 -23.297 -18.355  0.00  0.00    +0.341 C 
BRANCH  24  25
ATOM     25  C   UNL     1      34.063 -22.105 -19.081  0.00  0.00    +0.076 C 
ATOM     26  C   UNL     1      33.155 -21.233 -19.646  0.00  0.00    +0.007 C 
ATOM     27  C   UNL     1      35.426 -21.907 -19.170  0.00  0.00    +0.007 C 
ATOM     28  C   UNL     1      33.631 -20.113 -20.329  0.00  0.00    +0.003 C 
ATOM     29  C   UNL     1      35.902 -20.789 -19.852  0.00  0.00    +0.003 C 
ATOM     30  C   UNL     1      35.004 -19.891 -20.432  0.00  0.00    +0.039 C 
BRANCH  30  32
ATOM     31  O   UNL     1      36.434 -18.056 -20.677  0.00  0.00    -0.286 OA
ATOM     32  C   UNL     1      35.500 -18.725 -21.145  0.00  0.00    +0.198 C 
BRANCH  32  33
ATOM     33  C   UNL     1      34.923 -18.278 -22.449  0.00  0.00    +0.073 C 
ATOM     34  C   UNL     1      34.760 -16.934 -22.694  0.00  0.00    +0.137 C 
ATOM     35  C   UNL     1      34.576 -19.248 -23.362  0.00  0.00    +0.006 C 
ATOM     36  C   UNL     1      34.220 -16.538 -23.917  0.00  0.00    +0.037 C 
ATOM     37  C   UNL     1      34.036 -18.852 -24.585  0.00  0.00    +0.000 C 
ATOM     38  C   UNL     1      33.858 -17.497 -24.863  0.00  0.00    +0.003 C 
BRANCH  34  39
ATOM     39  O   UNL     1      35.107 -15.982 -21.783  0.00  0.00    -0.505 OA
ATOM     40  H   UNL     1      34.530 -15.779 -21.072  0.00  0.00    +0.292 HD
ENDBRANCH  34  39
ENDBRANCH  32  33
ENDBRANCH  30  32
ENDBRANCH  24  25
ENDBRANCH  22  24
ENDBRANCH   3  22
TORSDOF 9
ENDMDL
MODEL 2
REMARK VINA RESULT:     -10.7      2.214      5.835
REMARK  Name = 10050566
REMARK  9 active torsions:
REMARK  status: ('A' for Active; 'I' for Inactive)
REMARK    1  A    between atoms: C_2  and  N_11
REMARK    2  A    between atoms: C_3  and  O_22
REMARK    3  A    between atoms: C_12  and  C_14
REMARK    4  A    between atoms: C_19  and  O_20
REMARK    5  A    between atoms: O_22  and  C_24
REMARK    6  A    between atoms: C_24  and  C_25
REMARK    7  A    between atoms: C_30  and  C_32
REMARK    8  A    between atoms: C_32  and  C_33
REMARK    9  A    between atoms: C_34  and  O_39
REMARK                            x       y       z     vdW  Elec       q    Type
REMARK                         _______ _______ _______ _____ _____    ______ ____
ROOT
ATOM      1  N   UNL     1      34.928 -25.355 -14.190  0.00  0.00    +0.385 N 
ATOM      2  C   UNL     1      33.033 -24.298 -15.435  0.00  0.00    +0.091 C 
ATOM      3  C   UNL     1      33.827 -23.035 -15.816  0.00  0.00    +0.185 C 
ATOM      4  C   UNL     1      34.587 -22.340 -14.681  0.00  0.00    +0.043 C 
ATOM      5  C   UNL     1      33.498 -25.048 -14.182  0.00  0.00    -0.058 C 
ATOM      6  C   UNL     1      35.881 -23.027 -14.239  0.00  0.00    -0.020 C 
ATOM      7  C   UNL     1      35.698 -24.335 -13.477  0.00  0.00    -0.082 C 
ATOM      8  H   UNL     1      35.253 -25.400 -15.156  0.00  0.00    -0.084 HD
ATOM      9  H   UNL     1      35.066 -26.249 -13.719  0.00  0.00    -0.084 HD
ENDROOT
BRANCH   2  11
ATOM     10  O   UNL     1      31.466 -22.658 -17.193  0.00  0.00    -0.270 OA
ATOM     11  N   UNL     1      31.629 -23.965 -15.285  0.00  0.00    -0.301 N 
ATOM     12  C   UNL     1      30.963 -23.163 -16.193  0.00  0.00    +0.246 C 
ATOM     13  H   UNL     1      31.134 -24.322 -14.512  0.00  0.00    +0.150 HD
BRANCH  12  14
ATOM     14  C   UNL     1      29.535 -22.895 -15.883  0.00  0.00    +0.054 C 
ATOM     15  C   UNL     1      28.601 -23.015 -16.892  0.00  0.00    +0.008 C 
ATOM     16  C   UNL     1      29.187 -22.533 -14.598  0.00  0.00    +0.008 C 
ATOM     17  C   UNL     1      27.260 -22.763 -16.602  0.00  0.00    +0.037 C 
ATOM     18  C   UNL     1      27.846 -22.282 -14.308  0.00  0.00    +0.037 C 
ATOM     19  C   UNL     1      26.883 -22.397 -15.311  0.00  0.00    +0.134 C 
BRANCH  19  20
ATOM     20  O   UNL     1      25.574 -22.153 -15.027  0.00  0.00    -0.506 OA
ATOM     21  H   UNL     1      25.330 -21.839 -14.179  0.00  0.00    +0.292 HD
ENDBRANCH  19  20
ENDBRANCH  12  14
ENDBRANCH   2  11
BRANCH   3  22
ATOM     22  O   UNL     1      34.724 -23.345 -16.887  0.00  0.00    -0.448 OA
BRANCH  22  24
ATOM     23  O   UNL     1      33.442 -24.255 -18.568  0.00  0.00    -0.245 OA
ATOM     24  C   UNL     1      34.169 -23.380 -18.124  0.00  0.00    +0.341 C 
BRANCH  24  25
ATOM     25  C   UNL     1      34.570 -22.181 -18.903  0.00  0.00    +0.076 C 
ATOM     26  C   UNL     1      33.591 -21.432 -19.524  0.00  0.00    +0.007 C 
ATOM     27  C   UNL     1      35.908 -21.854 -18.982  0.00  0.00    +0.007 C 
ATOM     28  C   UNL     1      33.968 -20.306 -20.257  0.00  0.00    +0.003 C 
ATOM     29  C   UNL     1      36.285 -20.729 -19.714  0.00  0.00    +0.003 C 
ATOM     30  C   UNL     1      35.315 -19.954 -20.352  0.00  0.00    +0.039 C 
BRANCH  30  32
ATOM     31  O   UNL     1      36.617 -18.044 -20.707  0.00  0.00    -0.286 OA
ATOM     32  C   UNL     1      35.708 -18.781 -21.116  0.00  0.00    +0.198 C 
BRANCH  32  33
ATOM     33  C   UNL     1      35.050 -18.408 -22.405  0.00  0.00    +0.073 C 
ATOM     34  C   UNL     1      34.792 -17.085 -22.678  0.00  0.00    +0.137 C 
ATOM     35  C   UNL     1      34.728 -19.424 -23.277  0.00  0.00    +0.006 C 
ATOM     36  C   UNL     1      34.179 -16.758 -23.887  0.00  0.00    +0.037 C 
ATOM     37  C   UNL     1      34.115 -19.098 -24.487  0.00  0.00    +0.000 C 
ATOM     38  C   UNL     1      33.840 -17.765 -24.791  0.00  0.00    +0.003 C 
BRANCH  34  39
ATOM     39  O   UNL     1      35.116 -16.087 -21.808  0.00  0.00    -0.505 OA
ATOM     40  H   UNL     1      36.015 -15.902 -21.619  0.00  0.00    +0.292 HD
ENDBRANCH  34  39
ENDBRANCH  32  33
ENDBRANCH  30  32
ENDBRANCH  24  25
ENDBRANCH  22  24
ENDBRANCH   3  22
TORSDOF 9
ENDMDL
MODEL 3
REMARK VINA RESULT:      -9.6      2.481      8.377
REMARK  Name = 10050566
REMARK  9 active torsions:
REMARK  status: ('A' for Active; 'I' for Inactive)
REMARK    1  A    between atoms: C_2  and  N_11
REMARK    2  A    between atoms: C_3  and  O_22
REMARK    3  A    between atoms: C_12  and  C_14
REMARK    4  A    between atoms: C_19  and  O_20
REMARK    5  A    between atoms: O_22  and  C_24
REMARK    6  A    between atoms: C_24  and  C_25
REMARK    7  A    between atoms: C_30  and  C_32
REMARK    8  A    between atoms: C_32  and  C_33
REMARK    9  A    between atoms: C_34  and  O_39
REMARK                            x       y       z     vdW  Elec       q    Type
REMARK                         _______ _______ _______ _____ _____    ______ ____
ROOT
ATOM      1  N   UNL     1      28.659 -23.457 -16.039  0.00  0.00    +0.385 N 
ATOM      2  C   UNL     1      31.076 -23.288 -16.660  0.00  0.00    +0.091 C 
ATOM      3  C   UNL     1      31.580 -23.358 -15.207  0.00  0.00    +0.185 C 
ATOM      4  C   UNL     1      30.897 -22.423 -14.203  0.00  0.00    +0.043 C 
ATOM      5  C   UNL     1      29.650 -22.769 -16.866  0.00  0.00    -0.058 C 
ATOM      6  C   UNL     1      29.502 -22.856 -13.746  0.00  0.00    -0.020 C 
ATOM      7  C   UNL     1      28.403 -22.730 -14.795  0.00  0.00    -0.082 C 
ATOM      8  H   UNL     1      29.006 -24.390 -15.812  0.00  0.00    -0.084 HD
ATOM      9  H   UNL     1      27.786 -23.512 -16.563  0.00  0.00    -0.084 HD
ENDROOT
BRANCH   2  11
ATOM     10  O   UNL     1      33.500 -24.177 -17.912  0.00  0.00    -0.270 OA
ATOM     11  N   UNL     1      31.985 -22.484 -17.454  0.00  0.00    -0.301 N 
ATOM     12  C   UNL     1      33.132 -23.011 -18.017  0.00  0.00    +0.246 C 
ATOM     13  H   UNL     1      31.778 -21.532 -17.597  0.00  0.00    +0.150 HD
BRANCH  12  14
ATOM     14  C   UNL     1      33.971 -22.050 -18.779  0.00  0.00    +0.054 C 
ATOM     15  C   UNL     1      33.354 -21.159 -19.633  0.00  0.00    +0.008 C 
ATOM     16  C   UNL     1      35.340 -22.080 -18.611  0.00  0.00    +0.008 C 
ATOM     17  C   UNL     1      34.141 -20.256 -20.349  0.00  0.00    +0.037 C 
ATOM     18  C   UNL     1      36.127 -21.177 -19.326  0.00  0.00    +0.037 C 
ATOM     19  C   UNL     1      35.526 -20.266 -20.195  0.00  0.00    +0.134 C 
BRANCH  19  20
ATOM     20  O   UNL     1      36.295 -19.384 -20.892  0.00  0.00    -0.506 OA
ATOM     21  H   UNL     1      37.116 -19.660 -21.249  0.00  0.00    +0.292 HD
ENDBRANCH  19  20
ENDBRANCH  12  14
ENDBRANCH   2  11
BRANCH   3  22
ATOM     22  O   UNL     1      31.506 -24.710 -14.744  0.00  0.00    -0.448 OA
BRANCH  22  24
ATOM     23  O   UNL     1      31.238 -25.309 -12.539  0.00  0.00    -0.245 OA
ATOM     24  C   UNL     1      31.923 -24.917 -13.471  0.00  0.00    +0.341 C 
BRANCH  24  25
ATOM     25  C   UNL     1      33.366 -24.594 -13.341  0.00  0.00    +0.076 C 
ATOM     26  C   UNL     1      34.173 -24.687 -14.457  0.00  0.00    +0.007 C 
ATOM     27  C   UNL     1      33.857 -24.213 -12.109  0.00  0.00    +0.007 C 
ATOM     28  C   UNL     1      35.529 -24.385 -14.335  0.00  0.00    +0.003 C 
ATOM     29  C   UNL     1      35.213 -23.911 -11.987  0.00  0.00    +0.003 C 
ATOM     30  C   UNL     1      36.050 -23.997 -13.101  0.00  0.00    +0.039 C 
BRANCH  30  32
ATOM     31  O   UNL     1      37.825 -22.658 -12.376  0.00  0.00    -0.286 OA
ATOM     32  C   UNL     1      37.463 -23.682 -12.974  0.00  0.00    +0.198 C 
BRANCH  32  33
ATOM     33  C   UNL     1      38.532 -24.557 -13.545  0.00  0.00    +0.073 C 
ATOM     34  C   UNL     1      39.026 -24.292 -14.802  0.00  0.00    +0.137 C 
ATOM     35  C   UNL     1      38.983 -25.605 -12.774  0.00  0.00    +0.006 C 
ATOM     36  C   UNL     1      40.023 -25.119 -15.316  0.00  0.00    +0.037 C 
ATOM     37  C   UNL     1      39.981 -26.432 -13.288  0.00  0.00    +0.000 C 
ATOM     38  C   UNL     1      40.501 -26.190 -14.559  0.00  0.00    +0.003 C 
BRANCH  34  39
ATOM     39  O   UNL     1      38.573 -23.251 -15.556  0.00  0.00    -0.505 OA
ATOM     40  H   UNL     1      37.840 -23.371 -16.128  0.00  0.00    +0.292 HD
ENDBRANCH  34  39
ENDBRANCH  32  33
ENDBRANCH  30  32
ENDBRANCH  24  25
ENDBRANCH  22  24
ENDBRANCH   3  22
TORSDOF 9
ENDMDL
MODEL 4
REMARK VINA RESULT:      -9.6      7.624     12.099
REMARK  Name = 10050566
REMARK  9 active torsions:
REMARK  status: ('A' for Active; 'I' for Inactive)
REMARK    1  A    between atoms: C_2  and  N_11
REMARK    2  A    between atoms: C_3  and  O_22
REMARK    3  A    between atoms: C_12  and  C_14
REMARK    4  A    between atoms: C_19  and  O_20
REMARK    5  A    between atoms: O_22  and  C_24
REMARK    6  A    between atoms: C_24  and  C_25
REMARK    7  A    between atoms: C_30  and  C_32
REMARK    8  A    between atoms: C_32  and  C_33
REMARK    9  A    between atoms: C_34  and  O_39
REMARK                            x       y       z     vdW  Elec       q    Type
REMARK                         _______ _______ _______ _____ _____    ______ ____
ROOT
ATOM      1  N   UNL     1      32.927 -14.053 -25.744  0.00  0.00    +0.385 N 
ATOM      2  C   UNL     1      33.301 -14.942 -23.436  0.00  0.00    +0.091 C 
ATOM      3  C   UNL     1      33.477 -13.553 -22.798  0.00  0.00    +0.185 C 
ATOM      4  C   UNL     1      34.444 -12.596 -23.503  0.00  0.00    +0.043 C 
ATOM      5  C   UNL     1      33.616 -15.054 -24.931  0.00  0.00    -0.058 C 
ATOM      6  C   UNL     1      33.910 -11.947 -24.782  0.00  0.00    -0.020 C 
ATOM      7  C   UNL     1      33.771 -12.881 -25.979  0.00  0.00    -0.082 C 
ATOM      8  H   UNL     1      32.078 -13.759 -25.260  0.00  0.00    -0.084 HD
ATOM      9  H   UNL     1      32.702 -14.472 -26.647  0.00  0.00    -0.084 HD
ENDROOT
BRANCH   2  11
ATOM     10  O   UNL     1      33.585 -17.727 -24.069  0.00  0.00    -0.270 OA
ATOM     11  N   UNL     1      34.100 -15.916 -22.717  0.00  0.00    -0.301 N 
ATOM     12  C   UNL     1      34.170 -17.240 -23.105  0.00  0.00    +0.246 C 
ATOM     13  H   UNL     1      34.609 -15.624 -21.926  0.00  0.00    +0.150 HD
BRANCH  12  14
ATOM     14  C   UNL     1      35.011 -18.116 -22.248  0.00  0.00    +0.054 C 
ATOM     15  C   UNL     1      36.357 -17.840 -22.133  0.00  0.00    +0.008 C 
ATOM     16  C   UNL     1      34.419 -19.177 -21.595  0.00  0.00    +0.008 C 
ATOM     17  C   UNL     1      37.147 -18.661 -21.328  0.00  0.00    +0.037 C 
ATOM     18  C   UNL     1      35.207 -19.998 -20.790  0.00  0.00    +0.037 C 
ATOM     19  C   UNL     1      36.572 -19.740 -20.657  0.00  0.00    +0.134 C 
BRANCH  19  20
ATOM     20  O   UNL     1      37.341 -20.540 -19.870  0.00  0.00    -0.506 OA
ATOM     21  H   UNL     1      37.428 -20.354 -18.955  0.00  0.00    +0.292 HD
ENDBRANCH  19  20
ENDBRANCH  12  14
ENDBRANCH   2  11
BRANCH   3  22
ATOM     22  O   UNL     1      32.195 -12.933 -22.652  0.00  0.00    -0.448 OA
BRANCH  22  24
ATOM     23  O   UNL     1      31.535 -13.287 -20.476  0.00  0.00    -0.245 OA
ATOM     24  C   UNL     1      31.869 -12.552 -21.392  0.00  0.00    +0.341 C 
BRANCH  24  25
ATOM     25  C   UNL     1      31.968 -11.077 -21.257  0.00  0.00    +0.076 C 
ATOM     26  C   UNL     1      32.111 -10.312 -22.397  0.00  0.00    +0.007 C 
ATOM     27  C   UNL     1      31.917 -10.517 -19.997  0.00  0.00    +0.007 C 
ATOM     28  C   UNL     1      32.205  -8.925 -22.270  0.00  0.00    +0.003 C 
ATOM     29  C   UNL     1      32.011  -9.131 -19.871  0.00  0.00    +0.003 C 
ATOM     30  C   UNL     1      32.155  -8.335 -21.008  0.00  0.00    +0.039 C 
BRANCH  30  32
ATOM     31  O   UNL     1      32.384  -6.372 -19.757  0.00  0.00    -0.286 OA
ATOM     32  C   UNL     1      32.254  -6.890 -20.876  0.00  0.00    +0.198 C 
BRANCH  32  33
ATOM     33  C   UNL     1      32.204  -5.974 -22.055  0.00  0.00    +0.073 C 
ATOM     34  C   UNL     1      31.255  -4.978 -22.101  0.00  0.00    +0.137 C 
ATOM     35  C   UNL     1      33.125  -6.169 -23.059  0.00  0.00    +0.006 C 
ATOM     36  C   UNL     1      31.225  -4.133 -23.209  0.00  0.00    +0.037 C 
ATOM     37  C   UNL     1      33.096  -5.324 -24.168  0.00  0.00    +0.000 C 
ATOM     38  C   UNL     1      32.146  -4.307 -24.243  0.00  0.00    +0.003 C 
BRANCH  34  39
ATOM     39  O   UNL     1      30.347  -4.793 -21.101  0.00  0.00    -0.505 OA
ATOM     40  H   UNL     1      29.752  -5.481 -20.875  0.00  0.00    +0.292 HD
ENDBRANCH  34  39
ENDBRANCH  32  33
ENDBRANCH  30  32
ENDBRANCH  24  25
ENDBRANCH  22  24
ENDBRANCH   3  22
TORSDOF 9
ENDMDL
MODEL 5
REMARK VINA RESULT:      -9.5      1.527      2.330
REMARK  Name = 10050566
REMARK  9 active torsions:
REMARK  status: ('A' for Active; 'I' for Inactive)
REMARK    1  A    between atoms: C_2  and  N_11
REMARK    2  A    between atoms: C_3  and  O_22
REMARK    3  A    between atoms: C_12  and  C_14
REMARK    4  A    between atoms: C_19  and  O_20
REMARK    5  A    between atoms: O_22  and  C_24
REMARK    6  A    between atoms: C_24  and  C_25
REMARK    7  A    between atoms: C_30  and  C_32
REMARK    8  A    between atoms: C_32  and  C_33
REMARK    9  A    between atoms: C_34  and  O_39
REMARK                            x       y       z     vdW  Elec       q    Type
REMARK                         _______ _______ _______ _____ _____    ______ ____
ROOT
ATOM      1  N   UNL     1      32.913 -22.310 -14.892  0.00  0.00    +0.385 N 
ATOM      2  C   UNL     1      35.192 -22.984 -15.675  0.00  0.00    +0.091 C 
ATOM      3  C   UNL     1      34.740 -23.288 -17.115  0.00  0.00    +0.185 C 
ATOM      4  C   UNL     1      33.497 -24.171 -17.268  0.00  0.00    +0.043 C 
ATOM      5  C   UNL     1      34.118 -23.080 -14.586  0.00  0.00    -0.058 C 
ATOM      6  C   UNL     1      32.161 -23.479 -16.989  0.00  0.00    -0.020 C 
ATOM      7  C   UNL     1      31.891 -23.144 -15.526  0.00  0.00    -0.082 C 
ATOM      8  H   UNL     1      33.158 -21.548 -15.525  0.00  0.00    -0.084 HD
ATOM      9  H   UNL     1      32.534 -21.947 -14.017  0.00  0.00    -0.084 HD
ENDROOT
BRANCH   2  11
ATOM     10  O   UNL     1      37.302 -22.387 -13.825  0.00  0.00    -0.270 OA
ATOM     11  N   UNL     1      36.299 -23.851 -15.317  0.00  0.00    -0.301 N 
ATOM     12  C   UNL     1      37.268 -23.467 -14.410  0.00  0.00    +0.246 C 
ATOM     13  H   UNL     1      36.362 -24.740 -15.734  0.00  0.00    +0.150 HD
BRANCH  12  14
ATOM     14  C   UNL     1      38.350 -24.457 -14.171  0.00  0.00    +0.054 C 
ATOM     15  C   UNL     1      38.338 -25.186 -13.000  0.00  0.00    +0.008 C 
ATOM     16  C   UNL     1      39.332 -24.616 -15.127  0.00  0.00    +0.008 C 
ATOM     17  C   UNL     1      39.353 -26.116 -12.775  0.00  0.00    +0.037 C 
ATOM     18  C   UNL     1      40.347 -25.546 -14.902  0.00  0.00    +0.037 C 
ATOM     19  C   UNL     1      40.357 -26.296 -13.726  0.00  0.00    +0.134 C 
BRANCH  19  20
ATOM     20  O   UNL     1      41.347 -27.204 -13.508  0.00  0.00    -0.506 OA
ATOM     21  H   UNL     1      41.134 -28.111 -13.403  0.00  0.00    +0.292 HD
ENDBRANCH  19  20
ENDBRANCH  12  14
ENDBRANCH   2  11
BRANCH   3  22
ATOM     22  O   UNL     1      34.556 -22.058 -17.823  0.00  0.00    -0.448 OA
BRANCH  22  24
ATOM     23  O   UNL     1      36.803 -21.557 -17.815  0.00  0.00    -0.245 OA
ATOM     24  C   UNL     1      35.687 -21.486 -18.307  0.00  0.00    +0.341 C 
BRANCH  24  25
ATOM     25  C   UNL     1      35.392 -20.732 -19.551  0.00  0.00    +0.076 C 
ATOM     26  C   UNL     1      34.089 -20.674 -20.002  0.00  0.00    +0.007 C 
ATOM     27  C   UNL     1      36.429 -20.114 -20.219  0.00  0.00    +0.007 C 
ATOM     28  C   UNL     1      33.812 -19.967 -21.173  0.00  0.00    +0.003 C 
ATOM     29  C   UNL     1      36.152 -19.407 -21.388  0.00  0.00    +0.003 C 
ATOM     30  C   UNL     1      34.843 -19.333 -21.866  0.00  0.00    +0.039 C 
BRANCH  30  32
ATOM     31  O   UNL     1      34.329 -19.202 -24.143  0.00  0.00    -0.286 OA
ATOM     32  C   UNL     1      34.554 -18.596 -23.085  0.00  0.00    +0.198 C 
BRANCH  32  33
ATOM     33  C   UNL     1      34.516 -17.103 -23.128  0.00  0.00    +0.073 C 
ATOM     34  C   UNL     1      34.371 -16.462 -24.337  0.00  0.00    +0.137 C 
ATOM     35  C   UNL     1      34.629 -16.425 -21.935  0.00  0.00    +0.006 C 
ATOM     36  C   UNL     1      34.338 -15.069 -24.355  0.00  0.00    +0.037 C 
ATOM     37  C   UNL     1      34.595 -15.031 -21.953  0.00  0.00    +0.000 C 
ATOM     38  C   UNL     1      34.450 -14.353 -23.163  0.00  0.00    +0.003 C 
BRANCH  34  39
ATOM     39  O   UNL     1      34.260 -17.144 -25.512  0.00  0.00    -0.505 OA
ATOM     40  H   UNL     1      34.402 -16.701 -26.326  0.00  0.00    +0.292 HD
ENDBRANCH  34  39
ENDBRANCH  32  33
ENDBRANCH  30  32
ENDBRANCH  24  25
ENDBRANCH  22  24
ENDBRANCH   3  22
TORSDOF 9
ENDMDL
MODEL 6
REMARK VINA RESULT:      -9.5      6.631     13.550
REMARK  Name = 10050566
REMARK  9 active torsions:
REMARK  status: ('A' for Active; 'I' for Inactive)
REMARK    1  A    between atoms: C_2  and  N_11
REMARK    2  A    between atoms: C_3  and  O_22
REMARK    3  A    between atoms: C_12  and  C_14
REMARK    4  A    between atoms: C_19  and  O_20
REMARK    5  A    between atoms: O_22  and  C_24
REMARK    6  A    between atoms: C_24  and  C_25
REMARK    7  A    between atoms: C_30  and  C_32
REMARK    8  A    between atoms: C_32  and  C_33
REMARK    9  A    between atoms: C_34  and  O_39
REMARK                            x       y       z     vdW  Elec       q    Type
REMARK                         _______ _______ _______ _____ _____    ______ ____
ROOT
ATOM      1  N   UNL     1      34.482 -12.277 -26.103  0.00  0.00    +0.385 N 
ATOM      2  C   UNL     1      33.909 -11.276 -23.883  0.00  0.00    +0.091 C 
ATOM      3  C   UNL     1      33.445 -12.607 -23.266  0.00  0.00    +0.185 C 
ATOM      4  C   UNL     1      32.463 -13.439 -24.098  0.00  0.00    +0.043 C 
ATOM      5  C   UNL     1      33.833 -11.165 -25.409  0.00  0.00    -0.058 C 
ATOM      6  C   UNL     1      33.077 -14.194 -25.279  0.00  0.00    -0.020 C 
ATOM      7  C   UNL     1      33.522 -13.325 -26.450  0.00  0.00    -0.082 C 
ATOM      8  H   UNL     1      35.200 -12.673 -25.496  0.00  0.00    -0.084 HD
ATOM      9  H   UNL     1      34.893 -11.920 -26.966  0.00  0.00    -0.084 HD
ENDROOT
BRANCH   2  11
ATOM     10  O   UNL     1      34.884  -8.628 -23.361  0.00  0.00    -0.270 OA
ATOM     11  N   UNL     1      33.162 -10.179 -23.298  0.00  0.00    -0.301 N 
ATOM     12  C   UNL     1      33.727  -8.935 -23.087  0.00  0.00    +0.246 C 
ATOM     13  H   UNL     1      32.223 -10.325 -23.042  0.00  0.00    +0.150 HD
BRANCH  12  14
ATOM     14  C   UNL     1      32.838  -7.927 -22.454  0.00  0.00    +0.054 C 
ATOM     15  C   UNL     1      33.208  -7.382 -21.241  0.00  0.00    +0.008 C 
ATOM     16  C   UNL     1      31.672  -7.567 -23.097  0.00  0.00    +0.008 C 
ATOM     17  C   UNL     1      32.374  -6.435 -20.646  0.00  0.00    +0.037 C 
ATOM     18  C   UNL     1      30.839  -6.620 -22.503  0.00  0.00    +0.037 C 
ATOM     19  C   UNL     1      31.190  -6.054 -21.277  0.00  0.00    +0.134 C 
BRANCH  19  20
ATOM     20  O   UNL     1      30.378  -5.128 -20.698  0.00  0.00    -0.506 OA
ATOM     21  H   UNL     1      29.451  -5.266 -20.678  0.00  0.00    +0.292 HD
ENDBRANCH  19  20
ENDBRANCH  12  14
ENDBRANCH   2  11
BRANCH   3  22
ATOM     22  O   UNL     1      34.589 -13.396 -22.927  0.00  0.00    -0.448 OA
BRANCH  22  24
ATOM     23  O   UNL     1      34.529 -13.281 -20.629  0.00  0.00    -0.245 OA
ATOM     24  C   UNL     1      34.595 -13.912 -21.673  0.00  0.00    +0.341 C 
BRANCH  24  25
ATOM     25  C   UNL     1      34.697 -15.392 -21.724  0.00  0.00    +0.076 C 
ATOM     26  C   UNL     1      34.615 -16.107 -20.546  0.00  0.00    +0.007 C 
ATOM     27  C   UNL     1      34.871 -16.007 -22.947  0.00  0.00    +0.007 C 
ATOM     28  C   UNL     1      34.712 -17.498 -20.594  0.00  0.00    +0.003 C 
ATOM     29  C   UNL     1      34.968 -17.397 -22.995  0.00  0.00    +0.003 C 
ATOM     30  C   UNL     1      34.888 -18.144 -21.818  0.00  0.00    +0.039 C 
BRANCH  30  32
ATOM     31  O   UNL     1      35.128 -20.173 -22.955  0.00  0.00    -0.286 OA
ATOM     32  C   UNL     1      34.989 -19.593 -21.868  0.00  0.00    +0.198 C 
BRANCH  32  33
ATOM     33  C   UNL     1      34.931 -20.442 -20.640  0.00  0.00    +0.073 C 
ATOM     34  C   UNL     1      33.708 -20.813 -20.128  0.00  0.00    +0.137 C 
ATOM     35  C   UNL     1      36.123 -20.824 -20.067  0.00  0.00    +0.006 C 
ATOM     36  C   UNL     1      33.675 -21.605 -18.982  0.00  0.00    +0.037 C 
ATOM     37  C   UNL     1      36.091 -21.618 -18.921  0.00  0.00    +0.000 C 
ATOM     38  C   UNL     1      34.867 -22.008 -18.378  0.00  0.00    +0.003 C 
BRANCH  34  39
ATOM     39  O   UNL     1      32.534 -20.429 -20.704  0.00  0.00    -0.505 OA
ATOM     40  H   UNL     1      31.751 -20.920 -20.545  0.00  0.00    +0.292 HD
ENDBRANCH  34  39
ENDBRANCH  32  33
ENDBRANCH  30  32
ENDBRANCH  24  25
ENDBRANCH  22  24
ENDBRANCH   3  22
TORSDOF 9
ENDMDL
MODEL 7
REMARK VINA RESULT:      -9.4      7.502     14.495
REMARK  Name = 10050566
REMARK  9 active torsions:
REMARK  status: ('A' for Active; 'I' for Inactive)
REMARK    1  A    between atoms: C_2  and  N_11
REMARK    2  A    between atoms: C_3  and  O_22
REMARK    3  A    between atoms: C_12  and  C_14
REMARK    4  A    between atoms: C_19  and  O_20
REMARK    5  A    between atoms: O_22  and  C_24
REMARK    6  A    between atoms: C_24  and  C_25
REMARK    7  A    between atoms: C_30  and  C_32
REMARK    8  A    between atoms: C_32  and  C_33
REMARK    9  A    between atoms: C_34  and  O_39
REMARK                            x       y       z     vdW  Elec       q    Type
REMARK                         _______ _______ _______ _____ _____    ______ ____
ROOT
ATOM      1  N   UNL     1      35.928 -10.425 -25.127  0.00  0.00    +0.385 N 
ATOM      2  C   UNL     1      34.171  -9.827 -23.451  0.00  0.00    +0.091 C 
ATOM      3  C   UNL     1      33.382 -11.136 -23.628  0.00  0.00    +0.185 C 
ATOM      4  C   UNL     1      33.070 -11.554 -25.070  0.00  0.00    +0.043 C 
ATOM      5  C   UNL     1      35.032  -9.379 -24.636  0.00  0.00    -0.058 C 
ATOM      6  C   UNL     1      34.244 -12.148 -25.851  0.00  0.00    -0.020 C 
ATOM      7  C   UNL     1      35.334 -11.158 -26.246  0.00  0.00    -0.082 C 
ATOM      8  H   UNL     1      36.122 -11.079 -24.368  0.00  0.00    -0.084 HD
ATOM      9  H   UNL     1      36.788  -9.984 -25.454  0.00  0.00    -0.084 HD
ENDROOT
BRANCH   2  11
ATOM     10  O   UNL     1      34.884  -7.128 -22.787  0.00  0.00    -0.270 OA
ATOM     11  N   UNL     1      33.260  -8.752 -23.103  0.00  0.00    -0.301 N 
ATOM     12  C   UNL     1      33.708  -7.480 -22.798  0.00  0.00    +0.246 C 
ATOM     13  H   UNL     1      32.293  -8.934 -23.084  0.00  0.00    +0.150 HD
BRANCH  12  14
ATOM     14  C   UNL     1      32.652  -6.499 -22.437  0.00  0.00    +0.054 C 
ATOM     15  C   UNL     1      31.995  -6.642 -21.232  0.00  0.00    +0.008 C 
ATOM     16  C   UNL     1      32.362  -5.477 -23.317  0.00  0.00    +0.008 C 
ATOM     17  C   UNL     1      31.004  -5.721 -20.892  0.00  0.00    +0.037 C 
ATOM     18  C   UNL     1      31.371  -4.556 -22.976  0.00  0.00    +0.037 C 
ATOM     19  C   UNL     1      30.693  -4.678 -21.764  0.00  0.00    +0.134 C 
BRANCH  19  20
ATOM     20  O   UNL     1      29.727  -3.778 -21.431  0.00  0.00    -0.506 OA
ATOM     21  H   UNL     1      29.576  -3.032 -21.977  0.00  0.00    +0.292 HD
ENDBRANCH  19  20
ENDBRANCH  12  14
ENDBRANCH   2  11
BRANCH   3  22
ATOM     22  O   UNL     1      34.064 -12.195 -22.949  0.00  0.00    -0.448 OA
BRANCH  22  24
ATOM     23  O   UNL     1      32.195 -12.776 -21.738  0.00  0.00    -0.245 OA
ATOM     24  C   UNL     1      33.274 -13.043 -22.244  0.00  0.00    +0.341 C 
BRANCH  24  25
ATOM     25  C   UNL     1      33.905 -14.384 -22.158  0.00  0.00    +0.076 C 
ATOM     26  C   UNL     1      34.179 -14.913 -20.913  0.00  0.00    +0.007 C 
ATOM     27  C   UNL     1      34.199 -15.060 -23.324  0.00  0.00    +0.007 C 
ATOM     28  C   UNL     1      34.773 -16.173 -20.832  0.00  0.00    +0.003 C 
ATOM     29  C   UNL     1      34.792 -16.319 -23.243  0.00  0.00    +0.003 C 
ATOM     30  C   UNL     1      35.080 -16.876 -21.996  0.00  0.00    +0.039 C 
BRANCH  30  32
ATOM     31  O   UNL     1      36.728 -18.438 -22.557  0.00  0.00    -0.286 OA
ATOM     32  C   UNL     1      35.699 -18.189 -21.912  0.00  0.00    +0.198 C 
BRANCH  32  33
ATOM     33  C   UNL     1      35.140 -19.284 -21.062  0.00  0.00    +0.073 C 
ATOM     34  C   UNL     1      35.983 -20.020 -20.262  0.00  0.00    +0.137 C 
ATOM     35  C   UNL     1      33.783 -19.510 -21.120  0.00  0.00    +0.006 C 
ATOM     36  C   UNL     1      35.441 -21.037 -19.477  0.00  0.00    +0.037 C 
ATOM     37  C   UNL     1      33.241 -20.527 -20.335  0.00  0.00    +0.000 C 
ATOM     38  C   UNL     1      34.070 -21.291 -19.514  0.00  0.00    +0.003 C 
BRANCH  34  39
ATOM     39  O   UNL     1      37.325 -19.787 -20.212  0.00  0.00    -0.505 OA
ATOM     40  H   UNL     1      37.797 -19.597 -21.000  0.00  0.00    +0.292 HD
ENDBRANCH  34  39
ENDBRANCH  32  33
ENDBRANCH  30  32
ENDBRANCH  24  25
ENDBRANCH  22  24
ENDBRANCH   3  22
TORSDOF 9
ENDMDL
MODEL 8
REMARK VINA RESULT:      -8.9     11.712     16.862
REMARK  Name = 10050566
REMARK  9 active torsions:
REMARK  status: ('A' for Active; 'I' for Inactive)
REMARK    1  A    between atoms: C_2  and  N_11
REMARK    2  A    between atoms: C_3  and  O_22
REMARK    3  A    between atoms: C_12  and  C_14
REMARK    4  A    between atoms: C_19  and  O_20
REMARK    5  A    between atoms: O_22  and  C_24
REMARK    6  A    between atoms: C_24  and  C_25
REMARK    7  A    between atoms: C_30  and  C_32
REMARK    8  A    between atoms: C_32  and  C_33
REMARK    9  A    between atoms: C_34  and  O_39
REMARK                            x       y       z     vdW  Elec       q    Type
REMARK                         _______ _______ _______ _____ _____    ______ ____
ROOT
ATOM      1  N   UNL     1      32.709  -6.977 -20.255  0.00  0.00    +0.385 N 
ATOM      2  C   UNL     1      33.112  -8.235 -22.380  0.00  0.00    +0.091 C 
ATOM      3  C   UNL     1      32.346  -7.232 -23.262  0.00  0.00    +0.185 C 
ATOM      4  C   UNL     1      30.953  -6.819 -22.774  0.00  0.00    +0.043 C 
ATOM      5  C   UNL     1      32.714  -8.289 -20.901  0.00  0.00    -0.058 C 
ATOM      6  C   UNL     1      30.933  -5.823 -21.612  0.00  0.00    -0.020 C 
ATOM      7  C   UNL     1      31.372  -6.382 -20.263  0.00  0.00    -0.082 C 
ATOM      8  H   UNL     1      33.350  -6.359 -20.754  0.00  0.00    -0.084 HD
ATOM      9  H   UNL     1      33.001  -7.096 -19.285  0.00  0.00    -0.084 HD
ENDROOT
BRANCH   2  11
ATOM     10  O   UNL     1      35.174  -9.703 -23.730  0.00  0.00    -0.270 OA
ATOM     11  N   UNL     1      32.998  -9.567 -22.943  0.00  0.00    -0.301 N 
ATOM     12  C   UNL     1      34.057 -10.189 -23.576  0.00  0.00    +0.246 C 
ATOM     13  H   UNL     1      32.139 -10.043 -22.871  0.00  0.00    +0.150 HD
BRANCH  12  14
ATOM     14  C   UNL     1      33.771 -11.541 -24.122  0.00  0.00    +0.054 C 
ATOM     15  C   UNL     1      33.529 -12.577 -23.243  0.00  0.00    +0.008 C 
ATOM     16  C   UNL     1      33.757 -11.719 -25.490  0.00  0.00    +0.008 C 
ATOM     17  C   UNL     1      33.261 -13.846 -23.755  0.00  0.00    +0.037 C 
ATOM     18  C   UNL     1      33.488 -12.988 -26.002  0.00  0.00    +0.037 C 
ATOM     19  C   UNL     1      33.241 -14.052 -25.134  0.00  0.00    +0.134 C 
BRANCH  19  20
ATOM     20  O   UNL     1      32.977 -15.290 -25.634  0.00  0.00    -0.506 OA
ATOM     21  H   UNL     1      33.438 -15.598 -26.389  0.00  0.00    +0.292 HD
ENDBRANCH  19  20
ENDBRANCH  12  14
ENDBRANCH   2  11
BRANCH   3  22
ATOM     22  O   UNL     1      33.156  -6.070 -23.469  0.00  0.00    -0.448 OA
BRANCH  22  24
ATOM     23  O   UNL     1      31.599  -4.740 -24.520  0.00  0.00    -0.245 OA
ATOM     24  C   UNL     1      32.719  -5.217 -24.429  0.00  0.00    +0.341 C 
BRANCH  24  25
ATOM     25  C   UNL     1      33.810  -4.923 -25.392  0.00  0.00    +0.076 C 
ATOM     26  C   UNL     1      33.561  -4.054 -26.436  0.00  0.00    +0.007 C 
ATOM     27  C   UNL     1      35.037  -5.529 -25.217  0.00  0.00    +0.007 C 
ATOM     28  C   UNL     1      34.586  -3.779 -27.342  0.00  0.00    +0.003 C 
ATOM     29  C   UNL     1      36.061  -5.254 -26.123  0.00  0.00    +0.003 C 
ATOM     30  C   UNL     1      35.836  -4.379 -27.186  0.00  0.00    +0.039 C 
BRANCH  30  32
ATOM     31  O   UNL     1      37.048  -2.947 -28.582  0.00  0.00    -0.286 OA
ATOM     32  C   UNL     1      36.903  -4.093 -28.131  0.00  0.00    +0.198 C 
BRANCH  32  33
ATOM     33  C   UNL     1      37.859  -5.141 -28.599  0.00  0.00    +0.073 C 
ATOM     34  C   UNL     1      39.131  -5.183 -28.074  0.00  0.00    +0.137 C 
ATOM     35  C   UNL     1      37.417  -6.033 -29.550  0.00  0.00    +0.006 C 
ATOM     36  C   UNL     1      40.007  -6.169 -28.524  0.00  0.00    +0.037 C 
ATOM     37  C   UNL     1      38.294  -7.020 -30.000  0.00  0.00    +0.000 C 
ATOM     38  C   UNL     1      39.589  -7.087 -29.488  0.00  0.00    +0.003 C 
BRANCH  34  39
ATOM     39  O   UNL     1      39.558  -4.295 -27.133  0.00  0.00    -0.505 OA
ATOM     40  H   UNL     1      40.233  -4.538 -26.530  0.00  0.00    +0.292 HD
ENDBRANCH  34  39
ENDBRANCH  32  33
ENDBRANCH  30  32
ENDBRANCH  24  25
ENDBRANCH  22  24
ENDBRANCH   3  22
TORSDOF 9
ENDMDL
MODEL 9
REMARK VINA RESULT:      -8.6      6.293     13.204
REMARK  Name = 10050566
REMARK  9 active torsions:
REMARK  status: ('A' for Active; 'I' for Inactive)
REMARK    1  A    between atoms: C_2  and  N_11
REMARK    2  A    between atoms: C_3  and  O_22
REMARK    3  A    between atoms: C_12  and  C_14
REMARK    4  A    between atoms: C_19  and  O_20
REMARK    5  A    between atoms: O_22  and  C_24
REMARK    6  A    between atoms: C_24  and  C_25
REMARK    7  A    between atoms: C_30  and  C_32
REMARK    8  A    between atoms: C_32  and  C_33
REMARK    9  A    between atoms: C_34  and  O_39
REMARK                            x       y       z     vdW  Elec       q    Type
REMARK                         _______ _______ _______ _____ _____    ______ ____
ROOT
ATOM      1  N   UNL     1      31.204 -12.655 -20.711  0.00  0.00    +0.385 N 
ATOM      2  C   UNL     1      32.257 -11.668 -22.754  0.00  0.00    +0.091 C 
ATOM      3  C   UNL     1      33.357 -12.740 -22.855  0.00  0.00    +0.185 C 
ATOM      4  C   UNL     1      34.131 -13.045 -21.567  0.00  0.00    +0.043 C 
ATOM      5  C   UNL     1      31.658 -11.428 -21.365  0.00  0.00    -0.058 C 
ATOM      6  C   UNL     1      33.385 -13.898 -20.539  0.00  0.00    -0.020 C 
ATOM      7  C   UNL     1      32.232 -13.201 -19.824  0.00  0.00    -0.082 C 
ATOM      8  H   UNL     1      30.981 -13.349 -21.426  0.00  0.00    -0.084 HD
ATOM      9  H   UNL     1      30.382 -12.434 -20.150  0.00  0.00    -0.084 HD
ENDROOT
BRANCH   2  11
ATOM     10  O   UNL     1      32.071  -9.103 -21.482  0.00  0.00    -0.270 OA
ATOM     11  N   UNL     1      32.754 -10.407 -23.272  0.00  0.00    -0.301 N 
ATOM     12  C   UNL     1      32.614  -9.221 -22.577  0.00  0.00    +0.246 C 
ATOM     13  H   UNL     1      33.206 -10.396 -24.147  0.00  0.00    +0.150 HD
BRANCH  12  14
ATOM     14  C   UNL     1      33.153  -8.014 -23.255  0.00  0.00    +0.054 C 
ATOM     15  C   UNL     1      34.516  -7.908 -23.442  0.00  0.00    +0.008 C 
ATOM     16  C   UNL     1      32.275  -7.036 -23.674  0.00  0.00    +0.008 C 
ATOM     17  C   UNL     1      35.022  -6.775 -24.078  0.00  0.00    +0.037 C 
ATOM     18  C   UNL     1      32.781  -5.904 -24.311  0.00  0.00    +0.037 C 
ATOM     19  C   UNL     1      34.156  -5.773 -24.513  0.00  0.00    +0.134 C 
BRANCH  19  20
ATOM     20  O   UNL     1      34.649  -4.668 -25.136  0.00  0.00    -0.506 OA
ATOM     21  H   UNL     1      34.802  -3.884 -24.646  0.00  0.00    +0.292 HD
ENDBRANCH  19  20
ENDBRANCH  12  14
ENDBRANCH   2  11
BRANCH   3  22
ATOM     22  O   UNL     1      32.797 -13.945 -23.386  0.00  0.00    -0.448 OA
BRANCH  22  24
ATOM     23  O   UNL     1      33.849 -14.349 -25.393  0.00  0.00    -0.245 OA
ATOM     24  C   UNL     1      33.597 -14.639 -24.233  0.00  0.00    +0.341 C 
BRANCH  24  25
ATOM     25  C   UNL     1      34.149 -15.838 -23.555  0.00  0.00    +0.076 C 
ATOM     26  C   UNL     1      34.775 -15.686 -22.335  0.00  0.00    +0.007 C 
ATOM     27  C   UNL     1      34.020 -17.069 -24.166  0.00  0.00    +0.007 C 
ATOM     28  C   UNL     1      35.295 -16.813 -21.698  0.00  0.00    +0.003 C 
ATOM     29  C   UNL     1      34.539 -18.196 -23.530  0.00  0.00    +0.003 C 
ATOM     30  C   UNL     1      35.177 -18.068 -22.295  0.00  0.00    +0.039 C 
BRANCH  30  32
ATOM     31  O   UNL     1      36.900 -19.573 -21.812  0.00  0.00    -0.286 OA
ATOM     32  C   UNL     1      35.719 -19.243 -21.632  0.00  0.00    +0.198 C 
BRANCH  32  33
ATOM     33  C   UNL     1      34.898 -20.097 -20.720  0.00  0.00    +0.073 C 
ATOM     34  C   UNL     1      35.526 -20.935 -19.827  0.00  0.00    +0.137 C 
ATOM     35  C   UNL     1      33.528 -20.005 -20.816  0.00  0.00    +0.006 C 
ATOM     36  C   UNL     1      34.743 -21.723 -18.986  0.00  0.00    +0.037 C 
ATOM     37  C   UNL     1      32.744 -20.793 -19.974  0.00  0.00    +0.000 C 
ATOM     38  C   UNL     1      33.352 -21.652 -19.059  0.00  0.00    +0.003 C 
BRANCH  34  39
ATOM     39  O   UNL     1      36.884 -21.018 -19.740  0.00  0.00    -0.505 OA
ATOM     40  H   UNL     1      37.300 -21.856 -19.684  0.00  0.00    +0.292 HD
ENDBRANCH  34  39
ENDBRANCH  32  33
ENDBRANCH  30  32
ENDBRANCH  24  25
ENDBRANCH  22  24
ENDBRANCH   3  22
TORSDOF 9
ENDMDL
