MODEL 1
REMARK VINA RESULT:     -11.6      0.000      0.000
REMARK  Name = 158376
REMARK  11 active torsions:
REMARK  status: ('A' for Active; 'I' for Inactive)
REMARK    1  A    between atoms: C_1  and  N_22
REMARK    2  A    between atoms: C_2  and  C_9
REMARK    3  A    between atoms: N_8  and  CA_11
REMARK    4  A    between atoms: CA_11  and  C_13
REMARK    5  A    between atoms: CA_11  and  CB_16
REMARK    6  A    between atoms: C_13  and  O_14
REMARK    7  A    between atoms: CB_16  and  CG_17
REMARK    8  A    between atoms: CG_17  and  CD_19
REMARK    9  A    between atoms: CD_19  and  OE1_20
REMARK   10  A    between atoms: N_22  and  C_24
REMARK   11  A    between atoms: C_24  and  C_29
REMARK                            x       y       z     vdW  Elec       q    Type
REMARK                         _______ _______ _______ _____ _____    ______ ____
ROOT
ATOM      1  C   UNL     1      35.360 -19.670 -20.626  0.00  0.00    +0.048 C 
ATOM      2  C   UNL     1      34.250 -21.756 -19.142  0.00  0.00    +0.053 C 
ATOM      3  C   UNL     1      33.980 -19.870 -20.629  0.00  0.00    +0.015 C 
ATOM      4  C   UNL     1      36.186 -20.512 -19.881  0.00  0.00    +0.015 C 
ATOM      5  C   UNL     1      33.425 -20.913 -19.887  0.00  0.00    +0.006 C 
ATOM      6  C   UNL     1      35.630 -21.555 -19.139  0.00  0.00    +0.006 C 
ENDROOT
BRANCH   2   9
ATOM      7  O   UNL     1      33.732 -24.014 -18.781  0.00  0.00    -0.270 OA
ATOM      8  N   UNL     1      33.076 -22.508 -17.143  0.00  0.00    -0.293 N 
ATOM      9  C   ACE A   0      33.659 -22.866 -18.351  0.00  0.00    +0.246 C 
ATOM     10  H   UNL     1      33.066 -21.558 -16.885  0.00  0.00    +0.150 HD
BRANCH   8  11
ATOM     11  CA  UNL     1      32.483 -23.473 -16.253  0.00  0.00    +0.172 C 
BRANCH  11  13
ATOM     12  OXT UNL     1      30.394 -22.367 -16.839  0.00  0.00    -0.248 OA
ATOM     13  C   UNL     1      31.019 -23.116 -16.099  0.00  0.00    +0.332 C 
BRANCH  13  14
ATOM     14  O   UNL     1      30.447 -23.761 -15.048  0.00  0.00    -0.479 OA
ATOM     15  H   UNL     1      30.536 -23.415 -14.182  0.00  0.00    +0.295 HD
ENDBRANCH  13  14
ENDBRANCH  11  13
BRANCH  11  16
ATOM     16  CB  UNL     1      33.235 -23.592 -14.922  0.00  0.00    +0.043 C 
BRANCH  16  17
ATOM     17  CG  UNL     1      34.541 -24.395 -14.962  0.00  0.00    +0.112 C 
BRANCH  17  19
ATOM     18  OE2 UNL     1      35.765 -22.349 -15.466  0.00  0.00    -0.250 OA
ATOM     19  CD  UNL     1      35.764 -23.555 -15.259  0.00  0.00    +0.314 C 
BRANCH  19  20
ATOM     20  OE1 UNL     1      36.891 -24.313 -15.310  0.00  0.00    -0.480 OA
ATOM     21  HE1 UNL     1      37.574 -24.179 -14.683  0.00  0.00    +0.295 HD
ENDBRANCH  19  20
ENDBRANCH  17  19
ENDBRANCH  16  17
ENDBRANCH  11  16
ENDBRANCH   8  11
ENDBRANCH   2   9
BRANCH   1  22
ATOM     22  N   UNL     1      35.922 -18.616 -21.375  0.00  0.00    -0.302 N 
ATOM     23  C   UNL     1      37.265 -18.728 -21.908  0.00  0.00    +0.112 C 
BRANCH  22  24
ATOM     24  C   UNL     1      35.157 -17.412 -21.636  0.00  0.00    +0.118 C 
BRANCH  24  29
ATOM     25  O   UNL     1      34.112 -17.720 -25.168  0.00  0.00    -0.427 OA
ATOM     26  N   UNL     1      33.483 -15.548 -25.936  0.00  0.00    -0.294 NA
ATOM     27  N   UNL     1      33.697 -13.807 -24.246  0.00  0.00    -0.317 NA
ATOM     28  N   UNL     1      32.936 -13.323 -26.406  0.00  0.00    -0.283 N 
ATOM     29  C   UNL     1      34.686 -17.235 -23.046  0.00  0.00    +0.031 C 
ATOM     30  C   UNL     1      34.275 -16.036 -23.677  0.00  0.00    +0.180 C 
ATOM     31  C   UNL     1      33.930 -16.381 -24.980  0.00  0.00    +0.281 C 
ATOM     32  C   UNL     1      34.570 -18.226 -23.993  0.00  0.00    +0.176 C 
ATOM     33  C   UNL     1      34.142 -14.694 -23.327  0.00  0.00    +0.181 C 
ATOM     34  C   UNL     1      33.398 -14.283 -25.476  0.00  0.00    +0.200 C 
ATOM     35  H   UNL     1      32.700 -13.599 -27.321  0.00  0.00    +0.156 HD
ATOM     36  H   UNL     1      32.851 -12.380 -26.138  0.00  0.00    +0.156 HD
ATOM     37  N   UNL     1      34.467 -14.248 -22.033  0.00  0.00    -0.335 N 
ATOM     38  H   UNL     1      34.368 -13.296 -21.801  0.00  0.00    +0.144 HD
ATOM     39  H   UNL     1      34.793 -14.886 -21.358  0.00  0.00    +0.144 HD
ENDBRANCH  24  29
ENDBRANCH  22  24
ENDBRANCH   1  22
TORSDOF 11
ENDMDL
MODEL 2
REMARK VINA RESULT:     -11.1      1.370      2.212
REMARK  Name = 158376
REMARK  11 active torsions:
REMARK  status: ('A' for Active; 'I' for Inactive)
REMARK    1  A    between atoms: C_1  and  N_22
REMARK    2  A    between atoms: C_2  and  C_9
REMARK    3  A    between atoms: N_8  and  CA_11
REMARK    4  A    between atoms: CA_11  and  C_13
REMARK    5  A    between atoms: CA_11  and  CB_16
REMARK    6  A    between atoms: C_13  and  O_14
REMARK    7  A    between atoms: CB_16  and  CG_17
REMARK    8  A    between atoms: CG_17  and  CD_19
REMARK    9  A    between atoms: CD_19  and  OE1_20
REMARK   10  A    between atoms: N_22  and  C_24
REMARK   11  A    between atoms: C_24  and  C_29
REMARK                            x       y       z     vdW  Elec       q    Type
REMARK                         _______ _______ _______ _____ _____    ______ ____
ROOT
ATOM      1  C   UNL     1      35.069 -19.929 -20.490  0.00  0.00    +0.048 C 
ATOM      2  C   UNL     1      33.870 -21.860 -18.872  0.00  0.00    +0.053 C 
ATOM      3  C   UNL     1      35.860 -20.774 -19.711  0.00  0.00    +0.015 C 
ATOM      4  C   UNL     1      33.680 -20.049 -20.461  0.00  0.00    +0.015 C 
ATOM      5  C   UNL     1      35.260 -21.740 -18.903  0.00  0.00    +0.006 C 
ATOM      6  C   UNL     1      33.080 -21.014 -19.651  0.00  0.00    +0.006 C 
ENDROOT
BRANCH   2   9
ATOM      7  O   UNL     1      33.559 -24.065 -18.139  0.00  0.00    -0.270 OA
ATOM      8  N   UNL     1      32.307 -22.419 -17.088  0.00  0.00    -0.293 N 
ATOM      9  C   ACE A   0      33.231 -22.888 -18.011  0.00  0.00    +0.246 C 
ATOM     10  H   UNL     1      32.111 -21.455 -17.061  0.00  0.00    +0.150 HD
BRANCH   8  11
ATOM     11  CA  UNL     1      31.622 -23.289 -16.165  0.00  0.00    +0.172 C 
BRANCH  11  13
ATOM     12  OXT UNL     1      29.389 -22.648 -16.895  0.00  0.00    -0.248 OA
ATOM     13  C   UNL     1      30.213 -22.760 -15.996  0.00  0.00    +0.332 C 
BRANCH  13  14
ATOM     14  O   UNL     1      29.940 -22.450 -14.702  0.00  0.00    -0.479 OA
ATOM     15  H   UNL     1      30.573 -21.992 -14.186  0.00  0.00    +0.295 HD
ENDBRANCH  13  14
ENDBRANCH  11  13
BRANCH  11  16
ATOM     16  CB  UNL     1      32.380 -23.467 -14.844  0.00  0.00    +0.043 C 
BRANCH  16  17
ATOM     17  CG  UNL     1      32.263 -24.848 -14.188  0.00  0.00    +0.112 C 
BRANCH  17  19
ATOM     18  OE2 UNL     1      30.690 -24.494 -12.361  0.00  0.00    -0.250 OA
ATOM     19  CD  UNL     1      30.979 -25.048 -13.412  0.00  0.00    +0.314 C 
BRANCH  19  20
ATOM     20  OE1 UNL     1      30.174 -25.968 -14.007  0.00  0.00    -0.480 OA
ATOM     21  HE1 UNL     1      29.412 -26.281 -13.561  0.00  0.00    +0.295 HD
ENDBRANCH  19  20
ENDBRANCH  17  19
ENDBRANCH  16  17
ENDBRANCH  11  16
ENDBRANCH   8  11
ENDBRANCH   2   9
BRANCH   1  22
ATOM     22  N   UNL     1      35.675 -18.954 -21.309  0.00  0.00    -0.302 N 
ATOM     23  C   UNL     1      36.970 -19.201 -21.910  0.00  0.00    +0.112 C 
BRANCH  22  24
ATOM     24  C   UNL     1      35.002 -17.696 -21.573  0.00  0.00    +0.118 C 
BRANCH  24  29
ATOM     25  O   UNL     1      34.051 -17.891 -25.140  0.00  0.00    -0.427 OA
ATOM     26  N   UNL     1      33.530 -15.681 -25.879  0.00  0.00    -0.294 NA
ATOM     27  N   UNL     1      33.762 -13.984 -24.147  0.00  0.00    -0.317 NA
ATOM     28  N   UNL     1      33.086 -13.426 -26.317  0.00  0.00    -0.283 N 
ATOM     29  C   UNL     1      34.581 -17.472 -22.993  0.00  0.00    +0.031 C 
ATOM     30  C   UNL     1      34.236 -16.245 -23.609  0.00  0.00    +0.180 C 
ATOM     31  C   UNL     1      33.916 -16.550 -24.929  0.00  0.00    +0.281 C 
ATOM     32  C   UNL     1      34.454 -18.438 -23.964  0.00  0.00    +0.176 C 
ATOM     33  C   UNL     1      34.146 -14.907 -23.234  0.00  0.00    +0.181 C 
ATOM     34  C   UNL     1      33.482 -14.423 -25.395  0.00  0.00    +0.200 C 
ATOM     35  H   UNL     1      32.866 -13.674 -27.244  0.00  0.00    +0.156 HD
ATOM     36  H   UNL     1      33.029 -12.486 -26.031  0.00  0.00    +0.156 HD
ATOM     37  N   UNL     1      34.449 -14.500 -21.922  0.00  0.00    -0.335 N 
ATOM     38  H   UNL     1      34.380 -13.550 -21.673  0.00  0.00    +0.144 HD
ATOM     39  H   UNL     1      34.730 -15.165 -21.252  0.00  0.00    +0.144 HD
ENDBRANCH  24  29
ENDBRANCH  22  24
ENDBRANCH   1  22
TORSDOF 11
ENDMDL
MODEL 3
REMARK VINA RESULT:     -11.0      3.847     11.028
REMARK  Name = 158376
REMARK  11 active torsions:
REMARK  status: ('A' for Active; 'I' for Inactive)
REMARK    1  A    between atoms: C_1  and  N_22
REMARK    2  A    between atoms: C_2  and  C_9
REMARK    3  A    between atoms: N_8  and  CA_11
REMARK    4  A    between atoms: CA_11  and  C_13
REMARK    5  A    between atoms: CA_11  and  CB_16
REMARK    6  A    between atoms: C_13  and  O_14
REMARK    7  A    between atoms: CB_16  and  CG_17
REMARK    8  A    between atoms: CG_17  and  CD_19
REMARK    9  A    between atoms: CD_19  and  OE1_20
REMARK   10  A    between atoms: N_22  and  C_24
REMARK   11  A    between atoms: C_24  and  C_29
REMARK                            x       y       z     vdW  Elec       q    Type
REMARK                         _______ _______ _______ _____ _____    ______ ____
ROOT
ATOM      1  C   UNL     1      34.053 -23.139 -15.947  0.00  0.00    +0.048 C 
ATOM      2  C   UNL     1      35.129 -22.009 -18.261  0.00  0.00    +0.053 C 
ATOM      3  C   UNL     1      33.278 -23.047 -17.103  0.00  0.00    +0.015 C 
ATOM      4  C   UNL     1      35.366 -22.667 -15.948  0.00  0.00    +0.015 C 
ATOM      5  C   UNL     1      33.816 -22.482 -18.260  0.00  0.00    +0.006 C 
ATOM      6  C   UNL     1      35.903 -22.102 -17.105  0.00  0.00    +0.006 C 
ENDROOT
BRANCH   2   9
ATOM      7  O   UNL     1      36.780 -21.818 -19.914  0.00  0.00    -0.270 OA
ATOM      8  N   UNL     1      34.937 -20.421 -20.099  0.00  0.00    -0.293 N 
ATOM      9  C   ACE A   0      35.701 -21.408 -19.493  0.00  0.00    +0.246 C 
ATOM     10  H   UNL     1      34.084 -20.160 -19.683  0.00  0.00    +0.150 HD
BRANCH   8  11
ATOM     11  CA  UNL     1      35.345 -19.760 -21.313  0.00  0.00    +0.172 C 
BRANCH  11  13
ATOM     12  OXT UNL     1      37.484 -18.653 -20.946  0.00  0.00    -0.248 OA
ATOM     13  C   UNL     1      36.260 -18.616 -20.927  0.00  0.00    +0.332 C 
BRANCH  13  14
ATOM     14  O   UNL     1      35.561 -17.501 -20.586  0.00  0.00    -0.479 OA
ATOM     15  H   UNL     1      34.890 -17.551 -19.934  0.00  0.00    +0.295 HD
ENDBRANCH  13  14
ENDBRANCH  11  13
BRANCH  11  16
ATOM     16  CB  UNL     1      34.157 -19.337 -22.186  0.00  0.00    +0.043 C 
BRANCH  16  17
ATOM     17  CG  UNL     1      34.440 -19.225 -23.689  0.00  0.00    +0.112 C 
BRANCH  17  19
ATOM     18  OE2 UNL     1      33.540 -17.438 -25.080  0.00  0.00    -0.250 OA
ATOM     19  CD  UNL     1      34.331 -17.814 -24.226  0.00  0.00    +0.314 C 
BRANCH  19  20
ATOM     20  OE1 UNL     1      35.260 -16.993 -23.668  0.00  0.00    -0.480 OA
ATOM     21  HE1 UNL     1      35.003 -16.158 -23.330  0.00  0.00    +0.295 HD
ENDBRANCH  19  20
ENDBRANCH  17  19
ENDBRANCH  16  17
ENDBRANCH  11  16
ENDBRANCH   8  11
ENDBRANCH   2   9
BRANCH   1  22
ATOM     22  N   UNL     1      33.511 -23.711 -14.778  0.00  0.00    -0.302 N 
ATOM     23  C   UNL     1      32.280 -23.196 -14.212  0.00  0.00    +0.112 C 
BRANCH  22  24
ATOM     24  C   UNL     1      34.169 -24.831 -14.135  0.00  0.00    +0.118 C 
BRANCH  24  29
ATOM     25  O   UNL     1      37.141 -23.549 -12.349  0.00  0.00    -0.427 OA
ATOM     26  N   UNL     1      38.996 -24.938 -12.925  0.00  0.00    -0.294 NA
ATOM     27  N   UNL     1      38.434 -26.739 -14.466  0.00  0.00    -0.317 NA
ATOM     28  N   UNL     1      40.615 -26.457 -13.663  0.00  0.00    -0.283 N 
ATOM     29  C   UNL     1      35.518 -24.543 -13.551  0.00  0.00    +0.031 C 
ATOM     30  C   UNL     1      36.725 -25.247 -13.773  0.00  0.00    +0.180 C 
ATOM     31  C   UNL     1      37.697 -24.602 -13.013  0.00  0.00    +0.281 C 
ATOM     32  C   UNL     1      35.824 -23.521 -12.682  0.00  0.00    +0.176 C 
ATOM     33  C   UNL     1      37.139 -26.352 -14.514  0.00  0.00    +0.181 C 
ATOM     34  C   UNL     1      39.270 -26.018 -13.684  0.00  0.00    +0.200 C 
ATOM     35  H   UNL     1      41.279 -25.978 -13.115  0.00  0.00    +0.156 HD
ATOM     36  H   UNL     1      40.886 -27.239 -14.195  0.00  0.00    +0.156 HD
ATOM     37  N   UNL     1      36.230 -27.070 -15.313  0.00  0.00    -0.335 N 
ATOM     38  H   UNL     1      36.538 -27.848 -15.831  0.00  0.00    +0.144 HD
ATOM     39  H   UNL     1      35.286 -26.794 -15.355  0.00  0.00    +0.144 HD
ENDBRANCH  24  29
ENDBRANCH  22  24
ENDBRANCH   1  22
TORSDOF 11
ENDMDL
MODEL 4
REMARK VINA RESULT:     -10.7      1.404      2.179
REMARK  Name = 158376
REMARK  11 active torsions:
REMARK  status: ('A' for Active; 'I' for Inactive)
REMARK    1  A    between atoms: C_1  and  N_22
REMARK    2  A    between atoms: C_2  and  C_9
REMARK    3  A    between atoms: N_8  and  CA_11
REMARK    4  A    between atoms: CA_11  and  C_13
REMARK    5  A    between atoms: CA_11  and  CB_16
REMARK    6  A    between atoms: C_13  and  O_14
REMARK    7  A    between atoms: CB_16  and  CG_17
REMARK    8  A    between atoms: CG_17  and  CD_19
REMARK    9  A    between atoms: CD_19  and  OE1_20
REMARK   10  A    between atoms: N_22  and  C_24
REMARK   11  A    between atoms: C_24  and  C_29
REMARK                            x       y       z     vdW  Elec       q    Type
REMARK                         _______ _______ _______ _____ _____    ______ ____
ROOT
ATOM      1  C   UNL     1      35.261 -19.963 -20.636  0.00  0.00    +0.048 C 
ATOM      2  C   UNL     1      34.103 -21.922 -19.022  0.00  0.00    +0.053 C 
ATOM      3  C   UNL     1      36.071 -20.817 -19.887  0.00  0.00    +0.015 C 
ATOM      4  C   UNL     1      33.873 -20.089 -20.579  0.00  0.00    +0.015 C 
ATOM      5  C   UNL     1      35.491 -21.797 -19.080  0.00  0.00    +0.006 C 
ATOM      6  C   UNL     1      33.294 -21.068 -19.771  0.00  0.00    +0.006 C 
ENDROOT
BRANCH   2   9
ATOM      7  O   UNL     1      33.604 -24.147 -18.476  0.00  0.00    -0.270 OA
ATOM      8  N   UNL     1      32.828 -22.508 -17.029  0.00  0.00    -0.293 N 
ATOM      9  C   ACE A   0      33.486 -22.965 -18.162  0.00  0.00    +0.246 C 
ATOM     10  H   UNL     1      32.786 -21.539 -16.864  0.00  0.00    +0.150 HD
BRANCH   8  11
ATOM     11  CA  UNL     1      32.201 -23.398 -16.085  0.00  0.00    +0.172 C 
BRANCH  11  13
ATOM     12  OXT UNL     1      30.104 -22.393 -16.810  0.00  0.00    -0.248 OA
ATOM     13  C   UNL     1      30.751 -22.977 -15.951  0.00  0.00    +0.332 C 
BRANCH  13  14
ATOM     14  O   UNL     1      30.221 -23.360 -14.760  0.00  0.00    -0.479 OA
ATOM     15  H   UNL     1      30.750 -23.352 -13.987  0.00  0.00    +0.295 HD
ENDBRANCH  13  14
ENDBRANCH  11  13
BRANCH  11  16
ATOM     16  CB  UNL     1      32.951 -23.470 -14.750  0.00  0.00    +0.043 C 
BRANCH  16  17
ATOM     17  CG  UNL     1      34.470 -23.275 -14.826  0.00  0.00    +0.112 C 
BRANCH  17  19
ATOM     18  OE2 UNL     1      36.229 -24.920 -15.197  0.00  0.00    -0.250 OA
ATOM     19  CD  UNL     1      35.261 -24.536 -14.555  0.00  0.00    +0.314 C 
BRANCH  19  20
ATOM     20  OE1 UNL     1      34.741 -25.239 -13.514  0.00  0.00    -0.480 OA
ATOM     21  HE1 UNL     1      34.482 -26.132 -13.636  0.00  0.00    +0.295 HD
ENDBRANCH  19  20
ENDBRANCH  17  19
ENDBRANCH  16  17
ENDBRANCH  11  16
ENDBRANCH   8  11
ENDBRANCH   2   9
BRANCH   1  22
ATOM     22  N   UNL     1      35.846 -18.974 -21.453  0.00  0.00    -0.302 N 
ATOM     23  C   UNL     1      37.277 -18.744 -21.418  0.00  0.00    +0.112 C 
BRANCH  22  24
ATOM     24  C   UNL     1      35.026 -18.184 -22.351  0.00  0.00    +0.118 C 
BRANCH  24  29
ATOM     25  O   UNL     1      34.470 -14.984 -20.587  0.00  0.00    -0.427 OA
ATOM     26  N   UNL     1      34.055 -13.305 -22.233  0.00  0.00    -0.294 NA
ATOM     27  N   UNL     1      34.111 -14.136 -24.522  0.00  0.00    -0.317 NA
ATOM     28  N   UNL     1      33.682 -11.883 -24.053  0.00  0.00    -0.283 N 
ATOM     29  C   UNL     1      34.764 -16.775 -21.919  0.00  0.00    +0.031 C 
ATOM     30  C   UNL     1      34.499 -15.653 -22.740  0.00  0.00    +0.180 C 
ATOM     31  C   UNL     1      34.325 -14.573 -21.879  0.00  0.00    +0.281 C 
ATOM     32  C   UNL     1      34.734 -16.316 -20.622  0.00  0.00    +0.176 C 
ATOM     33  C   UNL     1      34.382 -15.393 -24.104  0.00  0.00    +0.181 C 
ATOM     34  C   UNL     1      33.966 -13.183 -23.573  0.00  0.00    +0.200 C 
ATOM     35  H   UNL     1      33.564 -11.140 -23.418  0.00  0.00    +0.156 HD
ATOM     36  H   UNL     1      33.603 -11.722 -25.020  0.00  0.00    +0.156 HD
ATOM     37  N   UNL     1      34.541 -16.420 -25.053  0.00  0.00    -0.335 N 
ATOM     38  H   UNL     1      34.455 -16.221 -26.013  0.00  0.00    +0.144 HD
ATOM     39  H   UNL     1      34.738 -17.338 -24.757  0.00  0.00    +0.144 HD
ENDBRANCH  24  29
ENDBRANCH  22  24
ENDBRANCH   1  22
TORSDOF 11
ENDMDL
MODEL 5
REMARK VINA RESULT:     -10.6      2.777      4.140
REMARK  Name = 158376
REMARK  11 active torsions:
REMARK  status: ('A' for Active; 'I' for Inactive)
REMARK    1  A    between atoms: C_1  and  N_22
REMARK    2  A    between atoms: C_2  and  C_9
REMARK    3  A    between atoms: N_8  and  CA_11
REMARK    4  A    between atoms: CA_11  and  C_13
REMARK    5  A    between atoms: CA_11  and  CB_16
REMARK    6  A    between atoms: C_13  and  O_14
REMARK    7  A    between atoms: CB_16  and  CG_17
REMARK    8  A    between atoms: CG_17  and  CD_19
REMARK    9  A    between atoms: CD_19  and  OE1_20
REMARK   10  A    between atoms: N_22  and  C_24
REMARK   11  A    between atoms: C_24  and  C_29
REMARK                            x       y       z     vdW  Elec       q    Type
REMARK                         _______ _______ _______ _____ _____    ______ ____
ROOT
ATOM      1  C   UNL     1      34.972 -21.237 -19.102  0.00  0.00    +0.048 C 
ATOM      2  C   UNL     1      36.094 -22.419 -16.837  0.00  0.00    +0.053 C 
ATOM      3  C   UNL     1      34.185 -22.032 -18.268  0.00  0.00    +0.015 C 
ATOM      4  C   UNL     1      36.319 -21.033 -18.804  0.00  0.00    +0.015 C 
ATOM      5  C   UNL     1      34.746 -22.622 -17.135  0.00  0.00    +0.006 C 
ATOM      6  C   UNL     1      36.880 -21.625 -17.671  0.00  0.00    +0.006 C 
ENDROOT
BRANCH   2   9
ATOM      7  O   UNL     1      37.624 -22.487 -15.062  0.00  0.00    -0.270 OA
ATOM      8  N   UNL     1      36.113 -24.240 -15.218  0.00  0.00    -0.293 N 
ATOM      9  C   ACE A   0      36.691 -23.047 -15.630  0.00  0.00    +0.246 C 
ATOM     10  H   UNL     1      35.367 -24.611 -15.741  0.00  0.00    +0.150 HD
BRANCH   8  11
ATOM     11  CA  UNL     1      36.564 -24.957 -14.052  0.00  0.00    +0.172 C 
BRANCH  11  13
ATOM     12  OXT UNL     1      36.204 -26.956 -15.395  0.00  0.00    -0.248 OA
ATOM     13  C   UNL     1      36.754 -26.406 -14.449  0.00  0.00    +0.332 C 
BRANCH  13  14
ATOM     14  O   UNL     1      37.651 -27.039 -13.648  0.00  0.00    -0.479 OA
ATOM     15  H   UNL     1      38.381 -26.568 -13.299  0.00  0.00    +0.295 HD
ENDBRANCH  13  14
ENDBRANCH  11  13
BRANCH  11  16
ATOM     16  CB  UNL     1      35.641 -24.762 -12.843  0.00  0.00    +0.043 C 
BRANCH  16  17
ATOM     17  CG  UNL     1      35.885 -23.496 -12.013  0.00  0.00    +0.112 C 
BRANCH  17  19
ATOM     18  OE2 UNL     1      38.053 -22.502 -11.514  0.00  0.00    -0.250 OA
ATOM     19  CD  UNL     1      37.264 -23.429 -11.393  0.00  0.00    +0.314 C 
BRANCH  19  20
ATOM     20  OE1 UNL     1      37.556 -24.561 -10.699  0.00  0.00    -0.480 OA
ATOM     21  HE1 UNL     1      36.906 -25.228 -10.597  0.00  0.00    +0.295 HD
ENDBRANCH  19  20
ENDBRANCH  17  19
ENDBRANCH  16  17
ENDBRANCH  11  16
ENDBRANCH   8  11
ENDBRANCH   2   9
BRANCH   1  22
ATOM     22  N   UNL     1      34.406 -20.639 -20.246  0.00  0.00    -0.302 N 
ATOM     23  C   UNL     1      32.967 -20.509 -20.371  0.00  0.00    +0.112 C 
BRANCH  22  24
ATOM     24  C   UNL     1      35.255 -20.132 -21.307  0.00  0.00    +0.118 C 
BRANCH  24  29
ATOM     25  O   UNL     1      35.149 -16.438 -21.326  0.00  0.00    -0.427 OA
ATOM     26  N   UNL     1      34.425 -15.739 -23.492  0.00  0.00    -0.294 NA
ATOM     27  N   UNL     1      33.975 -17.581 -25.021  0.00  0.00    -0.317 NA
ATOM     28  N   UNL     1      33.700 -15.353 -25.683  0.00  0.00    -0.283 N 
ATOM     29  C   UNL     1      35.118 -18.671 -21.604  0.00  0.00    +0.031 C 
ATOM     30  C   UNL     1      34.706 -18.070 -22.818  0.00  0.00    +0.180 C 
ATOM     31  C   UNL     1      34.740 -16.696 -22.602  0.00  0.00    +0.281 C 
ATOM     32  C   UNL     1      35.374 -17.638 -20.732  0.00  0.00    +0.176 C 
ATOM     33  C   UNL     1      34.306 -18.498 -24.082  0.00  0.00    +0.181 C 
ATOM     34  C   UNL     1      34.055 -16.277 -24.672  0.00  0.00    +0.200 C 
ATOM     35  H   UNL     1      33.735 -14.386 -25.498  0.00  0.00    +0.156 HD
ATOM     36  H   UNL     1      33.420 -15.677 -26.569  0.00  0.00    +0.156 HD
ATOM     37  N   UNL     1      34.239 -19.867 -24.396  0.00  0.00    -0.335 N 
ATOM     38  H   UNL     1      33.954 -20.153 -25.294  0.00  0.00    +0.144 HD
ATOM     39  H   UNL     1      34.477 -20.541 -23.718  0.00  0.00    +0.144 HD
ENDBRANCH  24  29
ENDBRANCH  22  24
ENDBRANCH   1  22
TORSDOF 11
ENDMDL
MODEL 6
REMARK VINA RESULT:     -10.5      3.845     10.905
REMARK  Name = 158376
REMARK  11 active torsions:
REMARK  status: ('A' for Active; 'I' for Inactive)
REMARK    1  A    between atoms: C_1  and  N_22
REMARK    2  A    between atoms: C_2  and  C_9
REMARK    3  A    between atoms: N_8  and  CA_11
REMARK    4  A    between atoms: CA_11  and  C_13
REMARK    5  A    between atoms: CA_11  and  CB_16
REMARK    6  A    between atoms: C_13  and  O_14
REMARK    7  A    between atoms: CB_16  and  CG_17
REMARK    8  A    between atoms: CG_17  and  CD_19
REMARK    9  A    between atoms: CD_19  and  OE1_20
REMARK   10  A    between atoms: N_22  and  C_24
REMARK   11  A    between atoms: C_24  and  C_29
REMARK                            x       y       z     vdW  Elec       q    Type
REMARK                         _______ _______ _______ _____ _____    ______ ____
ROOT
ATOM      1  C   UNL     1      34.130 -23.111 -15.941  0.00  0.00    +0.048 C 
ATOM      2  C   UNL     1      35.178 -22.001 -18.277  0.00  0.00    +0.053 C 
ATOM      3  C   UNL     1      33.362 -23.083 -17.105  0.00  0.00    +0.015 C 
ATOM      4  C   UNL     1      35.421 -22.584 -15.944  0.00  0.00    +0.015 C 
ATOM      5  C   UNL     1      33.886 -22.529 -18.273  0.00  0.00    +0.006 C 
ATOM      6  C   UNL     1      35.945 -22.029 -17.113  0.00  0.00    +0.006 C 
ENDROOT
BRANCH   2   9
ATOM      7  O   UNL     1      36.799 -21.839 -19.963  0.00  0.00    -0.270 OA
ATOM      8  N   UNL     1      34.976 -20.412 -20.113  0.00  0.00    -0.293 N 
ATOM      9  C   ACE A   0      35.736 -21.411 -19.521  0.00  0.00    +0.246 C 
ATOM     10  H   UNL     1      34.136 -20.136 -19.681  0.00  0.00    +0.150 HD
BRANCH   8  11
ATOM     11  CA  UNL     1      35.371 -19.760 -21.336  0.00  0.00    +0.172 C 
BRANCH  11  13
ATOM     12  OXT UNL     1      37.527 -18.675 -21.004  0.00  0.00    -0.248 OA
ATOM     13  C   UNL     1      36.304 -18.623 -20.969  0.00  0.00    +0.332 C 
BRANCH  13  14
ATOM     14  O   UNL     1      35.622 -17.499 -20.624  0.00  0.00    -0.479 OA
ATOM     15  H   UNL     1      35.659 -16.742 -21.173  0.00  0.00    +0.295 HD
ENDBRANCH  13  14
ENDBRANCH  11  13
BRANCH  11  16
ATOM     16  CB  UNL     1      34.174 -19.327 -22.190  0.00  0.00    +0.043 C 
BRANCH  16  17
ATOM     17  CG  UNL     1      34.432 -19.226 -23.699  0.00  0.00    +0.112 C 
BRANCH  17  19
ATOM     18  OE2 UNL     1      33.543 -17.440 -25.099  0.00  0.00    -0.250 OA
ATOM     19  CD  UNL     1      34.330 -17.817 -24.241  0.00  0.00    +0.314 C 
BRANCH  19  20
ATOM     20  OE1 UNL     1      35.262 -16.998 -23.685  0.00  0.00    -0.480 OA
ATOM     21  HE1 UNL     1      35.251 -16.837 -22.762  0.00  0.00    +0.295 HD
ENDBRANCH  19  20
ENDBRANCH  17  19
ENDBRANCH  16  17
ENDBRANCH  11  16
ENDBRANCH   8  11
ENDBRANCH   2   9
BRANCH   1  22
ATOM     22  N   UNL     1      33.601 -23.672 -14.760  0.00  0.00    -0.302 N 
ATOM     23  C   UNL     1      32.168 -23.741 -14.558  0.00  0.00    +0.112 C 
BRANCH  22  24
ATOM     24  C   UNL     1      34.485 -24.203 -13.740  0.00  0.00    +0.118 C 
BRANCH  24  29
ATOM     25  O   UNL     1      36.409 -26.951 -15.292  0.00  0.00    -0.427 OA
ATOM     26  N   UNL     1      38.668 -26.776 -14.541  0.00  0.00    -0.294 NA
ATOM     27  N   UNL     1      39.059 -24.911 -13.023  0.00  0.00    -0.317 NA
ATOM     28  N   UNL     1      40.789 -26.359 -13.646  0.00  0.00    -0.283 N 
ATOM     29  C   UNL     1      35.500 -25.196 -14.214  0.00  0.00    +0.031 C 
ATOM     30  C   UNL     1      36.874 -25.255 -13.881  0.00  0.00    +0.180 C 
ATOM     31  C   UNL     1      37.394 -26.349 -14.566  0.00  0.00    +0.281 C 
ATOM     32  C   UNL     1      35.268 -26.248 -15.071  0.00  0.00    +0.176 C 
ATOM     33  C   UNL     1      37.763 -24.529 -13.090  0.00  0.00    +0.181 C 
ATOM     34  C   UNL     1      39.426 -25.995 -13.744  0.00  0.00    +0.200 C 
ATOM     35  H   UNL     1      41.127 -27.139 -14.144  0.00  0.00    +0.156 HD
ATOM     36  H   UNL     1      41.400 -25.833 -13.081  0.00  0.00    +0.156 HD
ATOM     37  N   UNL     1      37.332 -23.408 -12.358  0.00  0.00    -0.335 N 
ATOM     38  H   UNL     1      37.972 -22.906 -11.804  0.00  0.00    +0.144 HD
ATOM     39  H   UNL     1      36.390 -23.125 -12.400  0.00  0.00    +0.144 HD
ENDBRANCH  24  29
ENDBRANCH  22  24
ENDBRANCH   1  22
TORSDOF 11
ENDMDL
MODEL 7
REMARK VINA RESULT:     -10.2      2.451      4.080
REMARK  Name = 158376
REMARK  11 active torsions:
REMARK  status: ('A' for Active; 'I' for Inactive)
REMARK    1  A    between atoms: C_1  and  N_22
REMARK    2  A    between atoms: C_2  and  C_9
REMARK    3  A    between atoms: N_8  and  CA_11
REMARK    4  A    between atoms: CA_11  and  C_13
REMARK    5  A    between atoms: CA_11  and  CB_16
REMARK    6  A    between atoms: C_13  and  O_14
REMARK    7  A    between atoms: CB_16  and  CG_17
REMARK    8  A    between atoms: CG_17  and  CD_19
REMARK    9  A    between atoms: CD_19  and  OE1_20
REMARK   10  A    between atoms: N_22  and  C_24
REMARK   11  A    between atoms: C_24  and  C_29
REMARK                            x       y       z     vdW  Elec       q    Type
REMARK                         _______ _______ _______ _____ _____    ______ ____
ROOT
ATOM      1  C   UNL     1      34.233 -21.294 -19.228  0.00  0.00    +0.048 C 
ATOM      2  C   UNL     1      34.554 -22.826 -16.918  0.00  0.00    +0.053 C 
ATOM      3  C   UNL     1      35.508 -21.505 -18.703  0.00  0.00    +0.015 C 
ATOM      4  C   UNL     1      33.119 -21.849 -18.599  0.00  0.00    +0.015 C 
ATOM      5  C   UNL     1      35.669 -22.271 -17.549  0.00  0.00    +0.006 C 
ATOM      6  C   UNL     1      33.280 -22.615 -17.443  0.00  0.00    +0.006 C 
ENDROOT
BRANCH   2   9
ATOM      7  O   UNL     1      33.749 -24.206 -15.202  0.00  0.00    -0.270 OA
ATOM      8  N   UNL     1      36.018 -23.725 -15.190  0.00  0.00    -0.293 N 
ATOM      9  C   ACE A   0      34.726 -23.643 -15.689  0.00  0.00    +0.246 C 
ATOM     10  H   UNL     1      36.737 -23.236 -15.651  0.00  0.00    +0.150 HD
BRANCH   8  11
ATOM     11  CA  UNL     1      36.349 -24.498 -14.019  0.00  0.00    +0.172 C 
BRANCH  11  13
ATOM     12  OXT UNL     1      37.304 -22.935 -12.414  0.00  0.00    -0.248 OA
ATOM     13  C   UNL     1      36.337 -23.559 -12.830  0.00  0.00    +0.332 C 
BRANCH  13  14
ATOM     14  O   UNL     1      35.098 -23.451 -12.283  0.00  0.00    -0.479 OA
ATOM     15  H   UNL     1      34.993 -23.475 -11.353  0.00  0.00    +0.295 HD
ENDBRANCH  13  14
ENDBRANCH  11  13
BRANCH  11  16
ATOM     16  CB  UNL     1      37.659 -25.280 -14.177  0.00  0.00    +0.043 C 
BRANCH  16  17
ATOM     17  CG  UNL     1      38.807 -24.530 -14.863  0.00  0.00    +0.112 C 
BRANCH  17  19
ATOM     18  OE2 UNL     1      40.947 -24.909 -13.761  0.00  0.00    -0.250 OA
ATOM     19  CD  UNL     1      40.162 -25.173 -14.662  0.00  0.00    +0.314 C 
BRANCH  19  20
ATOM     20  OE1 UNL     1      40.438 -26.074 -15.641  0.00  0.00    -0.480 OA
ATOM     21  HE1 UNL     1      39.740 -26.540 -16.058  0.00  0.00    +0.295 HD
ENDBRANCH  19  20
ENDBRANCH  17  19
ENDBRANCH  16  17
ENDBRANCH  11  16
ENDBRANCH   8  11
ENDBRANCH   2   9
BRANCH   1  22
ATOM     22  N   UNL     1      34.070 -20.521 -20.396  0.00  0.00    -0.302 N 
ATOM     23  C   UNL     1      32.748 -20.275 -20.935  0.00  0.00    +0.112 C 
BRANCH  22  24
ATOM     24  C   UNL     1      35.223 -19.948 -21.063  0.00  0.00    +0.118 C 
BRANCH  24  29
ATOM     25  O   UNL     1      35.115 -16.262 -21.326  0.00  0.00    -0.427 OA
ATOM     26  N   UNL     1      34.455 -15.707 -23.552  0.00  0.00    -0.294 NA
ATOM     27  N   UNL     1      34.053 -17.646 -24.971  0.00  0.00    -0.317 NA
ATOM     28  N   UNL     1      33.796 -15.466 -25.784  0.00  0.00    -0.283 N 
ATOM     29  C   UNL     1      35.094 -18.509 -21.459  0.00  0.00    +0.031 C 
ATOM     30  C   UNL     1      34.718 -17.989 -22.721  0.00  0.00    +0.180 C 
ATOM     31  C   UNL     1      34.745 -16.603 -22.593  0.00  0.00    +0.281 C 
ATOM     32  C   UNL     1      35.323 -17.421 -20.649  0.00  0.00    +0.176 C 
ATOM     33  C   UNL     1      34.356 -18.499 -23.966  0.00  0.00    +0.181 C 
ATOM     34  C   UNL     1      34.121 -16.321 -24.706  0.00  0.00    +0.200 C 
ATOM     35  H   UNL     1      33.824 -14.489 -25.662  0.00  0.00    +0.156 HD
ATOM     36  H   UNL     1      33.542 -15.847 -26.655  0.00  0.00    +0.156 HD
ATOM     37  N   UNL     1      34.299 -19.886 -24.192  0.00  0.00    -0.335 N 
ATOM     38  H   UNL     1      34.041 -20.230 -25.078  0.00  0.00    +0.144 HD
ATOM     39  H   UNL     1      34.517 -20.513 -23.466  0.00  0.00    +0.144 HD
ENDBRANCH  24  29
ENDBRANCH  22  24
ENDBRANCH   1  22
TORSDOF 11
ENDMDL
MODEL 8
REMARK VINA RESULT:      -9.9      1.011      2.728
REMARK  Name = 158376
REMARK  11 active torsions:
REMARK  status: ('A' for Active; 'I' for Inactive)
REMARK    1  A    between atoms: C_1  and  N_22
REMARK    2  A    between atoms: C_2  and  C_9
REMARK    3  A    between atoms: N_8  and  CA_11
REMARK    4  A    between atoms: CA_11  and  C_13
REMARK    5  A    between atoms: CA_11  and  CB_16
REMARK    6  A    between atoms: C_13  and  O_14
REMARK    7  A    between atoms: CB_16  and  CG_17
REMARK    8  A    between atoms: CG_17  and  CD_19
REMARK    9  A    between atoms: CD_19  and  OE1_20
REMARK   10  A    between atoms: N_22  and  C_24
REMARK   11  A    between atoms: C_24  and  C_29
REMARK                            x       y       z     vdW  Elec       q    Type
REMARK                         _______ _______ _______ _____ _____    ______ ____
ROOT
ATOM      1  C   UNL     1      35.487 -19.830 -20.530  0.00  0.00    +0.048 C 
ATOM      2  C   UNL     1      34.705 -21.798 -18.714  0.00  0.00    +0.053 C 
ATOM      3  C   UNL     1      36.447 -20.491 -19.764  0.00  0.00    +0.015 C 
ATOM      4  C   UNL     1      34.138 -20.152 -20.390  0.00  0.00    +0.015 C 
ATOM      5  C   UNL     1      36.055 -21.475 -18.856  0.00  0.00    +0.006 C 
ATOM      6  C   UNL     1      33.747 -21.136 -19.481  0.00  0.00    +0.006 C 
ENDROOT
BRANCH   2   9
ATOM      7  O   UNL     1      33.675 -23.828 -18.155  0.00  0.00    -0.270 OA
ATOM      8  N   UNL     1      34.659 -22.636 -16.426  0.00  0.00    -0.293 N 
ATOM      9  C   ACE A   0      34.289 -22.846 -17.747  0.00  0.00    +0.246 C 
ATOM     10  H   UNL     1      35.151 -21.814 -16.197  0.00  0.00    +0.150 HD
BRANCH   8  11
ATOM     11  CA  UNL     1      34.350 -23.573 -15.376  0.00  0.00    +0.172 C 
BRANCH  11  13
ATOM     12  OXT UNL     1      35.230 -25.844 -15.327  0.00  0.00    -0.248 OA
ATOM     13  C   UNL     1      35.429 -24.637 -15.379  0.00  0.00    +0.332 C 
BRANCH  13  14
ATOM     14  O   UNL     1      36.672 -24.098 -15.486  0.00  0.00    -0.479 OA
ATOM     15  H   UNL     1      37.306 -24.247 -14.813  0.00  0.00    +0.295 HD
ENDBRANCH  13  14
ENDBRANCH  11  13
BRANCH  11  16
ATOM     16  CB  UNL     1      32.927 -24.135 -15.482  0.00  0.00    +0.043 C 
BRANCH  16  17
ATOM     17  CG  UNL     1      31.811 -23.229 -14.948  0.00  0.00    +0.112 C 
BRANCH  17  19
ATOM     18  OE2 UNL     1      32.033 -23.519 -12.539  0.00  0.00    -0.250 OA
ATOM     19  CD  UNL     1      31.350 -23.587 -13.552  0.00  0.00    +0.314 C 
BRANCH  19  20
ATOM     20  OE1 UNL     1      30.069 -24.042 -13.549  0.00  0.00    -0.480 OA
ATOM     21  HE1 UNL     1      29.856 -24.836 -13.099  0.00  0.00    +0.295 HD
ENDBRANCH  19  20
ENDBRANCH  17  19
ENDBRANCH  16  17
ENDBRANCH  11  16
ENDBRANCH   8  11
ENDBRANCH   2   9
BRANCH   1  22
ATOM     22  N   UNL     1      35.882 -18.836 -21.449  0.00  0.00    -0.302 N 
ATOM     23  C   UNL     1      37.111 -18.980 -22.204  0.00  0.00    +0.112 C 
BRANCH  22  24
ATOM     24  C   UNL     1      35.057 -17.663 -21.662  0.00  0.00    +0.118 C 
BRANCH  24  29
ATOM     25  O   UNL     1      34.028 -17.850 -25.208  0.00  0.00    -0.427 OA
ATOM     26  N   UNL     1      33.491 -15.638 -25.930  0.00  0.00    -0.294 NA
ATOM     27  N   UNL     1      33.761 -13.945 -24.200  0.00  0.00    -0.317 NA
ATOM     28  N   UNL     1      33.037 -13.382 -26.353  0.00  0.00    -0.283 N 
ATOM     29  C   UNL     1      34.604 -17.435 -23.071  0.00  0.00    +0.031 C 
ATOM     30  C   UNL     1      34.246 -16.207 -23.678  0.00  0.00    +0.180 C 
ATOM     31  C   UNL     1      33.898 -16.509 -24.991  0.00  0.00    +0.281 C 
ATOM     32  C   UNL     1      34.456 -18.399 -24.042  0.00  0.00    +0.176 C 
ATOM     33  C   UNL     1      34.164 -14.869 -23.298  0.00  0.00    +0.181 C 
ATOM     34  C   UNL     1      33.453 -14.381 -25.442  0.00  0.00    +0.200 C 
ATOM     35  H   UNL     1      32.797 -13.628 -27.276  0.00  0.00    +0.156 HD
ATOM     36  H   UNL     1      32.987 -12.443 -26.064  0.00  0.00    +0.156 HD
ATOM     37  N   UNL     1      34.496 -14.465 -21.992  0.00  0.00    -0.335 N 
ATOM     38  H   UNL     1      34.433 -13.516 -21.739  0.00  0.00    +0.144 HD
ATOM     39  H   UNL     1      34.791 -15.132 -21.330  0.00  0.00    +0.144 HD
ENDBRANCH  24  29
ENDBRANCH  22  24
ENDBRANCH   1  22
TORSDOF 11
ENDMDL
MODEL 9
REMARK VINA RESULT:      -9.9      3.526     10.385
REMARK  Name = 158376
REMARK  11 active torsions:
REMARK  status: ('A' for Active; 'I' for Inactive)
REMARK    1  A    between atoms: C_1  and  N_22
REMARK    2  A    between atoms: C_2  and  C_9
REMARK    3  A    between atoms: N_8  and  CA_11
REMARK    4  A    between atoms: CA_11  and  C_13
REMARK    5  A    between atoms: CA_11  and  CB_16
REMARK    6  A    between atoms: C_13  and  O_14
REMARK    7  A    between atoms: CB_16  and  CG_17
REMARK    8  A    between atoms: CG_17  and  CD_19
REMARK    9  A    between atoms: CD_19  and  OE1_20
REMARK   10  A    between atoms: N_22  and  C_24
REMARK   11  A    between atoms: C_24  and  C_29
REMARK                            x       y       z     vdW  Elec       q    Type
REMARK                         _______ _______ _______ _____ _____    ______ ____
ROOT
ATOM      1  C   UNL     1      35.344 -17.366 -21.981  0.00  0.00    +0.048 C 
ATOM      2  C   UNL     1      34.289 -15.056 -23.136  0.00  0.00    +0.053 C 
ATOM      3  C   UNL     1      35.191 -17.287 -23.365  0.00  0.00    +0.015 C 
ATOM      4  C   UNL     1      34.971 -16.291 -21.174  0.00  0.00    +0.015 C 
ATOM      5  C   UNL     1      34.664 -16.132 -23.942  0.00  0.00    +0.006 C 
ATOM      6  C   UNL     1      34.443 -15.136 -21.753  0.00  0.00    +0.006 C 
ENDROOT
BRANCH   2   9
ATOM      7  O   UNL     1      33.031 -13.924 -24.758  0.00  0.00    -0.270 OA
ATOM      8  N   UNL     1      34.026 -12.634 -23.107  0.00  0.00    -0.293 N 
ATOM      9  C   ACE A   0      33.728 -13.826 -23.752  0.00  0.00    +0.246 C 
ATOM     10  H   UNL     1      34.596 -12.658 -22.305  0.00  0.00    +0.150 HD
BRANCH   8  11
ATOM     11  CA  UNL     1      33.535 -11.360 -23.568  0.00  0.00    +0.172 C 
BRANCH  11  13
ATOM     12  OXT UNL     1      34.987 -10.972 -25.485  0.00  0.00    -0.248 OA
ATOM     13  C   UNL     1      34.652 -10.690 -24.341  0.00  0.00    +0.332 C 
BRANCH  13  14
ATOM     14  O   UNL     1      35.235  -9.691 -23.628  0.00  0.00    -0.479 OA
ATOM     15  H   UNL     1      34.844  -8.841 -23.607  0.00  0.00    +0.295 HD
ENDBRANCH  13  14
ENDBRANCH  11  13
BRANCH  11  16
ATOM     16  CB  UNL     1      32.965 -10.499 -22.434  0.00  0.00    +0.043 C 
BRANCH  16  17
ATOM     17  CG  UNL     1      31.630 -10.971 -21.844  0.00  0.00    +0.112 C 
BRANCH  17  19
ATOM     18  OE2 UNL     1      31.736 -11.108 -19.413  0.00  0.00    -0.250 OA
ATOM     19  CD  UNL     1      31.766 -11.661 -20.504  0.00  0.00    +0.314 C 
BRANCH  19  20
ATOM     20  OE1 UNL     1      31.971 -12.997 -20.648  0.00  0.00    -0.480 OA
ATOM     21  HE1 UNL     1      31.257 -13.557 -20.884  0.00  0.00    +0.295 HD
ENDBRANCH  19  20
ENDBRANCH  17  19
ENDBRANCH  16  17
ENDBRANCH  11  16
ENDBRANCH   8  11
ENDBRANCH   2   9
BRANCH   1  22
ATOM     22  N   UNL     1      35.878 -18.533 -21.396  0.00  0.00    -0.302 N 
ATOM     23  C   UNL     1      37.203 -18.520 -20.809  0.00  0.00    +0.112 C 
BRANCH  22  24
ATOM     24  C   UNL     1      35.103 -19.758 -21.362  0.00  0.00    +0.118 C 
BRANCH  24  29
ATOM     25  O   UNL     1      36.473 -21.853 -18.642  0.00  0.00    -0.427 OA
ATOM     26  N   UNL     1      34.632 -22.777 -17.434  0.00  0.00    -0.294 NA
ATOM     27  N   UNL     1      32.454 -22.109 -18.297  0.00  0.00    -0.317 NA
ATOM     28  N   UNL     1      32.649 -23.531 -16.448  0.00  0.00    -0.283 N 
ATOM     29  C   UNL     1      35.363 -20.657 -20.193  0.00  0.00    +0.031 C 
ATOM     30  C   UNL     1      34.410 -21.295 -19.363  0.00  0.00    +0.180 C 
ATOM     31  C   UNL     1      35.137 -22.019 -18.422  0.00  0.00    +0.281 C 
ATOM     32  C   UNL     1      36.598 -21.029 -19.714  0.00  0.00    +0.176 C 
ATOM     33  C   UNL     1      33.022 -21.362 -19.271  0.00  0.00    +0.181 C 
ATOM     34  C   UNL     1      33.284 -22.761 -17.450  0.00  0.00    +0.200 C 
ATOM     35  H   UNL     1      33.192 -24.033 -15.796  0.00  0.00    +0.156 HD
ATOM     36  H   UNL     1      31.667 -23.565 -16.401  0.00  0.00    +0.156 HD
ATOM     37  N   UNL     1      32.201 -20.665 -20.177  0.00  0.00    -0.335 N 
ATOM     38  H   UNL     1      31.222 -20.723 -20.098  0.00  0.00    +0.144 HD
ATOM     39  H   UNL     1      32.606 -20.119 -20.889  0.00  0.00    +0.144 HD
ENDBRANCH  24  29
ENDBRANCH  22  24
ENDBRANCH   1  22
TORSDOF 11
ENDMDL
