MODEL 1
REMARK VINA RESULT:     -12.4      0.000      0.000
REMARK  Name = 10200813
REMARK  4 active torsions:
REMARK  status: ('A' for Active; 'I' for Inactive)
REMARK    1  A    between atoms: C_3  and  C_24
REMARK    2  A    between atoms: C_8  and  C_11
REMARK    3  A    between atoms: N_10  and  C_16
REMARK    4  A    between atoms: C_24  and  C_26
REMARK                            x       y       z     vdW  Elec       q    Type
REMARK                         _______ _______ _______ _____ _____    ______ ____
ROOT
ATOM      1  O   UNL     1      34.617 -17.214 -24.394  0.00  0.00    -0.265 OA
ATOM      2  N   UNL     1      34.507 -15.506 -22.783  0.00  0.00    -0.272 N 
ATOM      3  C   UNL     1      32.942 -13.294 -21.758  0.00  0.00    +0.008 C 
ATOM      4  C   UNL     1      32.769 -13.811 -23.195  0.00  0.00    +0.022 C 
ATOM      5  C   UNL     1      33.440 -14.424 -20.844  0.00  0.00    +0.022 C 
ATOM      6  C   UNL     1      34.051 -14.467 -23.704  0.00  0.00    +0.094 C 
ATOM      7  C   UNL     1      34.707 -15.070 -21.397  0.00  0.00    +0.094 C 
ATOM      8  C   UNL     1      34.761 -16.785 -23.256  0.00  0.00    +0.303 C 
ENDROOT
BRANCH   8  11
ATOM      9  O   UNL     1      36.454 -17.677 -21.966  0.00  0.00    -0.265 OA
ATOM     10  N   UNL     1      34.293 -18.631 -21.825  0.00  0.00    -0.277 N 
ATOM     11  C   UNL     1      35.270 -17.761 -22.265  0.00  0.00    +0.303 C 
ATOM     12  H   UNL     1      33.394 -18.509 -22.209  0.00  0.00    +0.155 HD
BRANCH  10  16
ATOM     13  O   UNL     1      32.507 -21.940 -18.726  0.00  0.00    -0.407 OA
ATOM     14  O   UNL     1      32.722 -23.655 -17.190  0.00  0.00    -0.223 OA
ATOM     15  N   UNL     1      34.605 -22.694 -18.169  0.00  0.00    -0.287 N 
ATOM     16  C   UNL     1      34.439 -19.678 -20.886  0.00  0.00    +0.054 C 
ATOM     17  C   UNL     1      33.300 -20.233 -20.316  0.00  0.00    +0.054 C 
ATOM     18  C   UNL     1      35.729 -20.121 -20.562  0.00  0.00    +0.016 C 
ATOM     19  C   UNL     1      33.497 -21.251 -19.408  0.00  0.00    +0.167 A 
ATOM     20  C   UNL     1      34.763 -21.689 -19.086  0.00  0.00    +0.096 A 
ATOM     21  C   UNL     1      35.905 -21.154 -19.639  0.00  0.00    +0.022 C 
ATOM     22  C   UNL     1      33.247 -22.850 -17.948  0.00  0.00    +0.419 A 
ATOM     23  H   UNL     1      35.327 -23.213 -17.744  0.00  0.00    +0.172 HD
ENDBRANCH  10  16
ENDBRANCH   8  11
BRANCH   3  24
ATOM     24  C   UNL     1      31.636 -12.704 -21.233  0.00  0.00    +0.026 C 
BRANCH  24  26
ATOM     25  F   UNL     1      32.232  -7.297 -19.815  0.00  0.00    -0.204 F 
ATOM     26  C   UNL     1      31.795 -11.257 -20.854  0.00  0.00    -0.022 C 
ATOM     27  C   UNL     1      31.960 -10.303 -21.849  0.00  0.00    -0.002 C 
ATOM     28  C   UNL     1      31.776 -10.895 -19.513  0.00  0.00    -0.002 C 
ATOM     29  C   UNL     1      32.107  -8.961 -21.496  0.00  0.00    +0.029 C 
ATOM     30  C   UNL     1      31.923  -9.553 -19.161  0.00  0.00    +0.029 C 
ATOM     31  C   UNL     1      32.088  -8.586 -20.153  0.00  0.00    +0.140 C 
ENDBRANCH  24  26
ENDBRANCH   3  24
TORSDOF 4
ENDMDL
MODEL 2
REMARK VINA RESULT:     -12.1      4.995      7.679
REMARK  Name = 10200813
REMARK  4 active torsions:
REMARK  status: ('A' for Active; 'I' for Inactive)
REMARK    1  A    between atoms: C_3  and  C_24
REMARK    2  A    between atoms: C_8  and  C_11
REMARK    3  A    between atoms: N_10  and  C_16
REMARK    4  A    between atoms: C_24  and  C_26
REMARK                            x       y       z     vdW  Elec       q    Type
REMARK                         _______ _______ _______ _____ _____    ______ ____
ROOT
ATOM      1  O   UNL     1      31.847 -22.122 -17.564  0.00  0.00    -0.265 OA
ATOM      2  N   UNL     1      33.519 -21.880 -19.198  0.00  0.00    -0.272 N 
ATOM      3  C   UNL     1      34.895 -20.021 -20.943  0.00  0.00    +0.008 C 
ATOM      4  C   UNL     1      33.493 -19.725 -20.389  0.00  0.00    +0.022 C 
ATOM      5  C   UNL     1      35.660 -20.946 -19.984  0.00  0.00    +0.022 C 
ATOM      6  C   UNL     1      32.737 -21.016 -20.079  0.00  0.00    +0.094 C 
ATOM      7  C   UNL     1      34.864 -22.213 -19.680  0.00  0.00    +0.094 C 
ATOM      8  C   UNL     1      32.957 -22.358 -18.023  0.00  0.00    +0.303 C 
ENDROOT
BRANCH   8  11
ATOM      9  O   UNL     1      33.553 -24.465 -17.295  0.00  0.00    -0.265 OA
ATOM     10  N   UNL     1      34.763 -22.598 -16.488  0.00  0.00    -0.277 N 
ATOM     11  C   UNL     1      33.802 -23.269 -17.216  0.00  0.00    +0.303 C 
ATOM     12  H   UNL     1      34.778 -21.617 -16.583  0.00  0.00    +0.155 HD
BRANCH  10  16
ATOM     13  O   UNL     1      36.076 -25.356 -12.692  0.00  0.00    -0.407 OA
ATOM     14  O   UNL     1      37.636 -26.290 -11.262  0.00  0.00    -0.223 OA
ATOM     15  N   UNL     1      38.306 -24.894 -13.004  0.00  0.00    -0.287 N 
ATOM     16  C   UNL     1      35.727 -23.161 -15.620  0.00  0.00    +0.054 C 
ATOM     17  C   UNL     1      35.301 -23.989 -14.589  0.00  0.00    +0.054 C 
ATOM     18  C   UNL     1      37.081 -22.865 -15.830  0.00  0.00    +0.016 C 
ATOM     19  C   UNL     1      36.280 -24.512 -13.772  0.00  0.00    +0.167 A 
ATOM     20  C   UNL     1      37.612 -24.224 -13.975  0.00  0.00    +0.096 A 
ATOM     21  C   UNL     1      38.056 -23.407 -14.990  0.00  0.00    +0.022 C 
ATOM     22  C   UNL     1      37.386 -25.579 -12.227  0.00  0.00    +0.419 A 
ATOM     23  H   UNL     1      39.284 -24.891 -12.879  0.00  0.00    +0.172 HD
ENDBRANCH  10  16
ENDBRANCH   8  11
BRANCH   3  24
ATOM     24  C   UNL     1      35.669 -18.727 -21.183  0.00  0.00    +0.026 C 
BRANCH  24  26
ATOM     25  F   UNL     1      33.690 -15.930 -25.638  0.00  0.00    -0.204 F 
ATOM     26  C   UNL     1      35.140 -17.978 -22.375  0.00  0.00    -0.022 C 
ATOM     27  C   UNL     1      35.241 -16.594 -22.414  0.00  0.00    -0.002 C 
ATOM     28  C   UNL     1      34.556 -18.682 -23.421  0.00  0.00    -0.002 C 
ATOM     29  C   UNL     1      34.750 -15.901 -23.521  0.00  0.00    +0.029 C 
ATOM     30  C   UNL     1      34.066 -17.988 -24.527  0.00  0.00    +0.029 C 
ATOM     31  C   UNL     1      34.163 -16.597 -24.577  0.00  0.00    +0.140 C 
ENDBRANCH  24  26
ENDBRANCH   3  24
TORSDOF 4
ENDMDL
MODEL 3
REMARK VINA RESULT:     -12.0      1.554      2.014
REMARK  Name = 10200813
REMARK  4 active torsions:
REMARK  status: ('A' for Active; 'I' for Inactive)
REMARK    1  A    between atoms: C_3  and  C_24
REMARK    2  A    between atoms: C_8  and  C_11
REMARK    3  A    between atoms: N_10  and  C_16
REMARK    4  A    between atoms: C_24  and  C_26
REMARK                            x       y       z     vdW  Elec       q    Type
REMARK                         _______ _______ _______ _____ _____    ______ ____
ROOT
ATOM      1  O   UNL     1      33.971 -18.465 -24.658  0.00  0.00    -0.265 OA
ATOM      2  N   UNL     1      34.552 -16.407 -23.681  0.00  0.00    -0.272 N 
ATOM      3  C   UNL     1      33.697 -13.687 -23.167  0.00  0.00    +0.008 C 
ATOM      4  C   UNL     1      33.101 -14.520 -24.312  0.00  0.00    +0.022 C 
ATOM      5  C   UNL     1      34.182 -14.609 -22.037  0.00  0.00    +0.022 C 
ATOM      6  C   UNL     1      34.088 -15.582 -24.794  0.00  0.00    +0.094 C 
ATOM      7  C   UNL     1      35.146 -15.671 -22.562  0.00  0.00    +0.094 C 
ATOM      8  C   UNL     1      34.453 -17.788 -23.758  0.00  0.00    +0.303 C 
ENDROOT
BRANCH   8  11
ATOM      9  O   UNL     1      36.183 -18.398 -22.359  0.00  0.00    -0.265 OA
ATOM     10  N   UNL     1      34.038 -19.324 -21.985  0.00  0.00    -0.277 N 
ATOM     11  C   UNL     1      34.994 -18.549 -22.608  0.00  0.00    +0.303 C 
ATOM     12  H   UNL     1      33.129 -19.287 -22.364  0.00  0.00    +0.155 HD
BRANCH  10  16
ATOM     13  O   UNL     1      32.357 -22.073 -18.329  0.00  0.00    -0.407 OA
ATOM     14  O   UNL     1      32.627 -23.455 -16.495  0.00  0.00    -0.223 OA
ATOM     15  N   UNL     1      34.479 -22.606 -17.625  0.00  0.00    -0.287 N 
ATOM     16  C   UNL     1      34.217 -20.167 -20.863  0.00  0.00    +0.054 C 
ATOM     17  C   UNL     1      33.096 -20.660 -20.207  0.00  0.00    +0.054 C 
ATOM     18  C   UNL     1      35.520 -20.478 -20.453  0.00  0.00    +0.016 C 
ATOM     19  C   UNL     1      33.325 -21.477 -19.121  0.00  0.00    +0.167 A 
ATOM     20  C   UNL     1      34.605 -21.786 -18.714  0.00  0.00    +0.096 A 
ATOM     21  C   UNL     1      35.730 -21.309 -19.350  0.00  0.00    +0.022 C 
ATOM     22  C   UNL     1      33.125 -22.782 -17.388  0.00  0.00    +0.419 A 
ATOM     23  H   UNL     1      35.217 -22.999 -17.104  0.00  0.00    +0.172 HD
ENDBRANCH  10  16
ENDBRANCH   8  11
BRANCH   3  24
ATOM     24  C   UNL     1      32.679 -12.676 -22.644  0.00  0.00    +0.026 C 
BRANCH  24  26
ATOM     25  F   UNL     1      34.362  -7.390 -23.545  0.00  0.00    -0.204 F 
ATOM     26  C   UNL     1      33.130 -11.262 -22.884  0.00  0.00    -0.022 C 
ATOM     27  C   UNL     1      32.459 -10.215 -22.266  0.00  0.00    -0.002 C 
ATOM     28  C   UNL     1      34.210 -11.021 -23.723  0.00  0.00    -0.002 C 
ATOM     29  C   UNL     1      32.877  -8.904 -22.490  0.00  0.00    +0.029 C 
ATOM     30  C   UNL     1      34.629  -9.709 -23.946  0.00  0.00    +0.029 C 
ATOM     31  C   UNL     1      33.962  -8.651 -23.330  0.00  0.00    +0.140 C 
ENDBRANCH  24  26
ENDBRANCH   3  24
TORSDOF 4
ENDMDL
MODEL 4
REMARK VINA RESULT:     -11.3      5.057     10.125
REMARK  Name = 10200813
REMARK  4 active torsions:
REMARK  status: ('A' for Active; 'I' for Inactive)
REMARK    1  A    between atoms: C_3  and  C_24
REMARK    2  A    between atoms: C_8  and  C_11
REMARK    3  A    between atoms: N_10  and  C_16
REMARK    4  A    between atoms: C_24  and  C_26
REMARK                            x       y       z     vdW  Elec       q    Type
REMARK                         _______ _______ _______ _____ _____    ______ ____
ROOT
ATOM      1  O   UNL     1      33.364 -13.414 -25.863  0.00  0.00    -0.265 OA
ATOM      2  N   UNL     1      33.554 -14.765 -23.950  0.00  0.00    -0.272 N 
ATOM      3  C   UNL     1      34.775 -17.136 -22.818  0.00  0.00    +0.008 C 
ATOM      4  C   UNL     1      34.611 -16.955 -24.335  0.00  0.00    +0.022 C 
ATOM      5  C   UNL     1      34.878 -15.766 -22.128  0.00  0.00    +0.022 C 
ATOM      6  C   UNL     1      33.434 -16.038 -24.658  0.00  0.00    +0.094 C 
ATOM      7  C   UNL     1      33.697 -14.870 -22.494  0.00  0.00    +0.094 C 
ATOM      8  C   UNL     1      33.482 -13.573 -24.655  0.00  0.00    +0.303 C 
ENDROOT
BRANCH   8  11
ATOM      9  O   UNL     1      34.512 -11.592 -24.073  0.00  0.00    -0.265 OA
ATOM     10  N   UNL     1      32.515 -12.206 -22.961  0.00  0.00    -0.277 N 
ATOM     11  C   UNL     1      33.562 -12.331 -23.852  0.00  0.00    +0.303 C 
ATOM     12  H   UNL     1      31.853 -12.936 -22.958  0.00  0.00    +0.155 HD
BRANCH  10  16
ATOM     13  O   UNL     1      32.514  -7.493 -21.722  0.00  0.00    -0.407 OA
ATOM     14  O   UNL     1      32.147  -5.747 -20.250  0.00  0.00    -0.223 OA
ATOM     15  N   UNL     1      31.713  -7.947 -19.616  0.00  0.00    -0.287 N 
ATOM     16  C   UNL     1      32.288 -11.148 -22.050  0.00  0.00    +0.054 C 
ATOM     17  C   UNL     1      32.556  -9.845 -22.453  0.00  0.00    +0.054 C 
ATOM     18  C   UNL     1      31.800 -11.449 -20.772  0.00  0.00    +0.016 C 
ATOM     19  C   UNL     1      32.317  -8.851 -21.529  0.00  0.00    +0.167 A 
ATOM     20  C   UNL     1      31.837  -9.143 -20.271  0.00  0.00    +0.096 A 
ATOM     21  C   UNL     1      31.564 -10.426 -19.851  0.00  0.00    +0.022 C 
ATOM     22  C   UNL     1      32.120  -6.949 -20.486  0.00  0.00    +0.419 A 
ATOM     23  H   UNL     1      31.392  -7.819 -18.693  0.00  0.00    +0.172 HD
ENDBRANCH  10  16
ENDBRANCH   8  11
BRANCH   3  24
ATOM     24  C   UNL     1      35.996 -17.996 -22.502  0.00  0.00    +0.026 C 
BRANCH  24  26
ATOM     25  F   UNL     1      34.808 -21.960 -18.698  0.00  0.00    -0.204 F 
ATOM     26  C   UNL     1      35.679 -19.056 -21.484  0.00  0.00    -0.022 C 
ATOM     27  C   UNL     1      36.701 -19.595 -20.716  0.00  0.00    -0.002 C 
ATOM     28  C   UNL     1      34.366 -19.483 -21.327  0.00  0.00    -0.002 C 
ATOM     29  C   UNL     1      36.406 -20.579 -19.771  0.00  0.00    +0.029 C 
ATOM     30  C   UNL     1      34.071 -20.466 -20.382  0.00  0.00    +0.029 C 
ATOM     31  C   UNL     1      35.091 -21.014 -19.604  0.00  0.00    +0.140 C 
ENDBRANCH  24  26
ENDBRANCH   3  24
TORSDOF 4
ENDMDL
MODEL 5
REMARK VINA RESULT:     -11.1      4.139      7.083
REMARK  Name = 10200813
REMARK  4 active torsions:
REMARK  status: ('A' for Active; 'I' for Inactive)
REMARK    1  A    between atoms: C_3  and  C_24
REMARK    2  A    between atoms: C_8  and  C_11
REMARK    3  A    between atoms: N_10  and  C_16
REMARK    4  A    between atoms: C_24  and  C_26
REMARK                            x       y       z     vdW  Elec       q    Type
REMARK                         _______ _______ _______ _____ _____    ______ ____
ROOT
ATOM      1  O   UNL     1      31.675 -10.774 -19.040  0.00  0.00    -0.265 OA
ATOM      2  N   UNL     1      32.000  -9.826 -21.166  0.00  0.00    -0.272 N 
ATOM      3  C   UNL     1      33.303  -7.712 -22.659  0.00  0.00    +0.008 C 
ATOM      4  C   UNL     1      33.033  -7.591 -21.151  0.00  0.00    +0.022 C 
ATOM      5  C   UNL     1      33.450  -9.189 -23.054  0.00  0.00    +0.022 C 
ATOM      6  C   UNL     1      31.834  -8.440 -20.734  0.00  0.00    +0.094 C 
ATOM      7  C   UNL     1      32.245 -10.009 -22.600  0.00  0.00    +0.094 C 
ATOM      8  C   UNL     1      31.878 -10.856 -20.245  0.00  0.00    +0.303 C 
ENDROOT
BRANCH   8  11
ATOM      9  O   UNL     1      31.149 -13.035 -20.448  0.00  0.00    -0.265 OA
ATOM     10  N   UNL     1      33.117 -12.383 -21.589  0.00  0.00    -0.277 N 
ATOM     11  C   UNL     1      32.010 -12.231 -20.778  0.00  0.00    +0.303 C 
ATOM     12  H   UNL     1      33.679 -11.584 -21.717  0.00  0.00    +0.155 HD
BRANCH  10  16
ATOM     13  O   UNL     1      35.248 -16.764 -21.700  0.00  0.00    -0.407 OA
ATOM     14  O   UNL     1      35.937 -18.696 -22.768  0.00  0.00    -0.223 OA
ATOM     15  N   UNL     1      34.826 -17.020 -23.945  0.00  0.00    -0.287 N 
ATOM     16  C   UNL     1      33.535 -13.559 -22.254  0.00  0.00    +0.054 C 
ATOM     17  C   UNL     1      34.196 -14.543 -21.529  0.00  0.00    +0.054 C 
ATOM     18  C   UNL     1      33.266 -13.693 -23.623  0.00  0.00    +0.016 C 
ATOM     19  C   UNL     1      34.581 -15.669 -22.225  0.00  0.00    +0.167 A 
ATOM     20  C   UNL     1      34.319 -15.804 -23.571  0.00  0.00    +0.096 A 
ATOM     21  C   UNL     1      33.665 -14.842 -24.308  0.00  0.00    +0.022 C 
ATOM     22  C   UNL     1      35.388 -17.603 -22.821  0.00  0.00    +0.419 A 
ATOM     23  H   UNL     1      34.797 -17.410 -24.849  0.00  0.00    +0.172 HD
ENDBRANCH  10  16
ENDBRANCH   8  11
BRANCH   3  24
ATOM     24  C   UNL     1      34.545  -6.917 -23.054  0.00  0.00    +0.026 C 
BRANCH  24  26
ATOM     25  F   UNL     1      33.492  -3.423 -27.329  0.00  0.00    -0.204 F 
ATOM     26  C   UNL     1      34.263  -5.982 -24.198  0.00  0.00    -0.022 C 
ATOM     27  C   UNL     1      35.253  -5.735 -25.139  0.00  0.00    -0.002 C 
ATOM     28  C   UNL     1      33.016  -5.379 -24.298  0.00  0.00    -0.002 C 
ATOM     29  C   UNL     1      34.991  -4.868 -26.201  0.00  0.00    +0.029 C 
ATOM     30  C   UNL     1      32.754  -4.512 -25.359  0.00  0.00    +0.029 C 
ATOM     31  C   UNL     1      33.742  -4.257 -26.310  0.00  0.00    +0.140 C 
ENDBRANCH  24  26
ENDBRANCH   3  24
TORSDOF 4
ENDMDL
MODEL 6
REMARK VINA RESULT:     -11.1      4.378      6.613
REMARK  Name = 10200813
REMARK  4 active torsions:
REMARK  status: ('A' for Active; 'I' for Inactive)
REMARK    1  A    between atoms: C_3  and  C_24
REMARK    2  A    between atoms: C_8  and  C_11
REMARK    3  A    between atoms: N_10  and  C_16
REMARK    4  A    between atoms: C_24  and  C_26
REMARK                            x       y       z     vdW  Elec       q    Type
REMARK                         _______ _______ _______ _____ _____    ______ ____
ROOT
ATOM      1  O   UNL     1      36.774 -22.172 -18.687  0.00  0.00    -0.265 OA
ATOM      2  N   UNL     1      35.255 -20.672 -19.672  0.00  0.00    -0.272 N 
ATOM      3  C   UNL     1      34.640 -19.112 -22.034  0.00  0.00    +0.008 C 
ATOM      4  C   UNL     1      36.070 -19.578 -21.722  0.00  0.00    +0.022 C 
ATOM      5  C   UNL     1      33.619 -20.081 -21.417  0.00  0.00    +0.022 C 
ATOM      6  C   UNL     1      36.271 -19.777 -20.221  0.00  0.00    +0.094 C 
ATOM      7  C   UNL     1      33.867 -20.273 -19.923  0.00  0.00    +0.094 C 
ATOM      8  C   UNL     1      35.640 -21.782 -18.934  0.00  0.00    +0.303 C 
ENDROOT
BRANCH   8  11
ATOM      9  O   UNL     1      33.905 -23.286 -19.163  0.00  0.00    -0.265 OA
ATOM     10  N   UNL     1      34.424 -22.468 -17.004  0.00  0.00    -0.277 N 
ATOM     11  C   UNL     1      34.545 -22.606 -18.372  0.00  0.00    +0.303 C 
ATOM     12  H   UNL     1      35.059 -21.855 -16.568  0.00  0.00    +0.155 HD
BRANCH  10  16
ATOM     13  O   UNL     1      29.900 -23.833 -15.812  0.00  0.00    -0.407 OA
ATOM     14  O   UNL     1      28.353 -24.877 -14.446  0.00  0.00    -0.223 OA
ATOM     15  N   UNL     1      30.617 -24.880 -13.895  0.00  0.00    -0.287 N 
ATOM     16  C   UNL     1      33.487 -23.108 -16.159  0.00  0.00    +0.054 C 
ATOM     17  C   UNL     1      32.143 -23.091 -16.510  0.00  0.00    +0.054 C 
ATOM     18  C   UNL     1      33.948 -23.740 -14.995  0.00  0.00    +0.016 C 
ATOM     19  C   UNL     1      31.273 -23.730 -15.653  0.00  0.00    +0.167 A 
ATOM     20  C   UNL     1      31.721 -24.352 -14.508  0.00  0.00    +0.096 A 
ATOM     21  C   UNL     1      33.048 -24.381 -14.141  0.00  0.00    +0.022 C 
ATOM     22  C   UNL     1      29.515 -24.570 -14.676  0.00  0.00    +0.419 A 
ATOM     23  H   UNL     1      30.606 -25.388 -13.051  0.00  0.00    +0.172 HD
ENDBRANCH  10  16
ENDBRANCH   8  11
BRANCH   3  24
ATOM     24  C   UNL     1      34.427 -18.984 -23.540  0.00  0.00    +0.026 C 
BRANCH  24  26
ATOM     25  F   UNL     1      33.536 -13.647 -25.060  0.00  0.00    -0.204 F 
ATOM     26  C   UNL     1      34.188 -17.556 -23.947  0.00  0.00    -0.022 C 
ATOM     27  C   UNL     1      33.359 -17.281 -25.026  0.00  0.00    -0.002 C 
ATOM     28  C   UNL     1      34.801 -16.532 -23.238  0.00  0.00    -0.002 C 
ATOM     29  C   UNL     1      33.137 -15.956 -25.402  0.00  0.00    +0.029 C 
ATOM     30  C   UNL     1      34.580 -15.207 -23.615  0.00  0.00    +0.029 C 
ATOM     31  C   UNL     1      33.748 -14.919 -24.697  0.00  0.00    +0.140 C 
ENDBRANCH  24  26
ENDBRANCH   3  24
TORSDOF 4
ENDMDL
MODEL 7
REMARK VINA RESULT:     -10.9      4.938     10.634
REMARK  Name = 10200813
REMARK  4 active torsions:
REMARK  status: ('A' for Active; 'I' for Inactive)
REMARK    1  A    between atoms: C_3  and  C_24
REMARK    2  A    between atoms: C_8  and  C_11
REMARK    3  A    between atoms: N_10  and  C_16
REMARK    4  A    between atoms: C_24  and  C_26
REMARK                            x       y       z     vdW  Elec       q    Type
REMARK                         _______ _______ _______ _____ _____    ______ ____
ROOT
ATOM      1  O   UNL     1      33.810 -13.517 -25.524  0.00  0.00    -0.265 OA
ATOM      2  N   UNL     1      33.798 -14.974 -23.679  0.00  0.00    -0.272 N 
ATOM      3  C   UNL     1      34.896 -17.410 -22.560  0.00  0.00    +0.008 C 
ATOM      4  C   UNL     1      34.892 -17.145 -24.073  0.00  0.00    +0.022 C 
ATOM      5  C   UNL     1      34.925 -16.081 -21.788  0.00  0.00    +0.022 C 
ATOM      6  C   UNL     1      33.754 -16.204 -24.466  0.00  0.00    +0.094 C 
ATOM      7  C   UNL     1      33.788 -15.160 -22.225  0.00  0.00    +0.094 C 
ATOM      8  C   UNL     1      33.801 -13.744 -24.321  0.00  0.00    +0.303 C 
ENDROOT
BRANCH   8  11
ATOM      9  O   UNL     1      33.880 -12.748 -22.241  0.00  0.00    -0.265 OA
ATOM     10  N   UNL     1      33.693 -11.370 -24.156  0.00  0.00    -0.277 N 
ATOM     11  C   UNL     1      33.795 -12.549 -23.446  0.00  0.00    +0.303 C 
ATOM     12  H   UNL     1      33.637 -11.453 -25.136  0.00  0.00    +0.155 HD
BRANCH  10  16
ATOM     13  O   UNL     1      31.524  -7.725 -21.756  0.00  0.00    -0.407 OA
ATOM     14  O   UNL     1      31.449  -5.582 -20.891  0.00  0.00    -0.223 OA
ATOM     15  N   UNL     1      33.330  -6.333 -22.042  0.00  0.00    -0.287 N 
ATOM     16  C   UNL     1      33.659 -10.056 -23.634  0.00  0.00    +0.054 C 
ATOM     17  C   UNL     1      32.525  -9.633 -22.952  0.00  0.00    +0.054 C 
ATOM     18  C   UNL     1      34.772  -9.225 -23.821  0.00  0.00    +0.016 C 
ATOM     19  C   UNL     1      32.543  -8.345 -22.462  0.00  0.00    +0.167 A 
ATOM     20  C   UNL     1      33.635  -7.525 -22.643  0.00  0.00    +0.096 A 
ATOM     21  C   UNL     1      34.769  -7.923 -23.316  0.00  0.00    +0.022 C 
ATOM     22  C   UNL     1      32.058  -6.448 -21.505  0.00  0.00    +0.419 A 
ATOM     23  H   UNL     1      33.909  -5.537 -21.999  0.00  0.00    +0.172 HD
ENDBRANCH  10  16
ENDBRANCH   8  11
BRANCH   3  24
ATOM     24  C   UNL     1      36.077 -18.293 -22.166  0.00  0.00    +0.026 C 
BRANCH  24  26
ATOM     25  F   UNL     1      34.560 -22.264 -18.489  0.00  0.00    -0.204 F 
ATOM     26  C   UNL     1      35.671 -19.356 -21.183  0.00  0.00    -0.022 C 
ATOM     27  C   UNL     1      34.329 -19.684 -21.045  0.00  0.00    -0.002 C 
ATOM     28  C   UNL     1      36.644 -19.994 -20.424  0.00  0.00    -0.002 C 
ATOM     29  C   UNL     1      33.953 -20.670 -20.133  0.00  0.00    +0.029 C 
ATOM     30  C   UNL     1      36.268 -20.980 -19.512  0.00  0.00    +0.029 C 
ATOM     31  C   UNL     1      34.922 -21.318 -19.366  0.00  0.00    +0.140 C 
ENDBRANCH  24  26
ENDBRANCH   3  24
TORSDOF 4
ENDMDL
MODEL 8
REMARK VINA RESULT:     -10.9      5.464     10.986
REMARK  Name = 10200813
REMARK  4 active torsions:
REMARK  status: ('A' for Active; 'I' for Inactive)
REMARK    1  A    between atoms: C_3  and  C_24
REMARK    2  A    between atoms: C_8  and  C_11
REMARK    3  A    between atoms: N_10  and  C_16
REMARK    4  A    between atoms: C_24  and  C_26
REMARK                            x       y       z     vdW  Elec       q    Type
REMARK                         _______ _______ _______ _____ _____    ______ ____
ROOT
ATOM      1  O   UNL     1      37.164 -19.427 -19.805  0.00  0.00    -0.265 OA
ATOM      2  N   UNL     1      35.827 -21.265 -19.205  0.00  0.00    -0.272 N 
ATOM      3  C   UNL     1      34.894 -22.920 -17.018  0.00  0.00    +0.008 C 
ATOM      4  C   UNL     1      36.190 -22.100 -16.917  0.00  0.00    +0.022 C 
ATOM      5  C   UNL     1      33.918 -22.251 -17.999  0.00  0.00    +0.022 C 
ATOM      6  C   UNL     1      36.802 -21.863 -18.296  0.00  0.00    +0.094 C 
ATOM      7  C   UNL     1      34.573 -22.010 -19.357  0.00  0.00    +0.094 C 
ATOM      8  C   UNL     1      36.142 -20.097 -19.884  0.00  0.00    +0.303 C 
ENDROOT
BRANCH   8  11
ATOM      9  O   UNL     1      33.970 -19.986 -20.656  0.00  0.00    -0.265 OA
ATOM     10  N   UNL     1      35.636 -18.719 -21.761  0.00  0.00    -0.277 N 
ATOM     11  C   UNL     1      35.116 -19.588 -20.823  0.00  0.00    +0.303 C 
ATOM     12  H   UNL     1      36.604 -18.541 -21.702  0.00  0.00    +0.155 HD
BRANCH  10  16
ATOM     13  O   UNL     1      34.151 -14.712 -24.102  0.00  0.00    -0.407 OA
ATOM     14  O   UNL     1      33.016 -13.610 -25.789  0.00  0.00    -0.223 OA
ATOM     15  N   UNL     1      33.006 -15.937 -25.674  0.00  0.00    -0.287 N 
ATOM     16  C   UNL     1      34.936 -18.058 -22.796  0.00  0.00    +0.054 C 
ATOM     17  C   UNL     1      34.958 -16.669 -22.841  0.00  0.00    +0.054 C 
ATOM     18  C   UNL     1      34.246 -18.826 -23.743  0.00  0.00    +0.016 C 
ATOM     19  C   UNL     1      34.261 -16.074 -23.871  0.00  0.00    +0.167 A 
ATOM     20  C   UNL     1      33.580 -16.825 -24.804  0.00  0.00    +0.096 A 
ATOM     21  C   UNL     1      33.546 -18.202 -24.778  0.00  0.00    +0.022 C 
ATOM     22  C   UNL     1      33.347 -14.661 -25.256  0.00  0.00    +0.419 A 
ATOM     23  H   UNL     1      32.452 -16.164 -26.456  0.00  0.00    +0.172 HD
ENDBRANCH  10  16
ENDBRANCH   8  11
BRANCH   3  24
ATOM     24  C   UNL     1      34.252 -23.091 -15.644  0.00  0.00    +0.026 C 
BRANCH  24  26
ATOM     25  F   UNL     1      37.640 -25.849 -12.107  0.00  0.00    -0.204 F 
ATOM     26  C   UNL     1      35.158 -23.829 -14.697  0.00  0.00    -0.022 C 
ATOM     27  C   UNL     1      35.644 -23.181 -13.570  0.00  0.00    -0.002 C 
ATOM     28  C   UNL     1      35.498 -25.149 -14.964  0.00  0.00    -0.002 C 
ATOM     29  C   UNL     1      36.485 -23.866 -12.692  0.00  0.00    +0.029 C 
ATOM     30  C   UNL     1      36.338 -25.834 -14.086  0.00  0.00    +0.029 C 
ATOM     31  C   UNL     1      36.832 -25.192 -12.950  0.00  0.00    +0.140 C 
ENDBRANCH  24  26
ENDBRANCH   3  24
TORSDOF 4
ENDMDL
MODEL 9
REMARK VINA RESULT:     -10.8      4.003      6.161
REMARK  Name = 10200813
REMARK  4 active torsions:
REMARK  status: ('A' for Active; 'I' for Inactive)
REMARK    1  A    between atoms: C_3  and  C_24
REMARK    2  A    between atoms: C_8  and  C_11
REMARK    3  A    between atoms: N_10  and  C_16
REMARK    4  A    between atoms: C_24  and  C_26
REMARK                            x       y       z     vdW  Elec       q    Type
REMARK                         _______ _______ _______ _____ _____    ______ ____
ROOT
ATOM      1  O   UNL     1      37.090 -21.946 -19.363  0.00  0.00    -0.265 OA
ATOM      2  N   UNL     1      35.546 -20.354 -20.141  0.00  0.00    -0.272 N 
ATOM      3  C   UNL     1      34.830 -18.601 -22.333  0.00  0.00    +0.008 C 
ATOM      4  C   UNL     1      36.267 -19.109 -22.139  0.00  0.00    +0.022 C 
ATOM      5  C   UNL     1      33.828 -19.605 -21.741  0.00  0.00    +0.022 C 
ATOM      6  C   UNL     1      36.545 -19.430 -20.672  0.00  0.00    +0.094 C 
ATOM      7  C   UNL     1      34.153 -19.918 -20.282  0.00  0.00    +0.094 C 
ATOM      8  C   UNL     1      35.951 -21.524 -19.516  0.00  0.00    +0.303 C 
ENDROOT
BRANCH   8  11
ATOM      9  O   UNL     1      34.429 -23.249 -19.696  0.00  0.00    -0.265 OA
ATOM     10  N   UNL     1      34.542 -22.039 -17.665  0.00  0.00    -0.277 N 
ATOM     11  C   UNL     1      34.874 -22.377 -18.961  0.00  0.00    +0.303 C 
ATOM     12  H   UNL     1      35.043 -21.290 -17.266  0.00  0.00    +0.155 HD
BRANCH  10  16
ATOM     13  O   UNL     1      33.149 -24.555 -13.731  0.00  0.00    -0.407 OA
ATOM     14  O   UNL     1      31.563 -25.553 -12.376  0.00  0.00    -0.223 OA
ATOM     15  N   UNL     1      30.934 -24.462 -14.336  0.00  0.00    -0.287 N 
ATOM     16  C   UNL     1      33.562 -22.647 -16.846  0.00  0.00    +0.054 C 
ATOM     17  C   UNL     1      33.964 -23.292 -15.683  0.00  0.00    +0.054 C 
ATOM     18  C   UNL     1      32.218 -22.578 -17.236  0.00  0.00    +0.016 C 
ATOM     19  C   UNL     1      32.970 -23.867 -14.921  0.00  0.00    +0.167 A 
ATOM     20  C   UNL     1      31.647 -23.802 -15.300  0.00  0.00    +0.096 A 
ATOM     21  C   UNL     1      31.227 -23.168 -16.448  0.00  0.00    +0.022 C 
ATOM     22  C   UNL     1      31.834 -24.919 -13.387  0.00  0.00    +0.419 A 
ATOM     23  H   UNL     1      29.957 -24.590 -14.320  0.00  0.00    +0.172 HD
ENDBRANCH  10  16
ENDBRANCH   8  11
BRANCH   3  24
ATOM     24  C   UNL     1      34.538 -18.350 -23.811  0.00  0.00    +0.026 C 
BRANCH  24  26
ATOM     25  F   UNL     1      33.379 -12.941 -24.802  0.00  0.00    -0.204 F 
ATOM     26  C   UNL     1      34.227 -16.903 -24.076  0.00  0.00    -0.022 C 
ATOM     27  C   UNL     1      33.529 -16.552 -25.224  0.00  0.00    -0.002 C 
ATOM     28  C   UNL     1      34.643 -15.937 -23.170  0.00  0.00    -0.002 C 
ATOM     29  C   UNL     1      33.242 -15.209 -25.469  0.00  0.00    +0.029 C 
ATOM     30  C   UNL     1      34.355 -14.594 -23.415  0.00  0.00    +0.029 C 
ATOM     31  C   UNL     1      33.654 -14.231 -24.565  0.00  0.00    +0.140 C 
ENDBRANCH  24  26
ENDBRANCH   3  24
TORSDOF 4
ENDMDL
