MODEL 1
REMARK VINA RESULT:     -11.7      0.000      0.000
REMARK  Name = 11961293
REMARK  7 active torsions:
REMARK  status: ('A' for Active; 'I' for Inactive)
REMARK    1  A    between atoms: C_1  and  C_3
REMARK    2  A    between atoms: C_1  and  N_21
REMARK    3  A    between atoms: N_2  and  C_9
REMARK    4  A    between atoms: C_9  and  C_12
REMARK    5  A    between atoms: C_17  and  O_18
REMARK    6  A    between atoms: C_22  and  C_26
REMARK    7  A    between atoms: C_30  and  C_35
REMARK                            x       y       z     vdW  Elec       q    Type
REMARK                         _______ _______ _______ _____ _____    ______ ____
ROOT
ATOM      1  C   UNL     1      33.676 -15.048 -24.363  0.00  0.00    +0.089 C 
ENDROOT
BRANCH   1   3
ATOM      2  N   UNL     1      35.073 -18.156 -21.709  0.00  0.00    +0.387 N 
ATOM      3  C   UNL     1      34.631 -15.987 -23.631  0.00  0.00    +0.015 C 
ATOM      4  C   UNL     1      35.208 -18.402 -23.150  0.00  0.00    -0.077 C 
ATOM      5  C   UNL     1      35.443 -16.775 -21.370  0.00  0.00    -0.077 C 
ATOM      6  C   UNL     1      34.320 -17.452 -23.958  0.00  0.00    -0.021 C 
ATOM      7  C   UNL     1      34.563 -15.770 -22.116  0.00  0.00    -0.021 C 
ATOM      8  H   UNL     1      34.094 -18.290 -21.456  0.00  0.00    -0.080 HD
BRANCH   2   9
ATOM      9  C   UNL     1      35.887 -19.105 -20.949  0.00  0.00    -0.077 C 
BRANCH   9  12
ATOM     10  O   UNL     1      31.914 -22.326 -17.390  0.00  0.00    -0.226 OA
ATOM     11  N   UNL     1      33.668 -22.172 -18.906  0.00  0.00    -0.246 N 
ATOM     12  C   UNL     1      35.112 -20.392 -20.678  0.00  0.00    -0.017 C 
ATOM     13  C   UNL     1      33.683 -20.081 -20.207  0.00  0.00    +0.020 C 
ATOM     14  C   UNL     1      35.838 -21.257 -19.635  0.00  0.00    +0.020 C 
ATOM     15  C   UNL     1      32.922 -21.359 -19.867  0.00  0.00    +0.097 C 
ATOM     16  C   UNL     1      35.038 -22.515 -19.304  0.00  0.00    +0.097 C 
ATOM     17  C   UNL     1      33.062 -22.611 -17.727  0.00  0.00    +0.405 C 
BRANCH  17  18
ATOM     18  O   UNL     1      33.886 -23.404 -16.973  0.00  0.00    -0.430 OA
ATOM     19  C   UNL     1      33.588 -23.474 -15.573  0.00  0.00    +0.257 C 
ENDBRANCH  17  18
ENDBRANCH   9  12
ENDBRANCH   2   9
ENDBRANCH   1   3
BRANCH   1  21
ATOM     20  O   UNL     1      34.187 -12.234 -24.118  0.00  0.00    -0.270 OA
ATOM     21  N   UNL     1      33.038 -14.127 -23.434  0.00  0.00    -0.301 N 
ATOM     22  C   UNL     1      33.358 -12.784 -23.397  0.00  0.00    +0.247 C 
ATOM     23  H   UNL     1      32.357 -14.472 -22.813  0.00  0.00    +0.150 HD
BRANCH  22  26
ATOM     24  N   UNL     1      32.194  -8.465 -21.702  0.00  0.00    -0.318 N 
ATOM     25  N   UNL     1      33.269  -9.681 -23.219  0.00  0.00    -0.318 N 
ATOM     26  C   UNL     1      32.637 -11.982 -22.376  0.00  0.00    +0.068 C 
ATOM     27  C   UNL     1      32.662 -10.586 -22.388  0.00  0.00    +0.063 C 
ATOM     28  C   UNL     1      31.898 -12.590 -21.356  0.00  0.00    +0.006 C 
ATOM     29  C   UNL     1      31.996  -9.803 -21.450  0.00  0.00    +0.059 C 
ATOM     30  C   UNL     1      32.961  -8.428 -22.769  0.00  0.00    +0.144 C 
ATOM     31  C   UNL     1      31.219 -11.830 -20.400  0.00  0.00    +0.001 C 
ATOM     32  C   UNL     1      31.258 -10.430 -20.432  0.00  0.00    +0.016 C 
ATOM     33  H   UNL     1      31.838  -7.700 -21.195  0.00  0.00    +0.148 HD
ATOM     34  H   UNL     1      33.829  -9.896 -24.001  0.00  0.00    +0.148 HD
BRANCH  30  35
ATOM     35  C   UNL     1      33.409  -7.161 -23.374  0.00  0.00    +0.037 C 
ATOM     36  C   UNL     1      32.681  -5.920 -22.803  0.00  0.00    +0.003 C 
ATOM     37  C   UNL     1      34.939  -6.944 -23.276  0.00  0.00    +0.003 C 
ENDBRANCH  30  35
ENDBRANCH  22  26
ENDBRANCH   1  21
TORSDOF 7
ENDMDL
MODEL 2
REMARK VINA RESULT:     -11.0      1.018      1.677
REMARK  Name = 11961293
REMARK  7 active torsions:
REMARK  status: ('A' for Active; 'I' for Inactive)
REMARK    1  A    between atoms: C_1  and  C_3
REMARK    2  A    between atoms: C_1  and  N_21
REMARK    3  A    between atoms: N_2  and  C_9
REMARK    4  A    between atoms: C_9  and  C_12
REMARK    5  A    between atoms: C_17  and  O_18
REMARK    6  A    between atoms: C_22  and  C_26
REMARK    7  A    between atoms: C_30  and  C_35
REMARK                            x       y       z     vdW  Elec       q    Type
REMARK                         _______ _______ _______ _____ _____    ______ ____
ROOT
ATOM      1  C   UNL     1      33.438 -14.409 -25.309  0.00  0.00    +0.089 C 
ENDROOT
BRANCH   1   3
ATOM      2  N   UNL     1      34.223 -18.142 -23.282  0.00  0.00    +0.387 N 
ATOM      3  C   UNL     1      34.107 -15.732 -24.949  0.00  0.00    +0.015 C 
ATOM      4  C   UNL     1      33.771 -18.225 -24.677  0.00  0.00    -0.077 C 
ATOM      5  C   UNL     1      35.211 -17.069 -23.109  0.00  0.00    -0.077 C 
ATOM      6  C   UNL     1      33.139 -16.907 -25.131  0.00  0.00    -0.021 C 
ATOM      7  C   UNL     1      34.628 -15.711 -23.509  0.00  0.00    -0.021 C 
ATOM      8  H   UNL     1      33.415 -17.921 -22.701  0.00  0.00    -0.080 HD
BRANCH   2   9
ATOM      9  C   UNL     1      34.778 -19.424 -22.847  0.00  0.00    -0.077 C 
BRANCH   9  12
ATOM     10  O   UNL     1      34.708 -23.214 -17.901  0.00  0.00    -0.226 OA
ATOM     11  N   UNL     1      34.038 -21.309 -19.052  0.00  0.00    -0.246 N 
ATOM     12  C   UNL     1      34.571 -19.624 -21.347  0.00  0.00    -0.017 C 
ATOM     13  C   UNL     1      35.639 -20.565 -20.769  0.00  0.00    +0.020 C 
ATOM     14  C   UNL     1      33.165 -20.177 -21.060  0.00  0.00    +0.020 C 
ATOM     15  C   UNL     1      35.399 -20.828 -19.285  0.00  0.00    +0.097 C 
ATOM     16  C   UNL     1      32.970 -20.447 -19.569  0.00  0.00    +0.097 C 
ATOM     17  C   UNL     1      33.816 -22.489 -18.337  0.00  0.00    +0.405 C 
BRANCH  17  18
ATOM     18  O   UNL     1      32.484 -22.760 -18.166  0.00  0.00    -0.430 OA
ATOM     19  C   UNL     1      32.058 -23.014 -16.821  0.00  0.00    +0.257 C 
ENDBRANCH  17  18
ENDBRANCH   9  12
ENDBRANCH   2   9
ENDBRANCH   1   3
BRANCH   1  21
ATOM     20  O   UNL     1      34.179 -11.827 -24.297  0.00  0.00    -0.270 OA
ATOM     21  N   UNL     1      32.906 -13.756 -24.123  0.00  0.00    -0.301 N 
ATOM     22  C   UNL     1      33.332 -12.506 -23.721  0.00  0.00    +0.247 C 
ATOM     23  H   UNL     1      32.219 -14.220 -23.591  0.00  0.00    +0.150 HD
BRANCH  22  26
ATOM     24  N   UNL     1      32.096  -8.722 -21.068  0.00  0.00    -0.318 N 
ATOM     25  N   UNL     1      33.026  -9.516 -22.923  0.00  0.00    -0.318 N 
ATOM     26  C   UNL     1      32.711 -11.987 -22.476  0.00  0.00    +0.068 C 
ATOM     27  C   UNL     1      32.623 -10.618 -22.215  0.00  0.00    +0.063 C 
ATOM     28  C   UNL     1      32.183 -12.847 -21.508  0.00  0.00    +0.006 C 
ATOM     29  C   UNL     1      32.044 -10.096 -21.061  0.00  0.00    +0.059 C 
ATOM     30  C   UNL     1      32.689  -8.408 -22.198  0.00  0.00    +0.144 C 
ATOM     31  C   UNL     1      31.597 -12.353 -20.340  0.00  0.00    +0.001 C 
ATOM     32  C   UNL     1      31.520 -10.976 -20.099  0.00  0.00    +0.016 C 
ATOM     33  H   UNL     1      31.760  -8.106 -20.377  0.00  0.00    +0.148 HD
ATOM     34  H   UNL     1      33.477  -9.522 -23.799  0.00  0.00    +0.148 HD
BRANCH  30  35
ATOM     35  C   UNL     1      32.940  -7.010 -22.595  0.00  0.00    +0.037 C 
ATOM     36  C   UNL     1      34.187  -6.845 -23.497  0.00  0.00    +0.003 C 
ATOM     37  C   UNL     1      31.723  -6.341 -23.281  0.00  0.00    +0.003 C 
ENDBRANCH  30  35
ENDBRANCH  22  26
ENDBRANCH   1  21
TORSDOF 7
ENDMDL
MODEL 3
REMARK VINA RESULT:     -11.0      2.862     12.304
REMARK  Name = 11961293
REMARK  7 active torsions:
REMARK  status: ('A' for Active; 'I' for Inactive)
REMARK    1  A    between atoms: C_1  and  C_3
REMARK    2  A    between atoms: C_1  and  N_21
REMARK    3  A    between atoms: N_2  and  C_9
REMARK    4  A    between atoms: C_9  and  C_12
REMARK    5  A    between atoms: C_17  and  O_18
REMARK    6  A    between atoms: C_22  and  C_26
REMARK    7  A    between atoms: C_30  and  C_35
REMARK                            x       y       z     vdW  Elec       q    Type
REMARK                         _______ _______ _______ _____ _____    ______ ____
ROOT
ATOM      1  C   UNL     1      34.734 -22.301 -19.229  0.00  0.00    +0.089 C 
ENDROOT
BRANCH   1   3
ATOM      2  N   UNL     1      35.820 -18.903 -21.664  0.00  0.00    +0.387 N 
ATOM      3  C   UNL     1      35.057 -20.862 -19.620  0.00  0.00    +0.015 C 
ATOM      4  C   UNL     1      34.447 -18.937 -21.145  0.00  0.00    -0.077 C 
ATOM      5  C   UNL     1      36.785 -19.324 -20.640  0.00  0.00    -0.077 C 
ATOM      6  C   UNL     1      34.070 -20.344 -20.673  0.00  0.00    -0.021 C 
ATOM      7  C   UNL     1      36.489 -20.744 -20.152  0.00  0.00    -0.021 C 
ATOM      8  H   UNL     1      35.880 -19.562 -22.441  0.00  0.00    -0.080 HD
BRANCH   2   9
ATOM      9  C   UNL     1      36.148 -17.566 -22.158  0.00  0.00    -0.077 C 
BRANCH   9  12
ATOM     10  O   UNL     1      33.402 -13.507 -26.008  0.00  0.00    -0.226 OA
ATOM     11  N   UNL     1      33.571 -14.650 -23.991  0.00  0.00    -0.246 N 
ATOM     12  C   UNL     1      34.890 -16.830 -22.612  0.00  0.00    -0.017 C 
ATOM     13  C   UNL     1      34.815 -16.770 -24.146  0.00  0.00    +0.020 C 
ATOM     14  C   UNL     1      34.846 -15.410 -22.024  0.00  0.00    +0.020 C 
ATOM     15  C   UNL     1      33.597 -15.975 -24.609  0.00  0.00    +0.097 C 
ATOM     16  C   UNL     1      33.626 -14.639 -22.526  0.00  0.00    +0.097 C 
ATOM     17  C   UNL     1      33.450 -13.503 -24.779  0.00  0.00    +0.405 C 
BRANCH  17  18
ATOM     18  O   UNL     1      33.386 -12.355 -24.034  0.00  0.00    -0.430 OA
ATOM     19  C   UNL     1      34.112 -11.229 -24.545  0.00  0.00    +0.257 C 
ENDBRANCH  17  18
ENDBRANCH   9  12
ENDBRANCH   2   9
ENDBRANCH   1   3
BRANCH   1  21
ATOM     20  O   UNL     1      33.428 -24.589 -18.088  0.00  0.00    -0.270 OA
ATOM     21  N   UNL     1      34.000 -22.346 -17.973  0.00  0.00    -0.301 N 
ATOM     22  C   UNL     1      33.406 -23.504 -17.512  0.00  0.00    +0.247 C 
ATOM     23  H   UNL     1      33.924 -21.525 -17.435  0.00  0.00    +0.150 HD
BRANCH  22  26
ATOM     24  N   UNL     1      33.486 -23.819 -12.739  0.00  0.00    -0.318 N 
ATOM     25  N   UNL     1      34.567 -24.005 -14.672  0.00  0.00    -0.318 N 
ATOM     26  C   UNL     1      32.671 -23.379 -16.227  0.00  0.00    +0.068 C 
ATOM     27  C   UNL     1      33.291 -23.627 -15.001  0.00  0.00    +0.063 C 
ATOM     28  C   UNL     1      31.324 -23.004 -16.187  0.00  0.00    +0.006 C 
ATOM     29  C   UNL     1      32.635 -23.517 -13.778  0.00  0.00    +0.059 C 
ATOM     30  C   UNL     1      34.634 -24.106 -13.310  0.00  0.00    +0.144 C 
ATOM     31  C   UNL     1      30.640 -22.886 -14.975  0.00  0.00    +0.001 C 
ATOM     32  C   UNL     1      31.282 -23.140 -13.757  0.00  0.00    +0.016 C 
ATOM     33  H   UNL     1      33.279 -23.819 -11.777  0.00  0.00    +0.148 HD
ATOM     34  H   UNL     1      35.304 -24.173 -15.304  0.00  0.00    +0.148 HD
BRANCH  30  35
ATOM     35  C   UNL     1      35.827 -24.487 -12.533  0.00  0.00    +0.037 C 
ATOM     36  C   UNL     1      37.054 -23.586 -12.817  0.00  0.00    +0.003 C 
ATOM     37  C   UNL     1      35.573 -24.534 -11.006  0.00  0.00    +0.003 C 
ENDBRANCH  30  35
ENDBRANCH  22  26
ENDBRANCH   1  21
TORSDOF 7
ENDMDL
MODEL 4
REMARK VINA RESULT:     -10.9      2.592      5.420
REMARK  Name = 11961293
REMARK  7 active torsions:
REMARK  status: ('A' for Active; 'I' for Inactive)
REMARK    1  A    between atoms: C_1  and  C_3
REMARK    2  A    between atoms: C_1  and  N_21
REMARK    3  A    between atoms: N_2  and  C_9
REMARK    4  A    between atoms: C_9  and  C_12
REMARK    5  A    between atoms: C_17  and  O_18
REMARK    6  A    between atoms: C_22  and  C_26
REMARK    7  A    between atoms: C_30  and  C_35
REMARK                            x       y       z     vdW  Elec       q    Type
REMARK                         _______ _______ _______ _____ _____    ______ ____
ROOT
ATOM      1  C   UNL     1      36.391 -18.826 -21.086  0.00  0.00    +0.089 C 
ENDROOT
BRANCH   1   3
ATOM      2  N   UNL     1      34.247 -21.723 -18.705  0.00  0.00    +0.387 N 
ATOM      3  C   UNL     1      35.718 -20.135 -20.682  0.00  0.00    +0.015 C 
ATOM      4  C   UNL     1      33.566 -21.211 -19.901  0.00  0.00    -0.077 C 
ATOM      5  C   UNL     1      35.662 -22.004 -18.980  0.00  0.00    -0.077 C 
ATOM      6  C   UNL     1      34.226 -19.924 -20.403  0.00  0.00    -0.021 C 
ATOM      7  C   UNL     1      36.394 -20.744 -19.450  0.00  0.00    -0.021 C 
ATOM      8  H   UNL     1      34.204 -21.003 -17.984  0.00  0.00    -0.080 HD
BRANCH   2   9
ATOM      9  C   UNL     1      33.574 -22.924 -18.207  0.00  0.00    -0.077 C 
BRANCH   9  12
ATOM     10  O   UNL     1      32.011 -25.387 -12.701  0.00  0.00    -0.226 OA
ATOM     11  N   UNL     1      31.920 -23.720 -14.318  0.00  0.00    -0.246 N 
ATOM     12  C   UNL     1      33.115 -22.731 -16.764  0.00  0.00    -0.017 C 
ATOM     13  C   UNL     1      33.872 -23.676 -15.819  0.00  0.00    +0.020 C 
ATOM     14  C   UNL     1      31.599 -22.958 -16.639  0.00  0.00    +0.020 C 
ATOM     15  C   UNL     1      33.370 -23.541 -14.384  0.00  0.00    +0.097 C 
ATOM     16  C   UNL     1      31.138 -22.836 -15.188  0.00  0.00    +0.097 C 
ATOM     17  C   UNL     1      31.359 -24.646 -13.434  0.00  0.00    +0.405 C 
BRANCH  17  18
ATOM     18  O   UNL     1      29.989 -24.641 -13.464  0.00  0.00    -0.430 OA
ATOM     19  C   UNL     1      29.373 -25.648 -14.277  0.00  0.00    +0.257 C 
ENDBRANCH  17  18
ENDBRANCH   9  12
ENDBRANCH   2   9
ENDBRANCH   1   3
BRANCH   1  21
ATOM     20  O   UNL     1      35.019 -16.304 -21.122  0.00  0.00    -0.270 OA
ATOM     21  N   UNL     1      35.714 -18.222 -22.223  0.00  0.00    -0.301 N 
ATOM     22  C   UNL     1      35.081 -16.998 -22.134  0.00  0.00    +0.247 C 
ATOM     23  H   UNL     1      35.706 -18.702 -23.083  0.00  0.00    +0.150 HD
BRANCH  22  26
ATOM     24  N   UNL     1      33.345 -13.342 -24.685  0.00  0.00    -0.318 N 
ATOM     25  N   UNL     1      34.338 -14.060 -22.831  0.00  0.00    -0.318 N 
ATOM     26  C   UNL     1      34.414 -16.531 -23.376  0.00  0.00    +0.068 C 
ATOM     27  C   UNL     1      34.126 -15.182 -23.591  0.00  0.00    +0.063 C 
ATOM     28  C   UNL     1      34.047 -17.422 -24.390  0.00  0.00    +0.006 C 
ATOM     29  C   UNL     1      33.506 -14.707 -24.743  0.00  0.00    +0.059 C 
ATOM     30  C   UNL     1      33.856 -12.987 -23.526  0.00  0.00    +0.144 C 
ATOM     31  C   UNL     1      33.423 -16.975 -25.558  0.00  0.00    +0.001 C 
ATOM     32  C   UNL     1      33.143 -15.616 -25.751  0.00  0.00    +0.016 C 
ATOM     33  H   UNL     1      32.938 -12.757 -25.364  0.00  0.00    +0.148 HD
ATOM     34  H   UNL     1      34.763 -14.034 -21.943  0.00  0.00    +0.148 HD
BRANCH  30  35
ATOM     35  C   UNL     1      33.883 -11.585 -23.073  0.00  0.00    +0.037 C 
ATOM     36  C   UNL     1      34.284 -10.590 -24.190  0.00  0.00    +0.003 C 
ATOM     37  C   UNL     1      32.550 -11.122 -22.435  0.00  0.00    +0.003 C 
ENDBRANCH  30  35
ENDBRANCH  22  26
ENDBRANCH   1  21
TORSDOF 7
ENDMDL
MODEL 5
REMARK VINA RESULT:     -10.8      3.434     12.626
REMARK  Name = 11961293
REMARK  7 active torsions:
REMARK  status: ('A' for Active; 'I' for Inactive)
REMARK    1  A    between atoms: C_1  and  C_3
REMARK    2  A    between atoms: C_1  and  N_21
REMARK    3  A    between atoms: N_2  and  C_9
REMARK    4  A    between atoms: C_9  and  C_12
REMARK    5  A    between atoms: C_17  and  O_18
REMARK    6  A    between atoms: C_22  and  C_26
REMARK    7  A    between atoms: C_30  and  C_35
REMARK                            x       y       z     vdW  Elec       q    Type
REMARK                         _______ _______ _______ _____ _____    ______ ____
ROOT
ATOM      1  C   UNL     1      31.474 -11.791 -20.740  0.00  0.00    +0.089 C 
ENDROOT
BRANCH   1   3
ATOM      2  N   UNL     1      32.880  -7.813 -21.663  0.00  0.00    +0.387 N 
ATOM      3  C   UNL     1      31.455 -10.328 -21.171  0.00  0.00    +0.015 C 
ATOM      4  C   UNL     1      32.398  -8.626 -22.788  0.00  0.00    -0.077 C 
ATOM      5  C   UNL     1      32.003  -7.954 -20.493  0.00  0.00    -0.077 C 
ATOM      6  C   UNL     1      32.332 -10.107 -22.409  0.00  0.00    -0.021 C 
ATOM      7  C   UNL     1      31.925  -9.413 -20.035  0.00  0.00    -0.021 C 
ATOM      8  H   UNL     1      33.807  -8.151 -21.405  0.00  0.00    -0.080 HD
BRANCH   2   9
ATOM      9  C   UNL     1      32.987  -6.408 -22.056  0.00  0.00    -0.077 C 
BRANCH   9  12
ATOM     10  O   UNL     1      36.218  -3.887 -26.750  0.00  0.00    -0.226 OA
ATOM     11  N   UNL     1      34.314  -4.866 -25.845  0.00  0.00    -0.246 N 
ATOM     12  C   UNL     1      33.243  -6.279 -23.556  0.00  0.00    -0.017 C 
ATOM     13  C   UNL     1      34.750  -6.243 -23.852  0.00  0.00    +0.020 C 
ATOM     14  C   UNL     1      32.561  -5.023 -24.120  0.00  0.00    +0.020 C 
ATOM     15  C   UNL     1      35.017  -6.045 -25.341  0.00  0.00    +0.097 C 
ATOM     16  C   UNL     1      32.867  -4.846 -25.606  0.00  0.00    +0.097 C 
ATOM     17  C   UNL     1      35.006  -3.874 -26.546  0.00  0.00    +0.405 C 
BRANCH  17  18
ATOM     18  O   UNL     1      34.185  -2.872 -26.992  0.00  0.00    -0.430 OA
ATOM     19  C   UNL     1      33.990  -2.799 -28.410  0.00  0.00    +0.257 C 
ENDBRANCH  17  18
ENDBRANCH   9  12
ENDBRANCH   2   9
ENDBRANCH   1   3
BRANCH   1  21
ATOM     20  O   UNL     1      33.616 -13.690 -20.522  0.00  0.00    -0.270 OA
ATOM     21  N   UNL     1      31.993 -12.640 -21.801  0.00  0.00    -0.301 N 
ATOM     22  C   UNL     1      33.033 -13.524 -21.591  0.00  0.00    +0.247 C 
ATOM     23  H   UNL     1      31.591 -12.582 -22.698  0.00  0.00    +0.150 HD
BRANCH  22  26
ATOM     24  N   UNL     1      35.317 -17.346 -23.341  0.00  0.00    -0.318 N 
ATOM     25  N   UNL     1      34.666 -16.170 -21.571  0.00  0.00    -0.318 N 
ATOM     26  C   UNL     1      33.465 -14.300 -22.781  0.00  0.00    +0.068 C 
ATOM     27  C   UNL     1      34.198 -15.482 -22.660  0.00  0.00    +0.063 C 
ATOM     28  C   UNL     1      33.153 -13.882 -24.079  0.00  0.00    +0.006 C 
ATOM     29  C   UNL     1      34.616 -16.237 -23.753  0.00  0.00    +0.059 C 
ATOM     30  C   UNL     1      35.328 -17.275 -22.028  0.00  0.00    +0.144 C 
ATOM     31  C   UNL     1      33.560 -14.619 -25.195  0.00  0.00    +0.001 C 
ATOM     32  C   UNL     1      34.295 -15.802 -25.050  0.00  0.00    +0.016 C 
ATOM     33  H   UNL     1      35.723 -18.043 -23.906  0.00  0.00    +0.148 HD
ATOM     34  H   UNL     1      34.547 -15.912 -20.627  0.00  0.00    +0.148 HD
BRANCH  30  35
ATOM     35  C   UNL     1      35.988 -18.291 -21.189  0.00  0.00    +0.037 C 
ATOM     36  C   UNL     1      35.138 -19.571 -20.997  0.00  0.00    +0.003 C 
ATOM     37  C   UNL     1      37.395 -18.688 -21.701  0.00  0.00    +0.003 C 
ENDBRANCH  30  35
ENDBRANCH  22  26
ENDBRANCH   1  21
TORSDOF 7
ENDMDL
MODEL 6
REMARK VINA RESULT:     -10.8      1.304      2.326
REMARK  Name = 11961293
REMARK  7 active torsions:
REMARK  status: ('A' for Active; 'I' for Inactive)
REMARK    1  A    between atoms: C_1  and  C_3
REMARK    2  A    between atoms: C_1  and  N_21
REMARK    3  A    between atoms: N_2  and  C_9
REMARK    4  A    between atoms: C_9  and  C_12
REMARK    5  A    between atoms: C_17  and  O_18
REMARK    6  A    between atoms: C_22  and  C_26
REMARK    7  A    between atoms: C_30  and  C_35
REMARK                            x       y       z     vdW  Elec       q    Type
REMARK                         _______ _______ _______ _____ _____    ______ ____
ROOT
ATOM      1  C   UNL     1      33.447 -14.940 -24.522  0.00  0.00    +0.089 C 
ENDROOT
BRANCH   1   3
ATOM      2  N   UNL     1      34.999 -17.914 -21.802  0.00  0.00    +0.387 N 
ATOM      3  C   UNL     1      34.448 -15.813 -23.771  0.00  0.00    +0.015 C 
ATOM      4  C   UNL     1      35.145 -18.185 -23.237  0.00  0.00    -0.077 C 
ATOM      5  C   UNL     1      35.300 -16.509 -21.495  0.00  0.00    -0.077 C 
ATOM      6  C   UNL     1      34.211 -17.299 -24.064  0.00  0.00    -0.021 C 
ATOM      7  C   UNL     1      34.370 -15.565 -22.261  0.00  0.00    -0.021 C 
ATOM      8  H   UNL     1      34.028 -18.091 -21.545  0.00  0.00    -0.080 HD
BRANCH   2   9
ATOM      9  C   UNL     1      35.860 -18.804 -21.022  0.00  0.00    -0.077 C 
BRANCH   9  12
ATOM     10  O   UNL     1      32.039 -22.348 -17.605  0.00  0.00    -0.226 OA
ATOM     11  N   UNL     1      33.822 -22.047 -19.066  0.00  0.00    -0.246 N 
ATOM     12  C   UNL     1      35.178 -20.148 -20.783  0.00  0.00    -0.017 C 
ATOM     13  C   UNL     1      33.716 -19.951 -20.354  0.00  0.00    +0.020 C 
ATOM     14  C   UNL     1      35.936 -20.964 -19.722  0.00  0.00    +0.020 C 
ATOM     15  C   UNL     1      33.045 -21.287 -20.044  0.00  0.00    +0.097 C 
ATOM     16  C   UNL     1      35.225 -22.282 -19.424  0.00  0.00    +0.097 C 
ATOM     17  C   UNL     1      33.215 -22.541 -17.908  0.00  0.00    +0.405 C 
BRANCH  17  18
ATOM     18  O   UNL     1      34.075 -23.275 -17.134  0.00  0.00    -0.430 OA
ATOM     19  C   UNL     1      33.678 -23.483 -15.773  0.00  0.00    +0.257 C 
ENDBRANCH  17  18
ENDBRANCH   9  12
ENDBRANCH   2   9
ENDBRANCH   1   3
BRANCH   1  21
ATOM     20  O   UNL     1      32.567 -12.778 -22.850  0.00  0.00    -0.270 OA
ATOM     21  N   UNL     1      33.901 -13.558 -24.577  0.00  0.00    -0.301 N 
ATOM     22  C   UNL     1      33.411 -12.591 -23.723  0.00  0.00    +0.247 C 
ATOM     23  H   UNL     1      34.579 -13.305 -25.245  0.00  0.00    +0.150 HD
BRANCH  22  26
ATOM     24  N   UNL     1      33.381  -7.978 -22.454  0.00  0.00    -0.318 N 
ATOM     25  N   UNL     1      32.575 -10.029 -22.171  0.00  0.00    -0.318 N 
ATOM     26  C   UNL     1      33.956 -11.224 -23.924  0.00  0.00    +0.068 C 
ATOM     27  C   UNL     1      33.509 -10.138 -23.168  0.00  0.00    +0.063 C 
ATOM     28  C   UNL     1      34.945 -10.963 -24.877  0.00  0.00    +0.006 C 
ATOM     29  C   UNL     1      33.999  -8.844 -23.326  0.00  0.00    +0.059 C 
ATOM     30  C   UNL     1      32.534  -8.721 -21.778  0.00  0.00    +0.144 C 
ATOM     31  C   UNL     1      35.456  -9.675 -25.059  0.00  0.00    +0.001 C 
ATOM     32  C   UNL     1      34.992  -8.600 -24.290  0.00  0.00    +0.016 C 
ATOM     33  H   UNL     1      33.539  -7.011 -22.357  0.00  0.00    +0.148 HD
ATOM     34  H   UNL     1      32.030 -10.763 -21.805  0.00  0.00    +0.148 HD
BRANCH  30  35
ATOM     35  C   UNL     1      31.664  -8.165 -20.726  0.00  0.00    +0.037 C 
ATOM     36  C   UNL     1      31.878  -8.827 -19.343  0.00  0.00    +0.003 C 
ATOM     37  C   UNL     1      31.787  -6.629 -20.579  0.00  0.00    +0.003 C 
ENDBRANCH  30  35
ENDBRANCH  22  26
ENDBRANCH   1  21
TORSDOF 7
ENDMDL
MODEL 7
REMARK VINA RESULT:     -10.7      3.900      7.741
REMARK  Name = 11961293
REMARK  7 active torsions:
REMARK  status: ('A' for Active; 'I' for Inactive)
REMARK    1  A    between atoms: C_1  and  C_3
REMARK    2  A    between atoms: C_1  and  N_21
REMARK    3  A    between atoms: N_2  and  C_9
REMARK    4  A    between atoms: C_9  and  C_12
REMARK    5  A    between atoms: C_17  and  O_18
REMARK    6  A    between atoms: C_22  and  C_26
REMARK    7  A    between atoms: C_30  and  C_35
REMARK                            x       y       z     vdW  Elec       q    Type
REMARK                         _______ _______ _______ _____ _____    ______ ____
ROOT
ATOM      1  C   UNL     1      36.840 -21.150 -19.467  0.00  0.00    +0.089 C 
ENDROOT
BRANCH   1   3
ATOM      2  N   UNL     1      34.612 -23.204 -16.389  0.00  0.00    +0.387 N 
ATOM      3  C   UNL     1      35.856 -21.387 -18.325  0.00  0.00    +0.015 C 
ATOM      4  C   UNL     1      35.591 -22.204 -15.946  0.00  0.00    -0.077 C 
ATOM      5  C   UNL     1      33.854 -22.724 -17.552  0.00  0.00    -0.077 C 
ATOM      6  C   UNL     1      36.581 -21.868 -17.063  0.00  0.00    -0.021 C 
ATOM      7  C   UNL     1      34.785 -22.407 -18.725  0.00  0.00    -0.021 C 
ATOM      8  H   UNL     1      35.122 -24.042 -16.670  0.00  0.00    -0.080 HD
BRANCH   2   9
ATOM      9  C   UNL     1      33.704 -23.553 -15.295  0.00  0.00    -0.077 C 
BRANCH   9  12
ATOM     10  O   UNL     1      38.068 -24.990 -11.086  0.00  0.00    -0.226 OA
ATOM     11  N   UNL     1      36.566 -25.539 -12.773  0.00  0.00    -0.246 N 
ATOM     12  C   UNL     1      34.345 -24.579 -14.364  0.00  0.00    -0.017 C 
ATOM     13  C   UNL     1      34.709 -23.941 -13.015  0.00  0.00    +0.020 C 
ATOM     14  C   UNL     1      35.593 -25.200 -15.011  0.00  0.00    +0.020 C 
ATOM     15  C   UNL     1      35.413 -24.941 -12.102  0.00  0.00    +0.097 C 
ATOM     16  C   UNL     1      36.282 -26.178 -14.062  0.00  0.00    +0.097 C 
ATOM     17  C   UNL     1      37.826 -25.524 -12.167  0.00  0.00    +0.405 C 
BRANCH  17  18
ATOM     18  O   UNL     1      38.776 -26.175 -12.908  0.00  0.00    -0.430 OA
ATOM     19  C   UNL     1      39.796 -25.353 -13.490  0.00  0.00    +0.257 C 
ENDBRANCH  17  18
ENDBRANCH   9  12
ENDBRANCH   2   9
ENDBRANCH   1   3
BRANCH   1  21
ATOM     20  O   UNL     1      36.708 -18.406 -20.299  0.00  0.00    -0.270 OA
ATOM     21  N   UNL     1      36.158 -20.631 -20.642  0.00  0.00    -0.301 N 
ATOM     22  C   UNL     1      36.156 -19.286 -20.955  0.00  0.00    +0.247 C 
ATOM     23  H   UNL     1      35.684 -21.259 -21.235  0.00  0.00    +0.150 HD
BRANCH  22  26
ATOM     24  N   UNL     1      33.955 -15.874 -23.485  0.00  0.00    -0.318 N 
ATOM     25  N   UNL     1      35.093 -16.452 -21.665  0.00  0.00    -0.318 N 
ATOM     26  C   UNL     1      35.393 -18.913 -22.173  0.00  0.00    +0.068 C 
ATOM     27  C   UNL     1      34.962 -17.604 -22.397  0.00  0.00    +0.063 C 
ATOM     28  C   UNL     1      35.075 -19.857 -23.155  0.00  0.00    +0.006 C 
ATOM     29  C   UNL     1      34.249 -17.217 -23.528  0.00  0.00    +0.059 C 
ATOM     30  C   UNL     1      34.476 -15.447 -22.356  0.00  0.00    +0.144 C 
ATOM     31  C   UNL     1      34.360 -19.498 -24.301  0.00  0.00    +0.001 C 
ATOM     32  C   UNL     1      33.937 -18.179 -24.504  0.00  0.00    +0.016 C 
ATOM     33  H   UNL     1      33.463 -15.346 -24.154  0.00  0.00    +0.148 HD
ATOM     34  H   UNL     1      35.551 -16.364 -20.797  0.00  0.00    +0.148 HD
BRANCH  30  35
ATOM     35  C   UNL     1      34.382 -14.039 -21.928  0.00  0.00    +0.037 C 
ATOM     36  C   UNL     1      34.080 -13.065 -23.092  0.00  0.00    +0.003 C 
ATOM     37  C   UNL     1      33.351 -13.813 -20.794  0.00  0.00    +0.003 C 
ENDBRANCH  30  35
ENDBRANCH  22  26
ENDBRANCH   1  21
TORSDOF 7
ENDMDL
MODEL 8
REMARK VINA RESULT:     -10.6      3.541      6.805
REMARK  Name = 11961293
REMARK  7 active torsions:
REMARK  status: ('A' for Active; 'I' for Inactive)
REMARK    1  A    between atoms: C_1  and  C_3
REMARK    2  A    between atoms: C_1  and  N_21
REMARK    3  A    between atoms: N_2  and  C_9
REMARK    4  A    between atoms: C_9  and  C_12
REMARK    5  A    between atoms: C_17  and  O_18
REMARK    6  A    between atoms: C_22  and  C_26
REMARK    7  A    between atoms: C_30  and  C_35
REMARK                            x       y       z     vdW  Elec       q    Type
REMARK                         _______ _______ _______ _____ _____    ______ ____
ROOT
ATOM      1  C   UNL     1      37.081 -20.001 -19.681  0.00  0.00    +0.089 C 
ENDROOT
BRANCH   1   3
ATOM      2  N   UNL     1      34.717 -22.498 -17.067  0.00  0.00    +0.387 N 
ATOM      3  C   UNL     1      36.503 -21.255 -19.033  0.00  0.00    +0.015 C 
ATOM      4  C   UNL     1      34.383 -22.528 -18.496  0.00  0.00    -0.077 C 
ATOM      5  C   UNL     1      36.172 -22.509 -16.862  0.00  0.00    -0.077 C 
ATOM      6  C   UNL     1      34.984 -21.326 -19.229  0.00  0.00    -0.021 C 
ATOM      7  C   UNL     1      36.833 -21.305 -17.538  0.00  0.00    -0.021 C 
ATOM      8  H   UNL     1      34.351 -21.630 -16.676  0.00  0.00    -0.080 HD
BRANCH   2   9
ATOM      9  C   UNL     1      34.094 -23.624 -16.371  0.00  0.00    -0.077 C 
BRANCH   9  12
ATOM     10  O   UNL     1      28.447 -25.036 -14.146  0.00  0.00    -0.226 OA
ATOM     11  N   UNL     1      30.015 -23.553 -15.011  0.00  0.00    -0.246 N 
ATOM     12  C   UNL     1      32.812 -23.187 -15.668  0.00  0.00    -0.017 C 
ATOM     13  C   UNL     1      32.350 -24.252 -14.661  0.00  0.00    +0.020 C 
ATOM     14  C   UNL     1      31.699 -22.904 -16.689  0.00  0.00    +0.020 C 
ATOM     15  C   UNL     1      31.031 -23.856 -14.004  0.00  0.00    +0.097 C 
ATOM     16  C   UNL     1      30.390 -22.532 -15.994  0.00  0.00    +0.097 C 
ATOM     17  C   UNL     1      28.766 -24.180 -14.970  0.00  0.00    +0.405 C 
BRANCH  17  18
ATOM     18  O   UNL     1      27.921 -23.738 -15.953  0.00  0.00    -0.430 OA
ATOM     19  C   UNL     1      27.111 -22.602 -15.625  0.00  0.00    +0.257 C 
ENDBRANCH  17  18
ENDBRANCH   9  12
ENDBRANCH   2   9
ENDBRANCH   1   3
BRANCH   1  21
ATOM     20  O   UNL     1      35.688 -17.559 -20.264  0.00  0.00    -0.270 OA
ATOM     21  N   UNL     1      36.374 -19.677 -20.910  0.00  0.00    -0.301 N 
ATOM     22  C   UNL     1      35.733 -18.467 -21.090  0.00  0.00    +0.247 C 
ATOM     23  H   UNL     1      36.351 -20.341 -21.637  0.00  0.00    +0.150 HD
BRANCH  22  26
ATOM     24  N   UNL     1      33.699 -15.517 -24.260  0.00  0.00    -0.318 N 
ATOM     25  N   UNL     1      34.741 -15.787 -22.316  0.00  0.00    -0.318 N 
ATOM     26  C   UNL     1      35.034 -18.300 -22.390  0.00  0.00    +0.068 C 
ATOM     27  C   UNL     1      34.630 -17.045 -22.850  0.00  0.00    +0.063 C 
ATOM     28  C   UNL     1      34.752 -19.393 -23.215  0.00  0.00    +0.006 C 
ATOM     29  C   UNL     1      33.978 -16.850 -24.064  0.00  0.00    +0.059 C 
ATOM     30  C   UNL     1      34.170 -14.909 -23.194  0.00  0.00    +0.144 C 
ATOM     31  C   UNL     1      34.097 -19.228 -24.439  0.00  0.00    +0.001 C 
ATOM     32  C   UNL     1      33.701 -17.960 -24.880  0.00  0.00    +0.016 C 
ATOM     33  H   UNL     1      33.246 -15.106 -25.031  0.00  0.00    +0.148 HD
ATOM     34  H   UNL     1      35.157 -15.558 -21.453  0.00  0.00    +0.148 HD
BRANCH  30  35
ATOM     35  C   UNL     1      34.073 -13.449 -23.011  0.00  0.00    +0.037 C 
ATOM     36  C   UNL     1      33.839 -12.682 -24.335  0.00  0.00    +0.003 C 
ATOM     37  C   UNL     1      32.992 -13.032 -21.984  0.00  0.00    +0.003 C 
ENDBRANCH  30  35
ENDBRANCH  22  26
ENDBRANCH   1  21
TORSDOF 7
ENDMDL
MODEL 9
REMARK VINA RESULT:     -10.4      2.894     11.880
REMARK  Name = 11961293
REMARK  7 active torsions:
REMARK  status: ('A' for Active; 'I' for Inactive)
REMARK    1  A    between atoms: C_1  and  C_3
REMARK    2  A    between atoms: C_1  and  N_21
REMARK    3  A    between atoms: N_2  and  C_9
REMARK    4  A    between atoms: C_9  and  C_12
REMARK    5  A    between atoms: C_17  and  O_18
REMARK    6  A    between atoms: C_22  and  C_26
REMARK    7  A    between atoms: C_30  and  C_35
REMARK                            x       y       z     vdW  Elec       q    Type
REMARK                         _______ _______ _______ _____ _____    ______ ____
ROOT
ATOM      1  C   UNL     1      35.129 -22.258 -19.684  0.00  0.00    +0.089 C 
ENDROOT
BRANCH   1   3
ATOM      2  N   UNL     1      35.855 -18.462 -21.611  0.00  0.00    +0.387 N 
ATOM      3  C   UNL     1      35.302 -20.753 -19.868  0.00  0.00    +0.015 C 
ATOM      4  C   UNL     1      34.494 -18.707 -21.116  0.00  0.00    -0.077 C 
ATOM      5  C   UNL     1      36.861 -18.921 -20.645  0.00  0.00    -0.077 C 
ATOM      6  C   UNL     1      34.264 -20.196 -20.849  0.00  0.00    -0.021 C 
ATOM      7  C   UNL     1      36.712 -20.418 -20.363  0.00  0.00    -0.021 C 
ATOM      8  H   UNL     1      35.978 -18.996 -22.472  0.00  0.00    -0.080 HD
BRANCH   2   9
ATOM      9  C   UNL     1      36.043 -17.042 -21.911  0.00  0.00    -0.077 C 
BRANCH   9  12
ATOM     10  O   UNL     1      33.491 -13.625 -26.454  0.00  0.00    -0.226 OA
ATOM     11  N   UNL     1      33.504 -14.538 -24.317  0.00  0.00    -0.246 N 
ATOM     12  C   UNL     1      34.799 -16.456 -22.574  0.00  0.00    -0.017 C 
ATOM     13  C   UNL     1      34.894 -16.560 -24.104  0.00  0.00    +0.020 C 
ATOM     14  C   UNL     1      34.595 -14.992 -22.154  0.00  0.00    +0.020 C 
ATOM     15  C   UNL     1      33.687 -15.914 -24.779  0.00  0.00    +0.097 C 
ATOM     16  C   UNL     1      33.392 -14.373 -22.864  0.00  0.00    +0.097 C 
ATOM     17  C   UNL     1      33.398 -13.490 -25.235  0.00  0.00    +0.405 C 
BRANCH  17  18
ATOM     18  O   UNL     1      33.175 -12.281 -24.632  0.00  0.00    -0.430 OA
ATOM     19  C   UNL     1      34.226 -11.314 -24.748  0.00  0.00    +0.257 C 
ENDBRANCH  17  18
ENDBRANCH   9  12
ENDBRANCH   2   9
ENDBRANCH   1   3
BRANCH   1  21
ATOM     20  O   UNL     1      32.535 -22.625 -18.509  0.00  0.00    -0.270 OA
ATOM     21  N   UNL     1      34.842 -22.583 -18.295  0.00  0.00    -0.301 N 
ATOM     22  C   UNL     1      33.552 -22.739 -17.829  0.00  0.00    +0.247 C 
ATOM     23  H   UNL     1      35.593 -22.695 -17.667  0.00  0.00    +0.150 HD
BRANCH  22  26
ATOM     24  N   UNL     1      30.696 -23.688 -14.110  0.00  0.00    -0.318 N 
ATOM     25  N   UNL     1      30.904 -23.227 -16.274  0.00  0.00    -0.318 N 
ATOM     26  C   UNL     1      33.426 -23.043 -16.381  0.00  0.00    +0.068 C 
ATOM     27  C   UNL     1      32.182 -23.247 -15.780  0.00  0.00    +0.063 C 
ATOM     28  C   UNL     1      34.549 -23.142 -15.553  0.00  0.00    +0.006 C 
ATOM     29  C   UNL     1      32.026 -23.538 -14.427  0.00  0.00    +0.059 C 
ATOM     30  C   UNL     1      30.052 -23.495 -15.240  0.00  0.00    +0.144 C 
ATOM     31  C   UNL     1      34.423 -23.432 -14.192  0.00  0.00    +0.001 C 
ATOM     32  C   UNL     1      33.166 -23.633 -13.611  0.00  0.00    +0.016 C 
ATOM     33  H   UNL     1      30.310 -23.895 -13.229  0.00  0.00    +0.148 HD
ATOM     34  H   UNL     1      30.646 -23.050 -17.209  0.00  0.00    +0.148 HD
BRANCH  30  35
ATOM     35  C   UNL     1      28.583 -23.571 -15.332  0.00  0.00    +0.037 C 
ATOM     36  C   UNL     1      27.875 -22.261 -14.908  0.00  0.00    +0.003 C 
ATOM     37  C   UNL     1      28.079 -23.991 -16.735  0.00  0.00    +0.003 C 
ENDBRANCH  30  35
ENDBRANCH  22  26
ENDBRANCH   1  21
TORSDOF 7
ENDMDL
