MODEL 1
REMARK VINA RESULT:     -13.1      0.000      0.000
REMARK  Name = 11167118
REMARK  6 active torsions:
REMARK  status: ('A' for Active; 'I' for Inactive)
REMARK    1  A    between atoms: N_2  and  C_6
REMARK    2  A    between atoms: N_2  and  C_15
REMARK    3  A    between atoms: C_8  and  O_25
REMARK    4  A    between atoms: C_17  and  C_24
REMARK    5  A    between atoms: O_25  and  C_27
REMARK    6  A    between atoms: C_30  and  C_34
REMARK                            x       y       z     vdW  Elec       q    Type
REMARK                         _______ _______ _______ _____ _____    ______ ____
ROOT
ATOM      1  N   UNL     1      34.436 -19.118 -21.378  0.00  0.00    -0.302 N 
ATOM      2  N   UNL     1      36.527 -19.502 -20.730  0.00  0.00    -0.302 N 
ATOM      3  C   UNL     1      34.354 -20.137 -20.464  0.00  0.00    +0.063 C 
ATOM      4  C   UNL     1      35.673 -20.358 -20.075  0.00  0.00    +0.060 C 
ATOM      5  C   UNL     1      35.753 -18.772 -21.503  0.00  0.00    +0.225 C 
ATOM      6  C   UNL     1      33.274 -20.863 -19.959  0.00  0.00    +0.053 C 
ATOM      7  C   UNL     1      33.567 -21.854 -19.017  0.00  0.00    +0.147 C 
ATOM      8  C   UNL     1      35.949 -21.359 -19.128  0.00  0.00    +0.019 C 
ATOM      9  C   UNL     1      34.879 -22.099 -18.607  0.00  0.00    +0.039 C 
ATOM     10  H   UNL     1      33.680 -18.708 -21.857  0.00  0.00    +0.150 HD
ATOM     11  H   UNL     1      37.506 -19.447 -20.641  0.00  0.00    +0.150 HD
ENDROOT
BRANCH   5  12
ATOM     12  N   UNL     1      36.075 -17.778 -22.359  0.00  0.00    -0.303 N 
ATOM     13  H   UNL     1      37.041 -17.659 -22.510  0.00  0.00    +0.150 HD
BRANCH  12  15
ATOM     14 CL   UNL     1      32.607 -14.046 -25.385  0.00  0.00    -0.082 Cl
ATOM     15  C   UNL     1      35.241 -16.876 -23.078  0.00  0.00    +0.047 C 
ATOM     16  C   UNL     1      34.833 -15.694 -22.476  0.00  0.00    +0.019 C 
ATOM     17  C   UNL     1      34.016 -14.809 -23.181  0.00  0.00    +0.083 C 
ATOM     18  C   UNL     1      34.849 -17.191 -24.371  0.00  0.00    +0.015 C 
ATOM     19  C   UNL     1      33.616 -15.116 -24.482  0.00  0.00    +0.062 C 
ATOM     20  C   UNL     1      34.032 -16.307 -25.077  0.00  0.00    +0.013 C 
BRANCH  17  24
ATOM     21  F   UNL     1      34.133 -12.449 -23.094  0.00  0.00    -0.166 F 
ATOM     22  F   UNL     1      32.249 -13.373 -22.528  0.00  0.00    -0.166 F 
ATOM     23  F   UNL     1      33.976 -13.532 -21.208  0.00  0.00    -0.166 F 
ATOM     24  C   UNL     1      33.593 -13.544 -22.508  0.00  0.00    +0.419 C 
ENDBRANCH  17  24
ENDBRANCH  12  15
ENDBRANCH   5  12
BRANCH   7  25
ATOM     25  O   UNL     1      32.551 -22.595 -18.490  0.00  0.00    -0.453 OA
BRANCH  25  27
ATOM     26  N   UNL     1      32.704 -23.461 -14.429  0.00  0.00    -0.239 NA
ATOM     27  C   UNL     1      32.601 -22.883 -17.138  0.00  0.00    +0.149 C 
ATOM     28  C   UNL     1      33.805 -23.245 -16.570  0.00  0.00    +0.061 C 
ATOM     29  C   UNL     1      31.449 -22.802 -16.386  0.00  0.00    +0.058 C 
ATOM     30  C   UNL     1      33.804 -23.524 -15.213  0.00  0.00    +0.137 C 
ATOM     31  C   UNL     1      31.552 -23.101 -15.037  0.00  0.00    +0.102 C 
BRANCH  30  34
ATOM     32  O   UNL     1      35.800 -24.745 -15.063  0.00  0.00    -0.268 OA
ATOM     33  N   UNL     1      35.315 -23.295 -13.320  0.00  0.00    -0.298 N 
ATOM     34  C   UNL     1      35.034 -23.913 -14.544  0.00  0.00    +0.264 C 
ATOM     35  C   UNL     1      36.508 -23.558 -12.546  0.00  0.00    +0.111 C 
ATOM     36  H   UNL     1      34.665 -22.645 -12.966  0.00  0.00    +0.150 HD
ENDBRANCH  30  34
ENDBRANCH  25  27
ENDBRANCH   7  25
TORSDOF 6
ENDMDL
MODEL 2
REMARK VINA RESULT:     -13.0      5.505     10.508
REMARK  Name = 11167118
REMARK  6 active torsions:
REMARK  status: ('A' for Active; 'I' for Inactive)
REMARK    1  A    between atoms: N_2  and  C_6
REMARK    2  A    between atoms: N_2  and  C_15
REMARK    3  A    between atoms: C_8  and  O_25
REMARK    4  A    between atoms: C_17  and  C_24
REMARK    5  A    between atoms: O_25  and  C_27
REMARK    6  A    between atoms: C_30  and  C_34
REMARK                            x       y       z     vdW  Elec       q    Type
REMARK                         _______ _______ _______ _____ _____    ______ ____
ROOT
ATOM      1  N   UNL     1      35.173 -22.062 -18.358  0.00  0.00    -0.302 N 
ATOM      2  N   UNL     1      32.955 -22.028 -18.504  0.00  0.00    -0.302 N 
ATOM      3  C   UNL     1      34.887 -21.217 -19.400  0.00  0.00    +0.063 C 
ATOM      4  C   UNL     1      33.497 -21.213 -19.470  0.00  0.00    +0.060 C 
ATOM      5  C   UNL     1      33.987 -22.521 -17.855  0.00  0.00    +0.225 C 
ATOM      6  C   UNL     1      35.701 -20.478 -20.261  0.00  0.00    +0.053 C 
ATOM      7  C   UNL     1      35.053 -19.706 -21.230  0.00  0.00    +0.147 C 
ATOM      8  C   UNL     1      32.863 -20.431 -20.451  0.00  0.00    +0.019 C 
ATOM      9  C   UNL     1      33.660 -19.681 -21.326  0.00  0.00    +0.039 C 
ATOM     10  H   UNL     1      36.071 -22.296 -18.031  0.00  0.00    +0.150 HD
ATOM     11  H   UNL     1      32.002 -22.205 -18.334  0.00  0.00    +0.150 HD
ENDROOT
BRANCH   5  12
ATOM     12  N   UNL     1      34.024 -23.377 -16.811  0.00  0.00    -0.303 N 
ATOM     13  H   UNL     1      34.814 -23.963 -16.783  0.00  0.00    +0.150 HD
BRANCH  12  15
ATOM     14 CL   UNL     1      30.213 -24.184 -12.345  0.00  0.00    -0.082 Cl
ATOM     15  C   UNL     1      33.100 -23.567 -15.744  0.00  0.00    +0.047 C 
ATOM     16  C   UNL     1      31.757 -23.284 -15.943  0.00  0.00    +0.019 C 
ATOM     17  C   UNL     1      30.852 -23.471 -14.897  0.00  0.00    +0.083 C 
ATOM     18  C   UNL     1      33.559 -24.034 -14.520  0.00  0.00    +0.015 C 
ATOM     19  C   UNL     1      31.302 -23.940 -13.662  0.00  0.00    +0.062 C 
ATOM     20  C   UNL     1      32.655 -24.221 -13.473  0.00  0.00    +0.013 C 
BRANCH  17  24
ATOM     21  F   UNL     1      28.609 -24.219 -14.881  0.00  0.00    -0.166 F 
ATOM     22  F   UNL     1      28.968 -22.137 -14.368  0.00  0.00    -0.166 F 
ATOM     23  F   UNL     1      29.201 -22.803 -16.430  0.00  0.00    -0.166 F 
ATOM     24  C   UNL     1      29.411 -23.159 -15.140  0.00  0.00    +0.419 C 
ENDBRANCH  17  24
ENDBRANCH  12  15
ENDBRANCH   5  12
BRANCH   7  25
ATOM     25  O   UNL     1      35.798 -18.964 -22.099  0.00  0.00    -0.453 OA
BRANCH  25  27
ATOM     26  N   UNL     1      33.815 -16.126 -24.398  0.00  0.00    -0.239 NA
ATOM     27  C   UNL     1      35.138 -18.019 -22.864  0.00  0.00    +0.149 C 
ATOM     28  C   UNL     1      35.074 -16.715 -22.420  0.00  0.00    +0.061 C 
ATOM     29  C   UNL     1      34.558 -18.401 -24.055  0.00  0.00    +0.058 C 
ATOM     30  C   UNL     1      34.402 -15.807 -23.222  0.00  0.00    +0.137 C 
ATOM     31  C   UNL     1      33.909 -17.418 -24.785  0.00  0.00    +0.102 C 
BRANCH  30  34
ATOM     32  O   UNL     1      34.523 -14.076 -21.646  0.00  0.00    -0.268 OA
ATOM     33  N   UNL     1      33.944 -13.492 -23.813  0.00  0.00    -0.298 N 
ATOM     34  C   UNL     1      34.293 -14.416 -22.820  0.00  0.00    +0.264 C 
ATOM     35  C   UNL     1      33.817 -12.071 -23.576  0.00  0.00    +0.111 C 
ATOM     36  H   UNL     1      33.774 -13.828 -24.723  0.00  0.00    +0.150 HD
ENDBRANCH  30  34
ENDBRANCH  25  27
ENDBRANCH   7  25
TORSDOF 6
ENDMDL
MODEL 3
REMARK VINA RESULT:     -12.9      5.717     10.195
REMARK  Name = 11167118
REMARK  6 active torsions:
REMARK  status: ('A' for Active; 'I' for Inactive)
REMARK    1  A    between atoms: N_2  and  C_6
REMARK    2  A    between atoms: N_2  and  C_15
REMARK    3  A    between atoms: C_8  and  O_25
REMARK    4  A    between atoms: C_17  and  C_24
REMARK    5  A    between atoms: O_25  and  C_27
REMARK    6  A    between atoms: C_30  and  C_34
REMARK                            x       y       z     vdW  Elec       q    Type
REMARK                         _______ _______ _______ _____ _____    ______ ____
ROOT
ATOM      1  N   UNL     1      33.152 -20.628 -20.506  0.00  0.00    -0.302 N 
ATOM      2  N   UNL     1      34.903 -21.094 -19.219  0.00  0.00    -0.302 N 
ATOM      3  C   UNL     1      34.204 -19.940 -21.055  0.00  0.00    +0.063 C 
ATOM      4  C   UNL     1      35.285 -20.247 -20.233  0.00  0.00    +0.060 C 
ATOM      5  C   UNL     1      33.619 -21.302 -19.413  0.00  0.00    +0.225 C 
ATOM      6  C   UNL     1      34.301 -19.099 -22.166  0.00  0.00    +0.053 C 
ATOM      7  C   UNL     1      35.561 -18.558 -22.437  0.00  0.00    +0.147 C 
ATOM      8  C   UNL     1      36.544 -19.694 -20.521  0.00  0.00    +0.019 C 
ATOM      9  C   UNL     1      36.664 -18.848 -21.631  0.00  0.00    +0.039 C 
ATOM     10  H   UNL     1      32.226 -20.634 -20.841  0.00  0.00    +0.150 HD
ATOM     11  H   UNL     1      35.467 -21.465 -18.502  0.00  0.00    +0.150 HD
ENDROOT
BRANCH   5  12
ATOM     12  N   UNL     1      32.749 -22.056 -18.707  0.00  0.00    -0.303 N 
ATOM     13  H   UNL     1      31.898 -22.244 -19.164  0.00  0.00    +0.150 HD
BRANCH  12  15
ATOM     14 CL   UNL     1      33.280 -24.422 -13.299  0.00  0.00    -0.082 Cl
ATOM     15  C   UNL     1      32.866 -22.623 -17.406  0.00  0.00    +0.047 C 
ATOM     16  C   UNL     1      31.732 -22.780 -16.623  0.00  0.00    +0.019 C 
ATOM     17  C   UNL     1      31.847 -23.336 -15.348  0.00  0.00    +0.083 C 
ATOM     18  C   UNL     1      34.115 -23.011 -16.940  0.00  0.00    +0.015 C 
ATOM     19  C   UNL     1      33.098 -23.730 -14.870  0.00  0.00    +0.062 C 
ATOM     20  C   UNL     1      34.231 -23.567 -15.666  0.00  0.00    +0.013 C 
BRANCH  17  24
ATOM     21  F   UNL     1      30.739 -22.946 -13.296  0.00  0.00    -0.166 F 
ATOM     22  F   UNL     1      29.531 -22.907 -15.102  0.00  0.00    -0.166 F 
ATOM     23  F   UNL     1      30.303 -24.803 -14.353  0.00  0.00    -0.166 F 
ATOM     24  C   UNL     1      30.608 -23.494 -14.528  0.00  0.00    +0.419 C 
ENDBRANCH  17  24
ENDBRANCH  12  15
ENDBRANCH   5  12
BRANCH   7  25
ATOM     25  O   UNL     1      35.714 -17.730 -23.510  0.00  0.00    -0.453 OA
BRANCH  25  27
ATOM     26  N   UNL     1      33.236 -14.402 -23.744  0.00  0.00    -0.239 NA
ATOM     27  C   UNL     1      34.889 -16.622 -23.588  0.00  0.00    +0.149 C 
ATOM     28  C   UNL     1      34.654 -15.875 -22.454  0.00  0.00    +0.061 C 
ATOM     29  C   UNL     1      34.320 -16.288 -24.798  0.00  0.00    +0.058 C 
ATOM     30  C   UNL     1      33.821 -14.775 -22.584  0.00  0.00    +0.137 C 
ATOM     31  C   UNL     1      33.501 -15.171 -24.825  0.00  0.00    +0.102 C 
BRANCH  30  34
ATOM     32  O   UNL     1      34.284 -13.931 -20.446  0.00  0.00    -0.268 OA
ATOM     33  N   UNL     1      32.379 -13.140 -21.503  0.00  0.00    -0.298 N 
ATOM     34  C   UNL     1      33.526 -13.939 -21.433  0.00  0.00    +0.264 C 
ATOM     35  C   UNL     1      31.964 -12.240 -20.451  0.00  0.00    +0.111 C 
ATOM     36  H   UNL     1      31.823 -13.195 -22.314  0.00  0.00    +0.150 HD
ENDBRANCH  30  34
ENDBRANCH  25  27
ENDBRANCH   7  25
TORSDOF 6
ENDMDL
MODEL 4
REMARK VINA RESULT:     -12.9      1.454      2.843
REMARK  Name = 11167118
REMARK  6 active torsions:
REMARK  status: ('A' for Active; 'I' for Inactive)
REMARK    1  A    between atoms: N_2  and  C_6
REMARK    2  A    between atoms: N_2  and  C_15
REMARK    3  A    between atoms: C_8  and  O_25
REMARK    4  A    between atoms: C_17  and  C_24
REMARK    5  A    between atoms: O_25  and  C_27
REMARK    6  A    between atoms: C_30  and  C_34
REMARK                            x       y       z     vdW  Elec       q    Type
REMARK                         _______ _______ _______ _____ _____    ______ ____
ROOT
ATOM      1  N   UNL     1      35.953 -19.771 -20.620  0.00  0.00    -0.302 N 
ATOM      2  N   UNL     1      33.852 -19.418 -21.253  0.00  0.00    -0.302 N 
ATOM      3  C   UNL     1      35.195 -20.632 -19.869  0.00  0.00    +0.063 C 
ATOM      4  C   UNL     1      33.887 -20.392 -20.283  0.00  0.00    +0.060 C 
ATOM      5  C   UNL     1      35.107 -19.067 -21.431  0.00  0.00    +0.225 C 
ATOM      6  C   UNL     1      35.529 -21.572 -18.892  0.00  0.00    +0.053 C 
ATOM      7  C   UNL     1      34.474 -22.290 -18.322  0.00  0.00    +0.147 C 
ATOM      8  C   UNL     1      32.839 -21.123 -19.699  0.00  0.00    +0.019 C 
ATOM      9  C   UNL     1      33.152 -22.072 -18.717  0.00  0.00    +0.039 C 
ATOM     10  H   UNL     1      36.932 -19.677 -20.581  0.00  0.00    +0.150 HD
ATOM     11  H   UNL     1      33.060 -19.059 -21.715  0.00  0.00    +0.150 HD
ENDROOT
BRANCH   5  12
ATOM     12  N   UNL     1      35.638 -18.151 -22.269  0.00  0.00    -0.303 N 
ATOM     13  H   UNL     1      36.621 -18.162 -22.325  0.00  0.00    +0.150 HD
BRANCH  12  15
ATOM     14 CL   UNL     1      32.995 -14.099 -25.691  0.00  0.00    -0.082 Cl
ATOM     15  C   UNL     1      35.003 -17.171 -23.083  0.00  0.00    +0.047 C 
ATOM     16  C   UNL     1      34.783 -15.898 -22.576  0.00  0.00    +0.019 C 
ATOM     17  C   UNL     1      34.161 -14.937 -23.375  0.00  0.00    +0.083 C 
ATOM     18  C   UNL     1      34.614 -17.503 -24.374  0.00  0.00    +0.015 C 
ATOM     19  C   UNL     1      33.765 -15.260 -24.674  0.00  0.00    +0.062 C 
ATOM     20  C   UNL     1      33.991 -16.543 -25.172  0.00  0.00    +0.013 C 
BRANCH  17  24
ATOM     21  F   UNL     1      34.430 -12.599 -23.603  0.00  0.00    -0.166 F 
ATOM     22  F   UNL     1      32.624 -13.302 -22.619  0.00  0.00    -0.166 F 
ATOM     23  F   UNL     1      34.544 -13.447 -21.598  0.00  0.00    -0.166 F 
ATOM     24  C   UNL     1      33.938 -13.575 -22.803  0.00  0.00    +0.419 C 
ENDBRANCH  17  24
ENDBRANCH  12  15
ENDBRANCH   5  12
BRANCH   7  25
ATOM     25  O   UNL     1      34.741 -23.221 -17.363  0.00  0.00    -0.453 OA
BRANCH  25  27
ATOM     26  N   UNL     1      32.243 -23.339 -14.044  0.00  0.00    -0.239 NA
ATOM     27  C   UNL     1      33.910 -23.260 -16.258  0.00  0.00    +0.149 C 
ATOM     28  C   UNL     1      32.551 -23.409 -16.441  0.00  0.00    +0.061 C 
ATOM     29  C   UNL     1      34.457 -23.152 -14.997  0.00  0.00    +0.058 C 
ATOM     30  C   UNL     1      31.761 -23.442 -15.303  0.00  0.00    +0.137 C 
ATOM     31  C   UNL     1      33.583 -23.196 -13.923  0.00  0.00    +0.102 C 
BRANCH  30  34
ATOM     32  O   UNL     1      29.704 -24.355 -14.647  0.00  0.00    -0.268 OA
ATOM     33  N   UNL     1      29.675 -22.837 -16.399  0.00  0.00    -0.298 N 
ATOM     34  C   UNL     1      30.321 -23.595 -15.415  0.00  0.00    +0.264 C 
ATOM     35  C   UNL     1      28.246 -22.863 -16.620  0.00  0.00    +0.111 C 
ATOM     36  H   UNL     1      30.224 -22.256 -16.974  0.00  0.00    +0.150 HD
ENDBRANCH  30  34
ENDBRANCH  25  27
ENDBRANCH   7  25
TORSDOF 6
ENDMDL
MODEL 5
REMARK VINA RESULT:     -12.9      6.427     11.221
REMARK  Name = 11167118
REMARK  6 active torsions:
REMARK  status: ('A' for Active; 'I' for Inactive)
REMARK    1  A    between atoms: N_2  and  C_6
REMARK    2  A    between atoms: N_2  and  C_15
REMARK    3  A    between atoms: C_8  and  O_25
REMARK    4  A    between atoms: C_17  and  C_24
REMARK    5  A    between atoms: O_25  and  C_27
REMARK    6  A    between atoms: C_30  and  C_34
REMARK                            x       y       z     vdW  Elec       q    Type
REMARK                         _______ _______ _______ _____ _____    ______ ____
ROOT
ATOM      1  N   UNL     1      35.034 -22.490 -17.784  0.00  0.00    -0.302 N 
ATOM      2  N   UNL     1      32.821 -22.395 -17.963  0.00  0.00    -0.302 N 
ATOM      3  C   UNL     1      34.788 -21.638 -18.829  0.00  0.00    +0.063 C 
ATOM      4  C   UNL     1      33.399 -21.596 -18.921  0.00  0.00    +0.060 C 
ATOM      5  C   UNL     1      33.830 -22.916 -17.298  0.00  0.00    +0.225 C 
ATOM      6  C   UNL     1      35.634 -20.922 -19.678  0.00  0.00    +0.053 C 
ATOM      7  C   UNL     1      35.023 -20.133 -20.657  0.00  0.00    +0.147 C 
ATOM      8  C   UNL     1      32.802 -20.798 -19.912  0.00  0.00    +0.019 C 
ATOM      9  C   UNL     1      33.632 -20.071 -20.774  0.00  0.00    +0.039 C 
ATOM     10  H   UNL     1      35.922 -22.748 -17.443  0.00  0.00    +0.150 HD
ATOM     11  H   UNL     1      31.861 -22.546 -17.806  0.00  0.00    +0.150 HD
ENDROOT
BRANCH   5  12
ATOM     12  N   UNL     1      33.827 -23.772 -16.253  0.00  0.00    -0.303 N 
ATOM     13  H   UNL     1      33.020 -24.330 -16.178  0.00  0.00    +0.150 HD
BRANCH  12  15
ATOM     14 CL   UNL     1      37.895 -24.664 -12.037  0.00  0.00    -0.082 Cl
ATOM     15  C   UNL     1      34.806 -23.996 -15.244  0.00  0.00    +0.047 C 
ATOM     16  C   UNL     1      35.504 -25.195 -15.221  0.00  0.00    +0.019 C 
ATOM     17  C   UNL     1      36.463 -25.414 -14.233  0.00  0.00    +0.083 C 
ATOM     18  C   UNL     1      35.048 -23.010 -14.297  0.00  0.00    +0.015 C 
ATOM     19  C   UNL     1      36.715 -24.430 -13.275  0.00  0.00    +0.062 C 
ATOM     20  C   UNL     1      36.007 -23.229 -13.307  0.00  0.00    +0.013 C 
BRANCH  17  24
ATOM     21  F   UNL     1      36.824 -27.512 -15.262  0.00  0.00    -0.166 F 
ATOM     22  F   UNL     1      38.540 -26.547 -14.340  0.00  0.00    -0.166 F 
ATOM     23  F   UNL     1      36.974 -27.403 -13.089  0.00  0.00    -0.166 F 
ATOM     24  C   UNL     1      37.200 -26.714 -14.233  0.00  0.00    +0.419 C 
ENDBRANCH  17  24
ENDBRANCH  12  15
ENDBRANCH   5  12
BRANCH   7  25
ATOM     25  O   UNL     1      35.800 -19.412 -21.515  0.00  0.00    -0.453 OA
BRANCH  25  27
ATOM     26  N   UNL     1      33.897 -17.405 -24.617  0.00  0.00    -0.239 NA
ATOM     27  C   UNL     1      35.166 -18.745 -22.548  0.00  0.00    +0.149 C 
ATOM     28  C   UNL     1      35.097 -17.367 -22.518  0.00  0.00    +0.061 C 
ATOM     29  C   UNL     1      34.619 -19.469 -23.585  0.00  0.00    +0.058 C 
ATOM     30  C   UNL     1      34.452 -16.745 -23.575  0.00  0.00    +0.137 C 
ATOM     31  C   UNL     1      33.995 -18.754 -24.595  0.00  0.00    +0.102 C 
BRANCH  30  34
ATOM     32  O   UNL     1      34.923 -14.594 -22.771  0.00  0.00    -0.268 OA
ATOM     33  N   UNL     1      33.569 -14.747 -24.646  0.00  0.00    -0.298 N 
ATOM     34  C   UNL     1      34.338 -15.298 -23.614  0.00  0.00    +0.264 C 
ATOM     35  C   UNL     1      33.379 -13.326 -24.832  0.00  0.00    +0.111 C 
ATOM     36  H   UNL     1      33.132 -15.361 -25.280  0.00  0.00    +0.150 HD
ENDBRANCH  30  34
ENDBRANCH  25  27
ENDBRANCH   7  25
TORSDOF 6
ENDMDL
MODEL 6
REMARK VINA RESULT:     -12.8      4.112      7.092
REMARK  Name = 11167118
REMARK  6 active torsions:
REMARK  status: ('A' for Active; 'I' for Inactive)
REMARK    1  A    between atoms: N_2  and  C_6
REMARK    2  A    between atoms: N_2  and  C_15
REMARK    3  A    between atoms: C_8  and  O_25
REMARK    4  A    between atoms: C_17  and  C_24
REMARK    5  A    between atoms: O_25  and  C_27
REMARK    6  A    between atoms: C_30  and  C_34
REMARK                            x       y       z     vdW  Elec       q    Type
REMARK                         _______ _______ _______ _____ _____    ______ ____
ROOT
ATOM      1  N   UNL     1      34.091 -13.841 -22.461  0.00  0.00    -0.302 N 
ATOM      2  N   UNL     1      32.728 -13.633 -24.204  0.00  0.00    -0.302 N 
ATOM      3  C   UNL     1      34.218 -15.010 -23.166  0.00  0.00    +0.063 C 
ATOM      4  C   UNL     1      33.357 -14.856 -24.249  0.00  0.00    +0.060 C 
ATOM      5  C   UNL     1      33.191 -13.050 -23.120  0.00  0.00    +0.225 C 
ATOM      6  C   UNL     1      34.987 -16.156 -22.956  0.00  0.00    +0.053 C 
ATOM      7  C   UNL     1      34.863 -17.179 -23.900  0.00  0.00    +0.147 C 
ATOM      8  C   UNL     1      33.244 -15.895 -25.188  0.00  0.00    +0.019 C 
ATOM      9  C   UNL     1      34.008 -17.053 -24.997  0.00  0.00    +0.039 C 
ATOM     10  H   UNL     1      34.565 -13.612 -21.629  0.00  0.00    +0.150 HD
ATOM     11  H   UNL     1      32.074 -13.271 -24.844  0.00  0.00    +0.150 HD
ENDROOT
BRANCH   5  12
ATOM     12  N   UNL     1      32.907 -11.836 -22.603  0.00  0.00    -0.303 N 
ATOM     13  H   UNL     1      32.260 -11.843 -21.861  0.00  0.00    +0.150 HD
BRANCH  12  15
ATOM     14 CL   UNL     1      34.969  -6.486 -24.103  0.00  0.00    -0.082 Cl
ATOM     15  C   UNL     1      33.394 -10.546 -22.959  0.00  0.00    +0.047 C 
ATOM     16  C   UNL     1      32.669  -9.418 -22.602  0.00  0.00    +0.019 C 
ATOM     17  C   UNL     1      33.147  -8.154 -22.951  0.00  0.00    +0.083 C 
ATOM     18  C   UNL     1      34.588 -10.436 -23.659  0.00  0.00    +0.015 C 
ATOM     19  C   UNL     1      34.346  -8.032 -23.655  0.00  0.00    +0.062 C 
ATOM     20  C   UNL     1      35.066  -9.173 -24.009  0.00  0.00    +0.013 C 
BRANCH  17  24
ATOM     21  F   UNL     1      31.255  -7.294 -21.823  0.00  0.00    -0.166 F 
ATOM     22  F   UNL     1      33.061  -6.084 -21.803  0.00  0.00    -0.166 F 
ATOM     23  F   UNL     1      31.906  -6.281 -23.641  0.00  0.00    -0.166 F 
ATOM     24  C   UNL     1      32.346  -6.958 -22.552  0.00  0.00    +0.419 C 
ENDBRANCH  17  24
ENDBRANCH  12  15
ENDBRANCH   5  12
BRANCH   7  25
ATOM     25  O   UNL     1      35.591 -18.322 -23.746  0.00  0.00    -0.453 OA
BRANCH  25  27
ATOM     26  N   UNL     1      35.953 -19.871 -19.906  0.00  0.00    -0.239 NA
ATOM     27  C   UNL     1      35.712 -18.838 -22.468  0.00  0.00    +0.149 C 
ATOM     28  C   UNL     1      34.647 -19.513 -21.909  0.00  0.00    +0.061 C 
ATOM     29  C   UNL     1      36.894 -18.667 -21.779  0.00  0.00    +0.058 C 
ATOM     30  C   UNL     1      34.817 -20.010 -20.627  0.00  0.00    +0.137 C 
ATOM     31  C   UNL     1      36.965 -19.201 -20.503  0.00  0.00    +0.102 C 
BRANCH  30  34
ATOM     32  O   UNL     1      32.560 -20.571 -20.333  0.00  0.00    -0.268 OA
ATOM     33  N   UNL     1      34.097 -21.618 -18.949  0.00  0.00    -0.298 N 
ATOM     34  C   UNL     1      33.740 -20.732 -19.972  0.00  0.00    +0.264 C 
ATOM     35  C   UNL     1      33.144 -22.424 -18.219  0.00  0.00    +0.111 C 
ATOM     36  H   UNL     1      35.050 -21.697 -18.713  0.00  0.00    +0.150 HD
ENDBRANCH  30  34
ENDBRANCH  25  27
ENDBRANCH   7  25
TORSDOF 6
ENDMDL
MODEL 7
REMARK VINA RESULT:     -12.7      5.854     10.716
REMARK  Name = 11167118
REMARK  6 active torsions:
REMARK  status: ('A' for Active; 'I' for Inactive)
REMARK    1  A    between atoms: N_2  and  C_6
REMARK    2  A    between atoms: N_2  and  C_15
REMARK    3  A    between atoms: C_8  and  O_25
REMARK    4  A    between atoms: C_17  and  C_24
REMARK    5  A    between atoms: O_25  and  C_27
REMARK    6  A    between atoms: C_30  and  C_34
REMARK                            x       y       z     vdW  Elec       q    Type
REMARK                         _______ _______ _______ _____ _____    ______ ____
ROOT
ATOM      1  N   UNL     1      33.169 -20.857 -20.044  0.00  0.00    -0.302 N 
ATOM      2  N   UNL     1      35.021 -21.540 -19.024  0.00  0.00    -0.302 N 
ATOM      3  C   UNL     1      34.184 -20.119 -20.597  0.00  0.00    +0.063 C 
ATOM      4  C   UNL     1      35.330 -20.564 -19.942  0.00  0.00    +0.060 C 
ATOM      5  C   UNL     1      33.717 -21.691 -19.111  0.00  0.00    +0.225 C 
ATOM      6  C   UNL     1      34.199 -19.130 -21.582  0.00  0.00    +0.053 C 
ATOM      7  C   UNL     1      35.444 -18.581 -21.903  0.00  0.00    +0.147 C 
ATOM      8  C   UNL     1      36.573 -20.001 -20.278  0.00  0.00    +0.019 C 
ATOM      9  C   UNL     1      36.611 -19.007 -21.265  0.00  0.00    +0.039 C 
ATOM     10  H   UNL     1      32.214 -20.796 -20.279  0.00  0.00    +0.150 HD
ATOM     11  H   UNL     1      35.640 -22.022 -18.429  0.00  0.00    +0.150 HD
ENDROOT
BRANCH   5  12
ATOM     12  N   UNL     1      32.896 -22.521 -18.432  0.00  0.00    -0.303 N 
ATOM     13  H   UNL     1      32.133 -22.864 -18.952  0.00  0.00    +0.150 HD
BRANCH  12  15
ATOM     14 CL   UNL     1      33.192 -24.428 -12.829  0.00  0.00    -0.082 Cl
ATOM     15  C   UNL     1      32.957 -22.978 -17.085  0.00  0.00    +0.047 C 
ATOM     16  C   UNL     1      31.782 -23.148 -16.366  0.00  0.00    +0.019 C 
ATOM     17  C   UNL     1      31.842 -23.597 -15.047  0.00  0.00    +0.083 C 
ATOM     18  C   UNL     1      34.192 -23.248 -16.511  0.00  0.00    +0.015 C 
ATOM     19  C   UNL     1      33.078 -23.871 -14.459  0.00  0.00    +0.062 C 
ATOM     20  C   UNL     1      34.252 -23.696 -15.191  0.00  0.00    +0.013 C 
BRANCH  17  24
ATOM     21  F   UNL     1      30.588 -23.156 -13.091  0.00  0.00    -0.166 F 
ATOM     22  F   UNL     1      29.498 -23.267 -14.968  0.00  0.00    -0.166 F 
ATOM     23  F   UNL     1      30.304 -25.083 -14.072  0.00  0.00    -0.166 F 
ATOM     24  C   UNL     1      30.561 -23.772 -14.297  0.00  0.00    +0.419 C 
ENDBRANCH  17  24
ENDBRANCH  12  15
ENDBRANCH   5  12
BRANCH   7  25
ATOM     25  O   UNL     1      35.520 -17.611 -22.859  0.00  0.00    -0.453 OA
BRANCH  25  27
ATOM     26  N   UNL     1      33.947 -13.875 -21.940  0.00  0.00    -0.239 NA
ATOM     27  C   UNL     1      34.996 -16.367 -22.552  0.00  0.00    +0.149 C 
ATOM     28  C   UNL     1      34.662 -15.506 -23.576  0.00  0.00    +0.061 C 
ATOM     29  C   UNL     1      34.819 -16.016 -21.232  0.00  0.00    +0.058 C 
ATOM     30  C   UNL     1      34.142 -14.272 -23.218  0.00  0.00    +0.137 C 
ATOM     31  C   UNL     1      34.292 -14.760 -20.977  0.00  0.00    +0.102 C 
BRANCH  30  34
ATOM     32  O   UNL     1      33.855 -12.089 -24.022  0.00  0.00    -0.268 OA
ATOM     33  N   UNL     1      33.331 -13.824 -25.467  0.00  0.00    -0.298 N 
ATOM     34  C   UNL     1      33.766 -13.311 -24.240  0.00  0.00    +0.264 C 
ATOM     35  C   UNL     1      32.945 -12.997 -26.589  0.00  0.00    +0.111 C 
ATOM     36  H   UNL     1      33.284 -14.802 -25.573  0.00  0.00    +0.150 HD
ENDBRANCH  30  34
ENDBRANCH  25  27
ENDBRANCH   7  25
TORSDOF 6
ENDMDL
MODEL 8
REMARK VINA RESULT:     -12.7      5.765     10.680
REMARK  Name = 11167118
REMARK  6 active torsions:
REMARK  status: ('A' for Active; 'I' for Inactive)
REMARK    1  A    between atoms: N_2  and  C_6
REMARK    2  A    between atoms: N_2  and  C_15
REMARK    3  A    between atoms: C_8  and  O_25
REMARK    4  A    between atoms: C_17  and  C_24
REMARK    5  A    between atoms: O_25  and  C_27
REMARK    6  A    between atoms: C_30  and  C_34
REMARK                            x       y       z     vdW  Elec       q    Type
REMARK                         _______ _______ _______ _____ _____    ______ ____
ROOT
ATOM      1  N   UNL     1      33.073 -20.821 -20.070  0.00  0.00    -0.302 N 
ATOM      2  N   UNL     1      34.911 -21.563 -19.065  0.00  0.00    -0.302 N 
ATOM      3  C   UNL     1      34.104 -20.103 -20.617  0.00  0.00    +0.063 C 
ATOM      4  C   UNL     1      35.241 -20.584 -19.974  0.00  0.00    +0.060 C 
ATOM      5  C   UNL     1      33.604 -21.680 -19.148  0.00  0.00    +0.225 C 
ATOM      6  C   UNL     1      34.141 -19.103 -21.591  0.00  0.00    +0.053 C 
ATOM      7  C   UNL     1      35.398 -18.582 -21.912  0.00  0.00    +0.147 C 
ATOM      8  C   UNL     1      36.496 -20.049 -20.308  0.00  0.00    +0.019 C 
ATOM      9  C   UNL     1      36.556 -19.045 -21.283  0.00  0.00    +0.039 C 
ATOM     10  H   UNL     1      32.119 -20.733 -20.300  0.00  0.00    +0.150 HD
ATOM     11  H   UNL     1      35.520 -22.068 -18.479  0.00  0.00    +0.150 HD
ENDROOT
BRANCH   5  12
ATOM     12  N   UNL     1      32.765 -22.497 -18.476  0.00  0.00    -0.303 N 
ATOM     13  H   UNL     1      32.020 -22.857 -19.011  0.00  0.00    +0.150 HD
BRANCH  12  15
ATOM     14 CL   UNL     1      32.804 -24.253 -12.816  0.00  0.00    -0.082 Cl
ATOM     15  C   UNL     1      32.784 -22.920 -17.117  0.00  0.00    +0.047 C 
ATOM     16  C   UNL     1      33.991 -23.266 -16.525  0.00  0.00    +0.019 C 
ATOM     17  C   UNL     1      34.010 -23.681 -15.193  0.00  0.00    +0.083 C 
ATOM     18  C   UNL     1      31.595 -22.981 -16.403  0.00  0.00    +0.015 C 
ATOM     19  C   UNL     1      32.820 -23.746 -14.466  0.00  0.00    +0.062 C 
ATOM     20  C   UNL     1      31.613 -23.396 -15.071  0.00  0.00    +0.013 C 
BRANCH  17  24
ATOM     21  F   UNL     1      36.352 -23.885 -15.449  0.00  0.00    -0.166 F 
ATOM     22  F   UNL     1      35.612 -23.295 -13.492  0.00  0.00    -0.166 F 
ATOM     23  F   UNL     1      35.333 -25.342 -14.187  0.00  0.00    -0.166 F 
ATOM     24  C   UNL     1      35.323 -24.046 -14.582  0.00  0.00    +0.419 C 
ENDBRANCH  17  24
ENDBRANCH  12  15
ENDBRANCH   5  12
BRANCH   7  25
ATOM     25  O   UNL     1      35.494 -17.603 -22.856  0.00  0.00    -0.453 OA
BRANCH  25  27
ATOM     26  N   UNL     1      33.932 -13.867 -21.923  0.00  0.00    -0.239 NA
ATOM     27  C   UNL     1      34.974 -16.359 -22.545  0.00  0.00    +0.149 C 
ATOM     28  C   UNL     1      34.632 -15.497 -23.565  0.00  0.00    +0.061 C 
ATOM     29  C   UNL     1      34.808 -16.008 -21.222  0.00  0.00    +0.058 C 
ATOM     30  C   UNL     1      34.115 -14.263 -23.202  0.00  0.00    +0.137 C 
ATOM     31  C   UNL     1      34.284 -14.752 -20.963  0.00  0.00    +0.102 C 
BRANCH  30  34
ATOM     32  O   UNL     1      33.767 -12.080 -23.983  0.00  0.00    -0.268 OA
ATOM     33  N   UNL     1      33.353 -13.811 -25.468  0.00  0.00    -0.298 N 
ATOM     34  C   UNL     1      33.732 -13.301 -24.221  0.00  0.00    +0.264 C 
ATOM     35  C   UNL     1      32.967 -12.983 -26.589  0.00  0.00    +0.111 C 
ATOM     36  H   UNL     1      33.347 -14.789 -25.589  0.00  0.00    +0.150 HD
ENDBRANCH  30  34
ENDBRANCH  25  27
ENDBRANCH   7  25
TORSDOF 6
ENDMDL
MODEL 9
REMARK VINA RESULT:     -12.5      5.825     10.853
REMARK  Name = 11167118
REMARK  6 active torsions:
REMARK  status: ('A' for Active; 'I' for Inactive)
REMARK    1  A    between atoms: N_2  and  C_6
REMARK    2  A    between atoms: N_2  and  C_15
REMARK    3  A    between atoms: C_8  and  O_25
REMARK    4  A    between atoms: C_17  and  C_24
REMARK    5  A    between atoms: O_25  and  C_27
REMARK    6  A    between atoms: C_30  and  C_34
REMARK                            x       y       z     vdW  Elec       q    Type
REMARK                         _______ _______ _______ _____ _____    ______ ____
ROOT
ATOM      1  N   UNL     1      34.853 -22.543 -18.191  0.00  0.00    -0.302 N 
ATOM      2  N   UNL     1      32.643 -22.385 -18.372  0.00  0.00    -0.302 N 
ATOM      3  C   UNL     1      34.631 -21.577 -19.139  0.00  0.00    +0.063 C 
ATOM      4  C   UNL     1      33.245 -21.498 -19.234  0.00  0.00    +0.060 C 
ATOM      5  C   UNL     1      33.636 -22.995 -17.762  0.00  0.00    +0.225 C 
ATOM      6  C   UNL     1      35.498 -20.790 -19.900  0.00  0.00    +0.053 C 
ATOM      7  C   UNL     1      34.910 -19.887 -20.790  0.00  0.00    +0.147 C 
ATOM      8  C   UNL     1      32.671 -20.585 -20.134  0.00  0.00    +0.019 C 
ATOM      9  C   UNL     1      33.522 -19.784 -20.907  0.00  0.00    +0.039 C 
ATOM     10  H   UNL     1      35.732 -22.854 -17.876  0.00  0.00    +0.150 HD
ATOM     11  H   UNL     1      31.679 -22.533 -18.239  0.00  0.00    +0.150 HD
ENDROOT
BRANCH   5  12
ATOM     12  N   UNL     1      33.609 -23.960 -16.817  0.00  0.00    -0.303 N 
ATOM     13  H   UNL     1      33.234 -24.820 -17.115  0.00  0.00    +0.150 HD
BRANCH  12  15
ATOM     14 CL   UNL     1      35.342 -23.838 -11.152  0.00  0.00    -0.082 Cl
ATOM     15  C   UNL     1      34.035 -23.931 -15.459  0.00  0.00    +0.047 C 
ATOM     16  C   UNL     1      35.391 -23.890 -15.168  0.00  0.00    +0.019 C 
ATOM     17  C   UNL     1      35.809 -23.860 -13.837  0.00  0.00    +0.083 C 
ATOM     18  C   UNL     1      33.087 -23.944 -14.445  0.00  0.00    +0.015 C 
ATOM     19  C   UNL     1      34.864 -23.873 -12.810  0.00  0.00    +0.062 C 
ATOM     20  C   UNL     1      33.504 -23.915 -13.114  0.00  0.00    +0.013 C 
BRANCH  17  24
ATOM     21  F   UNL     1      37.608 -22.775 -12.752  0.00  0.00    -0.166 F 
ATOM     22  F   UNL     1      37.716 -24.938 -12.937  0.00  0.00    -0.166 F 
ATOM     23  F   UNL     1      37.988 -23.683 -14.698  0.00  0.00    -0.166 F 
ATOM     24  C   UNL     1      37.275 -23.815 -13.554  0.00  0.00    +0.419 C 
ENDBRANCH  17  24
ENDBRANCH  12  15
ENDBRANCH   5  12
BRANCH   7  25
ATOM     25  O   UNL     1      35.708 -19.093 -21.559  0.00  0.00    -0.453 OA
BRANCH  25  27
ATOM     26  N   UNL     1      34.393 -15.231 -22.351  0.00  0.00    -0.239 NA
ATOM     27  C   UNL     1      35.270 -17.807 -21.823  0.00  0.00    +0.149 C 
ATOM     28  C   UNL     1      34.996 -17.441 -23.124  0.00  0.00    +0.061 C 
ATOM     29  C   UNL     1      35.116 -16.919 -20.780  0.00  0.00    +0.058 C 
ATOM     30  C   UNL     1      34.561 -16.143 -23.336  0.00  0.00    +0.137 C 
ATOM     31  C   UNL     1      34.676 -15.644 -21.095  0.00  0.00    +0.102 C 
BRANCH  30  34
ATOM     32  O   UNL     1      34.601 -16.349 -25.671  0.00  0.00    -0.268 OA
ATOM     33  N   UNL     1      33.534 -14.487 -24.794  0.00  0.00    -0.298 N 
ATOM     34  C   UNL     1      34.252 -15.684 -24.679  0.00  0.00    +0.264 C 
ATOM     35  C   UNL     1      33.133 -13.913 -26.058  0.00  0.00    +0.111 C 
ATOM     36  H   UNL     1      33.290 -14.010 -23.968  0.00  0.00    +0.150 HD
ENDBRANCH  30  34
ENDBRANCH  25  27
ENDBRANCH   7  25
TORSDOF 6
ENDMDL
