MODEL 1
REMARK VINA RESULT:     -11.6      0.000      0.000
REMARK  Name = 9911830
REMARK  5 active torsions:
REMARK  status: ('A' for Active; 'I' for Inactive)
REMARK    1  A    between atoms: C_2  and  O_20
REMARK    2  A    between atoms: C_3  and  N_10
REMARK    3  A    between atoms: O_20  and  C_24
REMARK    4  A    between atoms: C_26  and  O_31
REMARK    5  A    between atoms: C_28  and  O_33
REMARK                            x       y       z     vdW  Elec       q    Type
REMARK                         _______ _______ _______ _____ _____    ______ ____
ROOT
ATOM      1 CL   UNL     1      37.360 -19.400 -20.629  0.00  0.00    -0.081 Cl
ATOM      2  C   UNL     1      34.654 -21.917 -19.163  0.00  0.00    +0.146 C 
ATOM      3  C   UNL     1      34.636 -19.567 -20.624  0.00  0.00    +0.062 C 
ATOM      4  C   UNL     1      35.856 -21.317 -19.491  0.00  0.00    +0.050 C 
ATOM      5  C   UNL     1      33.442 -21.370 -19.548  0.00  0.00    +0.039 C 
ATOM      6  C   UNL     1      35.848 -20.133 -20.228  0.00  0.00    +0.074 C 
ATOM      7  C   UNL     1      33.433 -20.186 -20.285  0.00  0.00    +0.019 C 
ENDROOT
BRANCH   3  10
ATOM      8  O   UNL     1      33.282 -15.966 -26.290  0.00  0.00    -0.357 OA
ATOM      9  O   UNL     1      33.726 -19.080 -23.427  0.00  0.00    -0.252 OA
ATOM     10  N   UNL     1      34.592 -18.382 -21.365  0.00  0.00    -0.267 N 
ATOM     11  N   UNL     1      34.277 -16.839 -23.051  0.00  0.00    -0.251 N 
ATOM     12  N   UNL     1      33.460 -16.918 -25.294  0.00  0.00    -0.062 NA
ATOM     13  C   UNL     1      34.151 -18.191 -22.696  0.00  0.00    +0.309 C 
ATOM     14  C   UNL     1      33.950 -16.228 -24.285  0.00  0.00    +0.177 C 
ATOM     15  C   UNL     1      34.114 -14.875 -24.533  0.00  0.00    +0.073 C 
ATOM     16  C   UNL     1      33.675 -14.752 -25.824  0.00  0.00    +0.156 C 
ATOM     17  C   UNL     1      33.554 -13.623 -26.755  0.00  0.00    +0.075 C 
ATOM     18  H   UNL     1      34.908 -17.575 -20.900  0.00  0.00    +0.156 HD
ATOM     19  H   UNL     1      34.637 -16.241 -22.355  0.00  0.00    +0.158 HD
ENDBRANCH   3  10
BRANCH   2  20
ATOM     20  O   UNL     1      34.660 -23.091 -18.431  0.00  0.00    -0.453 OA
BRANCH  20  24
ATOM     21  N   UNL     1      32.448 -23.141 -14.924  0.00  0.00    -0.244 NA
ATOM     22  C   UNL     1      34.594 -23.194 -16.019  0.00  0.00    +0.055 C 
ATOM     23  C   UNL     1      33.791 -23.207 -14.860  0.00  0.00    +0.087 C 
ATOM     24  C   UNL     1      33.953 -23.109 -17.263  0.00  0.00    +0.148 C 
ATOM     25  C   UNL     1      35.994 -23.264 -15.915  0.00  0.00    +0.045 C 
ATOM     26  C   UNL     1      36.603 -23.347 -14.667  0.00  0.00    +0.173 C 
ATOM     27  C   UNL     1      34.428 -23.292 -13.624  0.00  0.00    +0.059 C 
ATOM     28  C   UNL     1      35.819 -23.361 -13.520  0.00  0.00    +0.174 C 
ATOM     29  C   UNL     1      32.570 -23.042 -17.333  0.00  0.00    +0.058 C 
ATOM     30  C   UNL     1      31.869 -23.061 -16.144  0.00  0.00    +0.102 C 
BRANCH  26  31
ATOM     31  O   UNL     1      37.961 -23.414 -14.583  0.00  0.00    -0.468 OA
ATOM     32  C   UNL     1      38.545 -24.715 -14.528  0.00  0.00    +0.253 C 
ENDBRANCH  26  31
BRANCH  28  33
ATOM     33  O   UNL     1      36.395 -23.441 -12.287  0.00  0.00    -0.468 OA
ATOM     34  C   UNL     1      35.587 -23.944 -11.226  0.00  0.00    +0.253 C 
ENDBRANCH  28  33
ENDBRANCH  20  24
ENDBRANCH   2  20
TORSDOF 5
ENDMDL
MODEL 2
REMARK VINA RESULT:     -11.4      1.807      3.187
REMARK  Name = 9911830
REMARK  5 active torsions:
REMARK  status: ('A' for Active; 'I' for Inactive)
REMARK    1  A    between atoms: C_2  and  O_20
REMARK    2  A    between atoms: C_3  and  N_10
REMARK    3  A    between atoms: O_20  and  C_24
REMARK    4  A    between atoms: C_26  and  O_31
REMARK    5  A    between atoms: C_28  and  O_33
REMARK                            x       y       z     vdW  Elec       q    Type
REMARK                         _______ _______ _______ _____ _____    ______ ____
ROOT
ATOM      1 CL   UNL     1      37.361 -19.406 -20.695  0.00  0.00    -0.081 Cl
ATOM      2  C   UNL     1      34.628 -21.878 -19.204  0.00  0.00    +0.146 C 
ATOM      3  C   UNL     1      34.635 -19.527 -20.663  0.00  0.00    +0.062 C 
ATOM      4  C   UNL     1      35.837 -21.298 -19.544  0.00  0.00    +0.050 C 
ATOM      5  C   UNL     1      33.421 -21.310 -19.577  0.00  0.00    +0.039 C 
ATOM      6  C   UNL     1      35.841 -20.114 -20.280  0.00  0.00    +0.074 C 
ATOM      7  C   UNL     1      33.425 -20.126 -20.313  0.00  0.00    +0.019 C 
ENDROOT
BRANCH   3  10
ATOM      8  O   UNL     1      33.329 -15.907 -26.328  0.00  0.00    -0.357 OA
ATOM      9  O   UNL     1      33.737 -19.028 -23.468  0.00  0.00    -0.252 OA
ATOM     10  N   UNL     1      34.604 -18.340 -21.403  0.00  0.00    -0.267 N 
ATOM     11  N   UNL     1      34.307 -16.793 -23.088  0.00  0.00    -0.251 N 
ATOM     12  N   UNL     1      33.495 -16.862 -25.333  0.00  0.00    -0.062 NA
ATOM     13  C   UNL     1      34.168 -18.144 -22.735  0.00  0.00    +0.309 C 
ATOM     14  C   UNL     1      33.988 -16.177 -24.321  0.00  0.00    +0.177 C 
ATOM     15  C   UNL     1      34.165 -14.825 -24.567  0.00  0.00    +0.073 C 
ATOM     16  C   UNL     1      33.731 -14.698 -25.860  0.00  0.00    +0.156 C 
ATOM     17  C   UNL     1      33.622 -13.566 -26.789  0.00  0.00    +0.075 C 
ATOM     18  H   UNL     1      34.926 -17.536 -20.936  0.00  0.00    +0.156 HD
ATOM     19  H   UNL     1      34.670 -16.199 -22.390  0.00  0.00    +0.158 HD
ENDBRANCH   3  10
BRANCH   2  20
ATOM     20  O   UNL     1      34.622 -23.052 -18.473  0.00  0.00    -0.453 OA
BRANCH  20  24
ATOM     21  N   UNL     1      35.270 -22.746 -14.388  0.00  0.00    -0.244 NA
ATOM     22  C   UNL     1      33.753 -23.130 -16.221  0.00  0.00    +0.055 C 
ATOM     23  C   UNL     1      34.031 -23.015 -14.843  0.00  0.00    +0.087 C 
ATOM     24  C   UNL     1      34.811 -22.956 -17.124  0.00  0.00    +0.148 C 
ATOM     25  C   UNL     1      32.448 -23.411 -16.661  0.00  0.00    +0.045 C 
ATOM     26  C   UNL     1      31.416 -23.579 -15.742  0.00  0.00    +0.173 C 
ATOM     27  C   UNL     1      32.980 -23.187 -13.946  0.00  0.00    +0.059 C 
ATOM     28  C   UNL     1      31.683 -23.467 -14.383  0.00  0.00    +0.174 C 
ATOM     29  C   UNL     1      36.088 -22.679 -16.658  0.00  0.00    +0.058 C 
ATOM     30  C   UNL     1      36.263 -22.586 -15.292  0.00  0.00    +0.102 C 
BRANCH  26  31
ATOM     31  O   UNL     1      30.157 -23.851 -16.185  0.00  0.00    -0.468 OA
ATOM     32  C   UNL     1      29.231 -22.766 -16.217  0.00  0.00    +0.253 C 
ENDBRANCH  26  31
BRANCH  28  33
ATOM     33  O   UNL     1      30.688 -23.628 -13.466  0.00  0.00    -0.468 OA
ATOM     34  C   UNL     1      30.529 -24.928 -12.903  0.00  0.00    +0.253 C 
ENDBRANCH  28  33
ENDBRANCH  20  24
ENDBRANCH   2  20
TORSDOF 5
ENDMDL
MODEL 3
REMARK VINA RESULT:     -11.2      2.516     11.342
REMARK  Name = 9911830
REMARK  5 active torsions:
REMARK  status: ('A' for Active; 'I' for Inactive)
REMARK    1  A    between atoms: C_2  and  O_20
REMARK    2  A    between atoms: C_3  and  N_10
REMARK    3  A    between atoms: O_20  and  C_24
REMARK    4  A    between atoms: C_26  and  O_31
REMARK    5  A    between atoms: C_28  and  O_33
REMARK                            x       y       z     vdW  Elec       q    Type
REMARK                         _______ _______ _______ _____ _____    ______ ____
ROOT
ATOM      1 CL   UNL     1      33.293 -21.419 -19.391  0.00  0.00    -0.081 Cl
ATOM      2  C   UNL     1      35.896 -18.899 -21.029  0.00  0.00    +0.146 C 
ATOM      3  C   UNL     1      35.976 -20.961 -19.186  0.00  0.00    +0.062 C 
ATOM      4  C   UNL     1      34.725 -19.562 -20.707  0.00  0.00    +0.050 C 
ATOM      5  C   UNL     1      37.106 -19.242 -20.451  0.00  0.00    +0.039 C 
ATOM      6  C   UNL     1      34.765 -20.602 -19.779  0.00  0.00    +0.074 C 
ATOM      7  C   UNL     1      37.146 -20.282 -19.523  0.00  0.00    +0.019 C 
ENDROOT
BRANCH   3  10
ATOM      8  O   UNL     1      37.708 -23.575 -13.097  0.00  0.00    -0.357 OA
ATOM      9  O   UNL     1      37.109 -20.991 -16.422  0.00  0.00    -0.252 OA
ATOM     10  N   UNL     1      36.051 -22.000 -18.253  0.00  0.00    -0.267 N 
ATOM     11  N   UNL     1      36.466 -23.238 -16.351  0.00  0.00    -0.251 N 
ATOM     12  N   UNL     1      37.471 -22.803 -14.228  0.00  0.00    -0.062 NA
ATOM     13  C   UNL     1      36.597 -21.974 -16.948  0.00  0.00    +0.309 C 
ATOM     14  C   UNL     1      36.879 -23.638 -15.058  0.00  0.00    +0.177 C 
ATOM     15  C   UNL     1      36.701 -24.920 -14.563  0.00  0.00    +0.073 C 
ATOM     16  C   UNL     1      37.244 -24.834 -13.309  0.00  0.00    +0.156 C 
ATOM     17  C   UNL     1      37.415 -25.788 -12.206  0.00  0.00    +0.075 C 
ATOM     18  H   UNL     1      35.673 -22.862 -18.541  0.00  0.00    +0.156 HD
ATOM     19  H   UNL     1      36.031 -23.932 -16.899  0.00  0.00    +0.158 HD
ENDBRANCH   3  10
BRANCH   2  20
ATOM     20  O   UNL     1      35.857 -17.866 -21.949  0.00  0.00    -0.453 OA
BRANCH  20  24
ATOM     21  N   UNL     1      33.375 -18.393 -25.229  0.00  0.00    -0.244 NA
ATOM     22  C   UNL     1      34.451 -16.910 -23.664  0.00  0.00    +0.055 C 
ATOM     23  C   UNL     1      33.616 -17.149 -24.774  0.00  0.00    +0.087 C 
ATOM     24  C   UNL     1      35.036 -18.015 -23.030  0.00  0.00    +0.148 C 
ATOM     25  C   UNL     1      34.680 -15.597 -23.216  0.00  0.00    +0.045 C 
ATOM     26  C   UNL     1      34.085 -14.519 -23.864  0.00  0.00    +0.173 C 
ATOM     27  C   UNL     1      33.034 -16.051 -25.404  0.00  0.00    +0.059 C 
ATOM     28  C   UNL     1      33.262 -14.747 -24.959  0.00  0.00    +0.174 C 
ATOM     29  C   UNL     1      34.791 -19.298 -23.495  0.00  0.00    +0.058 C 
ATOM     30  C   UNL     1      33.960 -19.432 -24.589  0.00  0.00    +0.102 C 
BRANCH  26  31
ATOM     31  O   UNL     1      34.318 -13.253 -23.418  0.00  0.00    -0.468 OA
ATOM     32  C   UNL     1      33.345 -12.684 -22.543  0.00  0.00    +0.253 C 
ENDBRANCH  26  31
BRANCH  28  33
ATOM     33  O   UNL     1      32.669 -13.705 -25.609  0.00  0.00    -0.468 OA
ATOM     34  C   UNL     1      33.400 -13.109 -26.679  0.00  0.00    +0.253 C 
ENDBRANCH  28  33
ENDBRANCH  20  24
ENDBRANCH   2  20
TORSDOF 5
ENDMDL
MODEL 4
REMARK VINA RESULT:     -11.0      1.763      2.152
REMARK  Name = 9911830
REMARK  5 active torsions:
REMARK  status: ('A' for Active; 'I' for Inactive)
REMARK    1  A    between atoms: C_2  and  O_20
REMARK    2  A    between atoms: C_3  and  N_10
REMARK    3  A    between atoms: O_20  and  C_24
REMARK    4  A    between atoms: C_26  and  O_31
REMARK    5  A    between atoms: C_28  and  O_33
REMARK                            x       y       z     vdW  Elec       q    Type
REMARK                         _______ _______ _______ _____ _____    ______ ____
ROOT
ATOM      1 CL   UNL     1      32.489 -21.110 -19.944  0.00  0.00    -0.081 Cl
ATOM      2  C   UNL     1      35.837 -21.985 -17.985  0.00  0.00    +0.146 C 
ATOM      3  C   UNL     1      35.144 -20.560 -20.255  0.00  0.00    +0.062 C 
ATOM      4  C   UNL     1      34.506 -21.911 -18.356  0.00  0.00    +0.050 C 
ATOM      5  C   UNL     1      36.830 -21.364 -18.723  0.00  0.00    +0.039 C 
ATOM      6  C   UNL     1      34.157 -21.192 -19.499  0.00  0.00    +0.074 C 
ATOM      7  C   UNL     1      36.481 -20.645 -19.866  0.00  0.00    +0.019 C 
ENDROOT
BRANCH   3  10
ATOM      8  O   UNL     1      34.357 -14.722 -23.745  0.00  0.00    -0.357 OA
ATOM      9  O   UNL     1      35.141 -17.611 -20.724  0.00  0.00    -0.252 OA
ATOM     10  N   UNL     1      34.828 -19.830 -21.405  0.00  0.00    -0.267 N 
ATOM     11  N   UNL     1      34.453 -18.116 -22.901  0.00  0.00    -0.251 N 
ATOM     12  N   UNL     1      34.591 -15.733 -22.822  0.00  0.00    -0.062 NA
ATOM     13  C   UNL     1      34.839 -18.428 -21.588  0.00  0.00    +0.309 C 
ATOM     14  C   UNL     1      34.333 -16.836 -23.494  0.00  0.00    +0.177 C 
ATOM     15  C   UNL     1      33.941 -16.637 -24.807  0.00  0.00    +0.073 C 
ATOM     16  C   UNL     1      33.970 -15.273 -24.925  0.00  0.00    +0.156 C 
ATOM     17  C   UNL     1      33.680 -14.340 -26.020  0.00  0.00    +0.075 C 
ATOM     18  H   UNL     1      34.564 -20.362 -22.190  0.00  0.00    +0.156 HD
ATOM     19  H   UNL     1      34.239 -18.882 -23.483  0.00  0.00    +0.158 HD
ENDBRANCH   3  10
BRANCH   2  20
ATOM     20  O   UNL     1      36.185 -22.699 -16.853  0.00  0.00    -0.453 OA
BRANCH  20  24
ATOM     21  N   UNL     1      33.067 -23.928 -14.411  0.00  0.00    -0.244 NA
ATOM     22  C   UNL     1      35.433 -23.632 -14.756  0.00  0.00    +0.055 C 
ATOM     23  C   UNL     1      34.334 -24.034 -13.970  0.00  0.00    +0.087 C 
ATOM     24  C   UNL     1      35.175 -23.110 -16.032  0.00  0.00    +0.148 C 
ATOM     25  C   UNL     1      36.744 -23.758 -14.264  0.00  0.00    +0.045 C 
ATOM     26  C   UNL     1      36.971 -24.279 -12.994  0.00  0.00    +0.173 C 
ATOM     27  C   UNL     1      34.591 -24.553 -12.703  0.00  0.00    +0.059 C 
ATOM     28  C   UNL     1      35.893 -24.677 -12.213  0.00  0.00    +0.174 C 
ATOM     29  C   UNL     1      33.870 -22.999 -16.489  0.00  0.00    +0.058 C 
ATOM     30  C   UNL     1      32.861 -23.419 -15.647  0.00  0.00    +0.102 C 
BRANCH  26  31
ATOM     31  O   UNL     1      38.247 -24.394 -12.531  0.00  0.00    -0.468 OA
ATOM     32  C   UNL     1      39.058 -25.414 -13.110  0.00  0.00    +0.253 C 
ENDBRANCH  26  31
BRANCH  28  33
ATOM     33  O   UNL     1      36.093 -25.190 -10.966  0.00  0.00    -0.468 OA
ATOM     34  C   UNL     1      35.633 -24.412  -9.863  0.00  0.00    +0.253 C 
ENDBRANCH  28  33
ENDBRANCH  20  24
ENDBRANCH   2  20
TORSDOF 5
ENDMDL
MODEL 5
REMARK VINA RESULT:     -10.8      7.977     15.972
REMARK  Name = 9911830
REMARK  5 active torsions:
REMARK  status: ('A' for Active; 'I' for Inactive)
REMARK    1  A    between atoms: C_2  and  O_20
REMARK    2  A    between atoms: C_3  and  N_10
REMARK    3  A    between atoms: O_20  and  C_24
REMARK    4  A    between atoms: C_26  and  O_31
REMARK    5  A    between atoms: C_28  and  O_33
REMARK                            x       y       z     vdW  Elec       q    Type
REMARK                         _______ _______ _______ _____ _____    ______ ____
ROOT
ATOM      1 CL   UNL     1      31.752 -11.372 -22.132  0.00  0.00    -0.081 Cl
ATOM      2  C   UNL     1      34.055  -8.291 -23.137  0.00  0.00    +0.146 C 
ATOM      3  C   UNL     1      33.919 -10.987 -23.745  0.00  0.00    +0.062 C 
ATOM      4  C   UNL     1      33.065  -9.065 -22.558  0.00  0.00    +0.050 C 
ATOM      5  C   UNL     1      34.979  -8.833 -24.014  0.00  0.00    +0.039 C 
ATOM      6  C   UNL     1      32.996 -10.423 -22.865  0.00  0.00    +0.074 C 
ATOM      7  C   UNL     1      34.910 -10.192 -24.321  0.00  0.00    +0.019 C 
ENDROOT
BRANCH   3  10
ATOM      8  O   UNL     1      34.910 -17.625 -22.386  0.00  0.00    -0.357 OA
ATOM      9  O   UNL     1      34.724 -13.383 -22.154  0.00  0.00    -0.252 OA
ATOM     10  N   UNL     1      33.876 -12.346 -24.075  0.00  0.00    -0.267 N 
ATOM     11  N   UNL     1      34.056 -14.644 -24.006  0.00  0.00    -0.251 N 
ATOM     12  N   UNL     1      34.813 -16.239 -22.397  0.00  0.00    -0.062 NA
ATOM     13  C   UNL     1      34.267 -13.455 -23.290  0.00  0.00    +0.309 C 
ATOM     14  C   UNL     1      34.313 -15.971 -23.587  0.00  0.00    +0.177 C 
ATOM     15  C   UNL     1      34.068 -17.082 -24.377  0.00  0.00    +0.073 C 
ATOM     16  C   UNL     1      34.463 -18.116 -23.571  0.00  0.00    +0.156 C 
ATOM     17  C   UNL     1      34.495 -19.575 -23.730  0.00  0.00    +0.075 C 
ATOM     18  H   UNL     1      33.527 -12.557 -24.971  0.00  0.00    +0.156 HD
ATOM     19  H   UNL     1      33.682 -14.543 -24.912  0.00  0.00    +0.158 HD
ENDBRANCH   3  10
BRANCH   2  20
ATOM     20  O   UNL     1      34.126  -6.943 -22.833  0.00  0.00    -0.453 OA
BRANCH  20  24
ATOM     21  N   UNL     1      33.814  -4.277 -25.994  0.00  0.00    -0.244 NA
ATOM     22  C   UNL     1      32.939  -5.145 -23.923  0.00  0.00    +0.055 C 
ATOM     23  C   UNL     1      32.883  -4.262 -25.021  0.00  0.00    +0.087 C 
ATOM     24  C   UNL     1      34.002  -6.057 -23.863  0.00  0.00    +0.148 C 
ATOM     25  C   UNL     1      31.950  -5.101 -22.925  0.00  0.00    +0.045 C 
ATOM     26  C   UNL     1      30.905  -4.186 -23.009  0.00  0.00    +0.173 C 
ATOM     27  C   UNL     1      31.827  -3.356 -25.080  0.00  0.00    +0.059 C 
ATOM     28  C   UNL     1      30.844  -3.313 -24.088  0.00  0.00    +0.174 C 
ATOM     29  C   UNL     1      34.962  -6.075 -24.864  0.00  0.00    +0.058 C 
ATOM     30  C   UNL     1      34.823  -5.172 -25.898  0.00  0.00    +0.102 C 
BRANCH  26  31
ATOM     31  O   UNL     1      29.955  -4.156 -22.034  0.00  0.00    -0.468 OA
ATOM     32  C   UNL     1      30.036  -5.154 -21.017  0.00  0.00    +0.253 C 
ENDBRANCH  26  31
BRANCH  28  33
ATOM     33  O   UNL     1      29.830  -2.408 -24.190  0.00  0.00    -0.468 OA
ATOM     34  C   UNL     1      29.410  -2.051 -25.505  0.00  0.00    +0.253 C 
ENDBRANCH  28  33
ENDBRANCH  20  24
ENDBRANCH   2  20
TORSDOF 5
ENDMDL
MODEL 6
REMARK VINA RESULT:     -10.8      2.112      2.939
REMARK  Name = 9911830
REMARK  5 active torsions:
REMARK  status: ('A' for Active; 'I' for Inactive)
REMARK    1  A    between atoms: C_2  and  O_20
REMARK    2  A    between atoms: C_3  and  N_10
REMARK    3  A    between atoms: O_20  and  C_24
REMARK    4  A    between atoms: C_26  and  O_31
REMARK    5  A    between atoms: C_28  and  O_33
REMARK                            x       y       z     vdW  Elec       q    Type
REMARK                         _______ _______ _______ _____ _____    ______ ____
ROOT
ATOM      1 CL   UNL     1      37.370 -19.226 -21.002  0.00  0.00    -0.081 Cl
ATOM      2  C   UNL     1      34.872 -21.666 -19.100  0.00  0.00    +0.146 C 
ATOM      3  C   UNL     1      34.665 -19.581 -20.908  0.00  0.00    +0.062 C 
ATOM      4  C   UNL     1      36.023 -21.041 -19.546  0.00  0.00    +0.050 C 
ATOM      5  C   UNL     1      33.619 -21.272 -19.538  0.00  0.00    +0.039 C 
ATOM      6  C   UNL     1      35.920 -19.991 -20.457  0.00  0.00    +0.074 C 
ATOM      7  C   UNL     1      33.515 -20.222 -20.449  0.00  0.00    +0.019 C 
ENDROOT
BRANCH   3  10
ATOM      8  O   UNL     1      34.326 -12.947 -22.574  0.00  0.00    -0.357 OA
ATOM      9  O   UNL     1      34.666 -16.627 -20.469  0.00  0.00    -0.252 OA
ATOM     10  N   UNL     1      34.527 -18.532 -21.824  0.00  0.00    -0.267 N 
ATOM     11  N   UNL     1      34.364 -16.440 -22.780  0.00  0.00    -0.251 N 
ATOM     12  N   UNL     1      34.428 -14.194 -21.970  0.00  0.00    -0.062 NA
ATOM     13  C   UNL     1      34.534 -17.140 -21.575  0.00  0.00    +0.309 C 
ATOM     14  C   UNL     1      34.314 -15.039 -22.974  0.00  0.00    +0.177 C 
ATOM     15  C   UNL     1      34.141 -14.446 -24.214  0.00  0.00    +0.073 C 
ATOM     16  C   UNL     1      34.156 -13.111 -23.912  0.00  0.00    +0.156 C 
ATOM     17  C   UNL     1      34.029 -11.886 -24.711  0.00  0.00    +0.075 C 
ATOM     18  H   UNL     1      34.411 -18.798 -22.764  0.00  0.00    +0.156 HD
ATOM     19  H   UNL     1      34.270 -16.991 -23.591  0.00  0.00    +0.158 HD
ENDBRANCH   3  10
BRANCH   2  20
ATOM     20  O   UNL     1      34.973 -22.706 -18.195  0.00  0.00    -0.453 OA
BRANCH  20  24
ATOM     21  N   UNL     1      37.410 -22.078 -14.898  0.00  0.00    -0.244 NA
ATOM     22  C   UNL     1      35.383 -22.988 -15.831  0.00  0.00    +0.055 C 
ATOM     23  C   UNL     1      36.250 -22.745 -14.747  0.00  0.00    +0.087 C 
ATOM     24  C   UNL     1      35.758 -22.511 -17.095  0.00  0.00    +0.148 C 
ATOM     25  C   UNL     1      34.180 -23.688 -15.636  0.00  0.00    +0.045 C 
ATOM     26  C   UNL     1      33.831 -24.150 -14.371  0.00  0.00    +0.173 C 
ATOM     27  C   UNL     1      35.877 -23.218 -13.491  0.00  0.00    +0.059 C 
ATOM     28  C   UNL     1      34.681 -23.915 -13.297  0.00  0.00    +0.174 C 
ATOM     29  C   UNL     1      36.952 -21.823 -17.255  0.00  0.00    +0.058 C 
ATOM     30  C   UNL     1      37.735 -21.635 -16.134  0.00  0.00    +0.102 C 
BRANCH  26  31
ATOM     31  O   UNL     1      32.662 -24.827 -14.199  0.00  0.00    -0.468 OA
ATOM     32  C   UNL     1      31.464 -24.055 -14.163  0.00  0.00    +0.253 C 
ENDBRANCH  26  31
BRANCH  28  33
ATOM     33  O   UNL     1      34.360 -24.358 -12.049  0.00  0.00    -0.468 OA
ATOM     34  C   UNL     1      35.441 -24.702 -11.185  0.00  0.00    +0.253 C 
ENDBRANCH  28  33
ENDBRANCH  20  24
ENDBRANCH   2  20
TORSDOF 5
ENDMDL
MODEL 7
REMARK VINA RESULT:     -10.7      3.627      4.919
REMARK  Name = 9911830
REMARK  5 active torsions:
REMARK  status: ('A' for Active; 'I' for Inactive)
REMARK    1  A    between atoms: C_2  and  O_20
REMARK    2  A    between atoms: C_3  and  N_10
REMARK    3  A    between atoms: O_20  and  C_24
REMARK    4  A    between atoms: C_26  and  O_31
REMARK    5  A    between atoms: C_28  and  O_33
REMARK                            x       y       z     vdW  Elec       q    Type
REMARK                         _______ _______ _______ _____ _____    ______ ____
ROOT
ATOM      1 CL   UNL     1      34.856 -16.399 -25.049  0.00  0.00    -0.081 Cl
ATOM      2  C   UNL     1      35.316 -18.263 -21.567  0.00  0.00    +0.146 C 
ATOM      3  C   UNL     1      34.799 -15.680 -22.417  0.00  0.00    +0.062 C 
ATOM      4  C   UNL     1      35.227 -18.003 -22.923  0.00  0.00    +0.050 C 
ATOM      5  C   UNL     1      35.153 -17.261 -20.626  0.00  0.00    +0.039 C 
ATOM      6  C   UNL     1      34.965 -16.702 -23.352  0.00  0.00    +0.074 C 
ATOM      7  C   UNL     1      34.891 -15.960 -21.054  0.00  0.00    +0.019 C 
ENDROOT
BRANCH   3  10
ATOM      8  O   UNL     1      31.486  -9.709 -21.905  0.00  0.00    -0.357 OA
ATOM      9  O   UNL     1      32.854 -13.694 -21.325  0.00  0.00    -0.252 OA
ATOM     10  N   UNL     1      34.534 -14.366 -22.813  0.00  0.00    -0.267 N 
ATOM     11  N   UNL     1      33.660 -12.236 -22.966  0.00  0.00    -0.251 N 
ATOM     12  N   UNL     1      31.994 -10.997 -21.787  0.00  0.00    -0.062 NA
ATOM     13  C   UNL     1      33.602 -13.453 -22.268  0.00  0.00    +0.309 C 
ATOM     14  C   UNL     1      32.898 -11.065 -22.743  0.00  0.00    +0.177 C 
ATOM     15  C   UNL     1      33.035  -9.911 -23.496  0.00  0.00    +0.073 C 
ATOM     16  C   UNL     1      32.115  -9.071 -22.926  0.00  0.00    +0.156 C 
ATOM     17  C   UNL     1      31.698  -7.689 -23.191  0.00  0.00    +0.075 C 
ATOM     18  H   UNL     1      35.067 -14.032 -23.570  0.00  0.00    +0.156 HD
ATOM     19  H   UNL     1      34.312 -12.192 -23.703  0.00  0.00    +0.158 HD
ENDBRANCH   3  10
BRANCH   2  20
ATOM     20  O   UNL     1      35.577 -19.552 -21.141  0.00  0.00    -0.453 OA
BRANCH  20  24
ATOM     21  N   UNL     1      32.437 -21.598 -19.365  0.00  0.00    -0.244 NA
ATOM     22  C   UNL     1      34.783 -21.048 -19.419  0.00  0.00    +0.055 C 
ATOM     23  C   UNL     1      33.678 -21.720 -18.856  0.00  0.00    +0.087 C 
ATOM     24  C   UNL     1      34.560 -20.236 -20.539  0.00  0.00    +0.148 C 
ATOM     25  C   UNL     1      36.065 -21.199 -18.862  0.00  0.00    +0.045 C 
ATOM     26  C   UNL     1      36.258 -22.011 -17.750  0.00  0.00    +0.173 C 
ATOM     27  C   UNL     1      33.900 -22.527 -17.744  0.00  0.00    +0.059 C 
ATOM     28  C   UNL     1      35.174 -22.676 -17.190  0.00  0.00    +0.174 C 
ATOM     29  C   UNL     1      33.282 -20.108 -21.066  0.00  0.00    +0.058 C 
ATOM     30  C   UNL     1      32.265 -20.804 -20.446  0.00  0.00    +0.102 C 
BRANCH  26  31
ATOM     31  O   UNL     1      37.506 -22.146 -17.222  0.00  0.00    -0.468 OA
ATOM     32  C   UNL     1      37.853 -21.278 -16.144  0.00  0.00    +0.253 C 
ENDBRANCH  26  31
BRANCH  28  33
ATOM     33  O   UNL     1      35.340 -23.477 -16.100  0.00  0.00    -0.468 OA
ATOM     34  C   UNL     1      34.511 -23.214 -14.970  0.00  0.00    +0.253 C 
ENDBRANCH  28  33
ENDBRANCH  20  24
ENDBRANCH   2  20
TORSDOF 5
ENDMDL
MODEL 8
REMARK VINA RESULT:     -10.6      8.123     15.969
REMARK  Name = 9911830
REMARK  5 active torsions:
REMARK  status: ('A' for Active; 'I' for Inactive)
REMARK    1  A    between atoms: C_2  and  O_20
REMARK    2  A    between atoms: C_3  and  N_10
REMARK    3  A    between atoms: O_20  and  C_24
REMARK    4  A    between atoms: C_26  and  O_31
REMARK    5  A    between atoms: C_28  and  O_33
REMARK                            x       y       z     vdW  Elec       q    Type
REMARK                         _______ _______ _______ _____ _____    ______ ____
ROOT
ATOM      1 CL   UNL     1      35.723 -10.068 -25.190  0.00  0.00    -0.081 Cl
ATOM      2  C   UNL     1      33.643  -7.916 -22.572  0.00  0.00    +0.146 C 
ATOM      3  C   UNL     1      33.580 -10.502 -23.557  0.00  0.00    +0.062 C 
ATOM      4  C   UNL     1      34.577  -8.302 -23.516  0.00  0.00    +0.050 C 
ATOM      5  C   UNL     1      32.677  -8.793 -22.108  0.00  0.00    +0.039 C 
ATOM      6  C   UNL     1      34.546  -9.605 -24.012  0.00  0.00    +0.074 C 
ATOM      7  C   UNL     1      32.646 -10.096 -22.604  0.00  0.00    +0.019 C 
ENDROOT
BRANCH   3  10
ATOM      8  O   UNL     1      34.639 -17.243 -22.985  0.00  0.00    -0.357 OA
ATOM      9  O   UNL     1      34.460 -13.053 -22.278  0.00  0.00    -0.252 OA
ATOM     10  N   UNL     1      33.522 -11.816 -24.032  0.00  0.00    -0.267 N 
ATOM     11  N   UNL     1      33.708 -14.107 -24.225  0.00  0.00    -0.251 N 
ATOM     12  N   UNL     1      34.540 -15.865 -22.840  0.00  0.00    -0.062 NA
ATOM     13  C   UNL     1      33.951 -13.003 -23.393  0.00  0.00    +0.309 C 
ATOM     14  C   UNL     1      33.985 -15.471 -23.967  0.00  0.00    +0.177 C 
ATOM     15  C   UNL     1      33.704 -16.489 -24.863  0.00  0.00    +0.073 C 
ATOM     16  C   UNL     1      34.137 -17.603 -24.195  0.00  0.00    +0.156 C 
ATOM     17  C   UNL     1      34.163 -19.035 -24.516  0.00  0.00    +0.075 C 
ATOM     18  H   UNL     1      33.131 -11.930 -24.928  0.00  0.00    +0.156 HD
ATOM     19  H   UNL     1      33.291 -13.909 -25.096  0.00  0.00    +0.158 HD
ENDBRANCH   3  10
BRANCH   2  20
ATOM     20  O   UNL     1      33.671  -6.624 -22.080  0.00  0.00    -0.453 OA
BRANCH  20  24
ATOM     21  N   UNL     1      30.133  -4.463 -22.181  0.00  0.00    -0.244 NA
ATOM     22  C   UNL     1      32.226  -5.058 -23.216  0.00  0.00    +0.055 C 
ATOM     23  C   UNL     1      31.008  -4.348 -23.198  0.00  0.00    +0.087 C 
ATOM     24  C   UNL     1      32.514  -5.903 -22.135  0.00  0.00    +0.148 C 
ATOM     25  C   UNL     1      33.116  -4.913 -24.295  0.00  0.00    +0.045 C 
ATOM     26  C   UNL     1      32.806  -4.067 -25.355  0.00  0.00    +0.173 C 
ATOM     27  C   UNL     1      30.723  -3.508 -24.272  0.00  0.00    +0.059 C 
ATOM     28  C   UNL     1      31.607  -3.364 -25.343  0.00  0.00    +0.174 C 
ATOM     29  C   UNL     1      31.614  -6.024 -21.086  0.00  0.00    +0.058 C 
ATOM     30  C   UNL     1      30.448  -5.289 -21.157  0.00  0.00    +0.102 C 
BRANCH  26  31
ATOM     31  O   UNL     1      33.679  -3.938 -26.392  0.00  0.00    -0.468 OA
ATOM     32  C   UNL     1      34.855  -4.744 -26.355  0.00  0.00    +0.253 C 
ENDBRANCH  26  31
BRANCH  28  33
ATOM     33  O   UNL     1      31.282  -2.531 -26.372  0.00  0.00    -0.468 OA
ATOM     34  C   UNL     1      29.910  -2.165 -26.501  0.00  0.00    +0.253 C 
ENDBRANCH  28  33
ENDBRANCH  20  24
ENDBRANCH   2  20
TORSDOF 5
ENDMDL
MODEL 9
REMARK VINA RESULT:     -10.5      3.376     10.572
REMARK  Name = 9911830
REMARK  5 active torsions:
REMARK  status: ('A' for Active; 'I' for Inactive)
REMARK    1  A    between atoms: C_2  and  O_20
REMARK    2  A    between atoms: C_3  and  N_10
REMARK    3  A    between atoms: O_20  and  C_24
REMARK    4  A    between atoms: C_26  and  O_31
REMARK    5  A    between atoms: C_28  and  O_33
REMARK                            x       y       z     vdW  Elec       q    Type
REMARK                         _______ _______ _______ _____ _____    ______ ____
ROOT
ATOM      1 CL   UNL     1      36.784 -22.031 -17.782  0.00  0.00    -0.081 Cl
ATOM      2  C   UNL     1      35.420 -19.790 -20.769  0.00  0.00    +0.146 C 
ATOM      3  C   UNL     1      34.346 -21.526 -18.900  0.00  0.00    +0.062 C 
ATOM      4  C   UNL     1      36.259 -20.403 -19.856  0.00  0.00    +0.050 C 
ATOM      5  C   UNL     1      34.055 -20.024 -20.769  0.00  0.00    +0.039 C 
ATOM      6  C   UNL     1      35.719 -21.277 -18.914  0.00  0.00    +0.074 C 
ATOM      7  C   UNL     1      33.515 -20.898 -19.827  0.00  0.00    +0.019 C 
ENDROOT
BRANCH   3  10
ATOM      8  O   UNL     1      29.108 -23.851 -15.152  0.00  0.00    -0.357 OA
ATOM      9  O   UNL     1      31.555 -21.650 -17.846  0.00  0.00    -0.252 OA
ATOM     10  N   UNL     1      33.772 -22.395 -17.967  0.00  0.00    -0.267 N 
ATOM     11  N   UNL     1      32.287 -23.461 -16.561  0.00  0.00    -0.251 N 
ATOM     12  N   UNL     1      29.979 -23.190 -16.009  0.00  0.00    -0.062 NA
ATOM     13  C   UNL     1      32.440 -22.423 -17.493  0.00  0.00    +0.309 C 
ATOM     14  C   UNL     1      31.119 -23.831 -15.852  0.00  0.00    +0.177 C 
ATOM     15  C   UNL     1      31.076 -24.879 -14.947  0.00  0.00    +0.073 C 
ATOM     16  C   UNL     1      29.773 -24.856 -14.525  0.00  0.00    +0.156 C 
ATOM     17  C   UNL     1      28.997 -25.664 -13.576  0.00  0.00    +0.075 C 
ATOM     18  H   UNL     1      34.373 -23.079 -17.593  0.00  0.00    +0.156 HD
ATOM     19  H   UNL     1      33.091 -23.999 -16.377  0.00  0.00    +0.158 HD
ENDBRANCH   3  10
BRANCH   2  20
ATOM     20  O   UNL     1      35.955 -18.923 -21.705  0.00  0.00    -0.453 OA
BRANCH  20  24
ATOM     21  N   UNL     1      33.821 -18.401 -25.222  0.00  0.00    -0.244 NA
ATOM     22  C   UNL     1      34.775 -17.459 -23.220  0.00  0.00    +0.055 C 
ATOM     23  C   UNL     1      34.056 -17.340 -24.427  0.00  0.00    +0.087 C 
ATOM     24  C   UNL     1      35.250 -18.727 -22.858  0.00  0.00    +0.148 C 
ATOM     25  C   UNL     1      35.001 -16.330 -22.414  0.00  0.00    +0.045 C 
ATOM     26  C   UNL     1      34.519 -15.083 -22.798  0.00  0.00    +0.173 C 
ATOM     27  C   UNL     1      33.584 -16.080 -24.787  0.00  0.00    +0.059 C 
ATOM     28  C   UNL     1      33.809 -14.958 -23.986  0.00  0.00    +0.174 C 
ATOM     29  C   UNL     1      35.010 -19.822 -23.675  0.00  0.00    +0.058 C 
ATOM     30  C   UNL     1      34.297 -19.607 -24.836  0.00  0.00    +0.102 C 
BRANCH  26  31
ATOM     31  O   UNL     1      34.747 -13.998 -22.006  0.00  0.00    -0.468 OA
ATOM     32  C   UNL     1      34.199 -14.029 -20.689  0.00  0.00    +0.253 C 
ENDBRANCH  26  31
BRANCH  28  33
ATOM     33  O   UNL     1      33.328 -13.746 -24.381  0.00  0.00    -0.468 OA
ATOM     34  C   UNL     1      33.169 -13.538 -25.783  0.00  0.00    +0.253 C 
ENDBRANCH  28  33
ENDBRANCH  20  24
ENDBRANCH   2  20
TORSDOF 5
ENDMDL
