MODEL 1
REMARK VINA RESULT:     -11.9      0.000      0.000
REMARK  Name = 45268539
REMARK  6 active torsions:
REMARK  status: ('A' for Active; 'I' for Inactive)
REMARK    1  A    between atoms: N_2  and  C_22
REMARK    2  A    between atoms: N_3  and  C_7
REMARK    3  A    between atoms: N_3  and  O_12
REMARK    4  A    between atoms: C_8  and  C_14
REMARK    5  A    between atoms: C_15  and  C_16
REMARK    6  A    between atoms: C_22  and  C_26
REMARK                            x       y       z     vdW  Elec       q    Type
REMARK                         _______ _______ _______ _____ _____    ______ ____
ROOT
ATOM      1  O   UNL     1      31.930 -23.730 -16.630  0.00  0.00    -0.273 OA
ATOM      2  N   UNL     1      34.115 -23.293 -15.800  0.00  0.00    -0.253 N 
ATOM      3  C   UNL     1      35.238 -22.641 -16.346  0.00  0.00    +0.052 C 
ATOM      4  C   UNL     1      34.958 -22.181 -17.633  0.00  0.00    +0.018 C 
ATOM      5  C   UNL     1      33.058 -23.288 -16.695  0.00  0.00    +0.252 C 
ATOM      6  C   UNL     1      33.586 -22.563 -17.910  0.00  0.00    +0.202 C 
ATOM      7  C   UNL     1      35.878 -21.506 -18.405  0.00  0.00    -0.001 C 
ATOM      8  C   UNL     1      36.482 -22.432 -15.781  0.00  0.00    +0.015 C 
ATOM      9  C   UNL     1      37.137 -21.290 -17.842  0.00  0.00    -0.000 C 
ATOM     10  C   UNL     1      37.436 -21.749 -16.544  0.00  0.00    +0.001 C 
ENDROOT
BRANCH   7  11
ATOM     11  C   UNL     1      35.593 -21.026 -19.745  0.00  0.00    -0.000 C 
ATOM     12  C   UNL     1      35.460 -19.723 -20.099  0.00  0.00    -0.000 C 
BRANCH  12  13
ATOM     13  C   UNL     1      35.188 -19.234 -21.462  0.00  0.00    -0.000 C 
ATOM     14  C   UNL     1      35.318 -17.877 -21.756  0.00  0.00    -0.000 C 
ATOM     15  C   UNL     1      34.802 -20.130 -22.460  0.00  0.00    -0.000 C 
ATOM     16  C   UNL     1      35.060 -17.415 -23.047  0.00  0.00    +0.000 C 
ATOM     17  C   UNL     1      34.544 -19.668 -23.750  0.00  0.00    +0.000 C 
ATOM     18  C   UNL     1      34.672 -18.310 -24.044  0.00  0.00    +0.000 C 
ENDBRANCH  12  13
ENDBRANCH   7  11
BRANCH   6  19
ATOM     19  N   UNL     1      32.892 -22.354 -18.972  0.00  0.00    -0.075 NA
BRANCH  19  20
ATOM     20  O   UNL     1      32.342 -21.072 -18.897  0.00  0.00    -0.294 OA
ATOM     21  H   UNL     1      31.742 -20.781 -19.556  0.00  0.00    +0.238 HD
ENDBRANCH  19  20
ENDBRANCH   6  19
BRANCH   2  22
ATOM     22  C   UNL     1      34.098 -23.875 -14.481  0.00  0.00    +0.128 C 
BRANCH  22  26
ATOM     23  F   UNL     1      36.826 -27.689 -15.768  0.00  0.00    -0.204 F 
ATOM     24  O   UNL     1      35.870 -23.490 -12.353  0.00  0.00    -0.448 OA
ATOM     25  O   UNL     1      37.506 -24.354 -10.823  0.00  0.00    -0.311 OA
ATOM     26  C   UNL     1      35.280 -24.769 -14.246  0.00  0.00    +0.034 C 
ATOM     27  C   UNL     1      36.149 -24.551 -13.176  0.00  0.00    +0.138 C 
ATOM     28  C   UNL     1      37.239 -25.404 -12.960  0.00  0.00    +0.043 C 
ATOM     29  C   UNL     1      35.511 -25.832 -15.119  0.00  0.00    +0.030 C 
ATOM     30  C   UNL     1      38.160 -25.156 -11.806  0.00  0.00    +0.176 C 
ATOM     31  C   UNL     1      37.469 -26.460 -13.848  0.00  0.00    +0.031 C 
ATOM     32  C   UNL     1      36.605 -26.674 -14.924  0.00  0.00    +0.140 C 
ATOM     33  C   UNL     1      36.927 -23.202 -11.431  0.00  0.00    +0.361 C 
ENDBRANCH  22  26
ENDBRANCH   2  22
TORSDOF 6
ENDMDL
MODEL 2
REMARK VINA RESULT:     -11.0      4.319     10.610
REMARK  Name = 45268539
REMARK  6 active torsions:
REMARK  status: ('A' for Active; 'I' for Inactive)
REMARK    1  A    between atoms: N_2  and  C_22
REMARK    2  A    between atoms: N_3  and  C_7
REMARK    3  A    between atoms: N_3  and  O_12
REMARK    4  A    between atoms: C_8  and  C_14
REMARK    5  A    between atoms: C_15  and  C_16
REMARK    6  A    between atoms: C_22  and  C_26
REMARK                            x       y       z     vdW  Elec       q    Type
REMARK                         _______ _______ _______ _____ _____    ______ ____
ROOT
ATOM      1  O   UNL     1      37.786 -18.292 -21.751  0.00  0.00    -0.273 OA
ATOM      2  N   UNL     1      35.472 -18.782 -21.989  0.00  0.00    -0.253 N 
ATOM      3  C   UNL     1      34.580 -19.591 -21.258  0.00  0.00    +0.052 C 
ATOM      4  C   UNL     1      35.240 -20.204 -20.193  0.00  0.00    +0.018 C 
ATOM      5  C   UNL     1      36.743 -18.827 -21.441  0.00  0.00    +0.252 C 
ATOM      6  C   UNL     1      36.618 -19.757 -20.258  0.00  0.00    +0.202 C 
ATOM      7  C   UNL     1      34.609 -21.054 -19.309  0.00  0.00    -0.001 C 
ATOM      8  C   UNL     1      33.234 -19.817 -21.475  0.00  0.00    +0.015 C 
ATOM      9  C   UNL     1      33.249 -21.287 -19.520  0.00  0.00    -0.000 C 
ATOM     10  C   UNL     1      32.569 -20.676 -20.591  0.00  0.00    +0.001 C 
ENDROOT
BRANCH   7  11
ATOM     11  C   UNL     1      35.290 -21.697 -18.200  0.00  0.00    -0.000 C 
ATOM     12  C   UNL     1      34.687 -22.423 -17.226  0.00  0.00    -0.000 C 
BRANCH  12  13
ATOM     13  C   UNL     1      35.380 -23.090 -16.109  0.00  0.00    -0.000 C 
ATOM     14  C   UNL     1      36.720 -22.803 -15.849  0.00  0.00    -0.000 C 
ATOM     15  C   UNL     1      34.695 -24.007 -15.312  0.00  0.00    -0.000 C 
ATOM     16  C   UNL     1      37.375 -23.435 -14.791  0.00  0.00    +0.000 C 
ATOM     17  C   UNL     1      35.350 -24.638 -14.255  0.00  0.00    +0.000 C 
ATOM     18  C   UNL     1      36.691 -24.353 -13.995  0.00  0.00    +0.000 C 
ENDBRANCH  12  13
ENDBRANCH   7  11
BRANCH   6  19
ATOM     19  N   UNL     1      37.598 -20.060 -19.483  0.00  0.00    -0.075 NA
BRANCH  19  20
ATOM     20  O   UNL     1      37.990 -18.909 -18.793  0.00  0.00    -0.294 OA
ATOM     21  H   UNL     1      38.830 -18.876 -18.377  0.00  0.00    +0.238 HD
ENDBRANCH  19  20
ENDBRANCH   6  19
BRANCH   2  22
ATOM     22  C   UNL     1      35.083 -18.018 -23.149  0.00  0.00    +0.128 C 
BRANCH  22  26
ATOM     23  F   UNL     1      34.544 -14.499 -19.837  0.00  0.00    -0.204 F 
ATOM     24  O   UNL     1      34.126 -16.201 -25.047  0.00  0.00    -0.448 OA
ATOM     25  O   UNL     1      32.864 -14.233 -25.594  0.00  0.00    -0.311 OA
ATOM     26  C   UNL     1      34.683 -16.616 -22.792  0.00  0.00    +0.034 C 
ATOM     27  C   UNL     1      34.210 -15.730 -23.761  0.00  0.00    +0.138 C 
ATOM     28  C   UNL     1      33.825 -14.431 -23.408  0.00  0.00    +0.043 C 
ATOM     29  C   UNL     1      34.793 -16.198 -21.466  0.00  0.00    +0.030 C 
ATOM     30  C   UNL     1      33.319 -13.494 -24.462  0.00  0.00    +0.176 C 
ATOM     31  C   UNL     1      33.950 -14.016 -22.079  0.00  0.00    +0.031 C 
ATOM     32  C   UNL     1      34.431 -14.898 -21.110  0.00  0.00    +0.140 C 
ATOM     33  C   UNL     1      33.856 -15.171 -26.004  0.00  0.00    +0.361 C 
ENDBRANCH  22  26
ENDBRANCH   2  22
TORSDOF 6
ENDMDL
MODEL 3
REMARK VINA RESULT:     -10.9      7.277     13.201
REMARK  Name = 45268539
REMARK  6 active torsions:
REMARK  status: ('A' for Active; 'I' for Inactive)
REMARK    1  A    between atoms: N_2  and  C_22
REMARK    2  A    between atoms: N_3  and  C_7
REMARK    3  A    between atoms: N_3  and  O_12
REMARK    4  A    between atoms: C_8  and  C_14
REMARK    5  A    between atoms: C_15  and  C_16
REMARK    6  A    between atoms: C_22  and  C_26
REMARK                            x       y       z     vdW  Elec       q    Type
REMARK                         _______ _______ _______ _____ _____    ______ ____
ROOT
ATOM      1  O   UNL     1      33.057 -12.622 -20.644  0.00  0.00    -0.273 OA
ATOM      2  N   UNL     1      33.066 -13.169 -22.957  0.00  0.00    -0.253 N 
ATOM      3  C   UNL     1      33.536 -14.283 -23.680  0.00  0.00    +0.052 C 
ATOM      4  C   UNL     1      34.100 -15.222 -22.817  0.00  0.00    +0.018 C 
ATOM      5  C   UNL     1      33.298 -13.327 -21.601  0.00  0.00    +0.252 C 
ATOM      6  C   UNL     1      33.978 -14.670 -21.481  0.00  0.00    +0.202 C 
ATOM      7  C   UNL     1      34.641 -16.413 -23.253  0.00  0.00    -0.001 C 
ATOM      8  C   UNL     1      33.497 -14.516 -25.042  0.00  0.00    +0.015 C 
ATOM      9  C   UNL     1      34.605 -16.656 -24.626  0.00  0.00    -0.000 C 
ATOM     10  C   UNL     1      34.039 -15.718 -25.512  0.00  0.00    +0.001 C 
ENDROOT
BRANCH   7  11
ATOM     11  C   UNL     1      35.231 -17.393 -22.359  0.00  0.00    -0.000 C 
ATOM     12  C   UNL     1      34.573 -18.440 -21.801  0.00  0.00    -0.000 C 
BRANCH  12  13
ATOM     13  C   UNL     1      35.176 -19.445 -20.908  0.00  0.00    -0.000 C 
ATOM     14  C   UNL     1      36.545 -19.412 -20.643  0.00  0.00    -0.000 C 
ATOM     15  C   UNL     1      34.377 -20.429 -20.326  0.00  0.00    -0.000 C 
ATOM     16  C   UNL     1      37.116 -20.364 -19.797  0.00  0.00    +0.000 C 
ATOM     17  C   UNL     1      34.947 -21.380 -19.480  0.00  0.00    +0.000 C 
ATOM     18  C   UNL     1      36.317 -21.348 -19.217  0.00  0.00    +0.000 C 
ENDBRANCH  12  13
ENDBRANCH   7  11
BRANCH   6  19
ATOM     19  N   UNL     1      34.359 -15.177 -20.363  0.00  0.00    -0.075 NA
BRANCH  19  20
ATOM     20  O   UNL     1      33.253 -15.257 -19.512  0.00  0.00    -0.294 OA
ATOM     21  H   UNL     1      33.104 -14.587 -18.873  0.00  0.00    +0.238 HD
ENDBRANCH  19  20
ENDBRANCH   6  19
BRANCH   2  22
ATOM     22  C   UNL     1      32.431 -12.032 -23.576  0.00  0.00    +0.128 C 
BRANCH  22  26
ATOM     23  F   UNL     1      36.406  -9.963 -25.463  0.00  0.00    -0.204 F 
ATOM     24  O   UNL     1      32.023  -9.655 -22.159  0.00  0.00    -0.448 OA
ATOM     25  O   UNL     1      32.885  -7.632 -21.196  0.00  0.00    -0.311 OA
ATOM     26  C   UNL     1      33.360 -10.859 -23.686  0.00  0.00    +0.034 C 
ATOM     27  C   UNL     1      33.131  -9.684 -22.969  0.00  0.00    +0.138 C 
ATOM     28  C   UNL     1      34.017  -8.605 -23.070  0.00  0.00    +0.043 C 
ATOM     29  C   UNL     1      34.469 -10.951 -24.528  0.00  0.00    +0.030 C 
ATOM     30  C   UNL     1      33.755  -7.352 -22.291  0.00  0.00    +0.176 C 
ATOM     31  C   UNL     1      35.119  -8.701 -23.925  0.00  0.00    +0.031 C 
ATOM     32  C   UNL     1      35.345  -9.872 -24.650  0.00  0.00    +0.140 C 
ATOM     33  C   UNL     1      31.738  -8.349 -21.647  0.00  0.00    +0.361 C 
ENDBRANCH  22  26
ENDBRANCH   2  22
TORSDOF 6
ENDMDL
MODEL 4
REMARK VINA RESULT:     -10.7      5.878     10.278
REMARK  Name = 45268539
REMARK  6 active torsions:
REMARK  status: ('A' for Active; 'I' for Inactive)
REMARK    1  A    between atoms: N_2  and  C_22
REMARK    2  A    between atoms: N_3  and  C_7
REMARK    3  A    between atoms: N_3  and  O_12
REMARK    4  A    between atoms: C_8  and  C_14
REMARK    5  A    between atoms: C_15  and  C_16
REMARK    6  A    between atoms: C_22  and  C_26
REMARK                            x       y       z     vdW  Elec       q    Type
REMARK                         _______ _______ _______ _____ _____    ______ ____
ROOT
ATOM      1  O   UNL     1      34.622 -16.338 -20.713  0.00  0.00    -0.273 OA
ATOM      2  N   UNL     1      34.219 -16.502 -23.049  0.00  0.00    -0.253 N 
ATOM      3  C   UNL     1      33.918 -15.550 -24.042  0.00  0.00    +0.052 C 
ATOM      4  C   UNL     1      33.857 -14.271 -23.488  0.00  0.00    +0.018 C 
ATOM      5  C   UNL     1      34.367 -15.897 -21.813  0.00  0.00    +0.252 C 
ATOM      6  C   UNL     1      34.133 -14.428 -22.074  0.00  0.00    +0.202 C 
ATOM      7  C   UNL     1      33.579 -13.143 -24.232  0.00  0.00    -0.001 C 
ATOM      8  C   UNL     1      33.697 -15.741 -25.394  0.00  0.00    +0.015 C 
ATOM      9  C   UNL     1      33.355 -13.328 -25.597  0.00  0.00    -0.000 C 
ATOM     10  C   UNL     1      33.413 -14.612 -26.172  0.00  0.00    +0.001 C 
ENDROOT
BRANCH   7  11
ATOM     11  C   UNL     1      33.512 -11.810 -23.661  0.00  0.00    -0.000 C 
ATOM     12  C   UNL     1      34.151 -10.717 -24.148  0.00  0.00    -0.000 C 
BRANCH  12  13
ATOM     13  C   UNL     1      34.069  -9.360 -23.579  0.00  0.00    -0.000 C 
ATOM     14  C   UNL     1      32.956  -8.985 -22.826  0.00  0.00    -0.000 C 
ATOM     15  C   UNL     1      35.106  -8.451 -23.791  0.00  0.00    -0.000 C 
ATOM     16  C   UNL     1      32.879  -7.700 -22.287  0.00  0.00    +0.000 C 
ATOM     17  C   UNL     1      35.029  -7.167 -23.253  0.00  0.00    +0.000 C 
ATOM     18  C   UNL     1      33.915  -6.791 -22.501  0.00  0.00    +0.000 C 
ENDBRANCH  12  13
ENDBRANCH   7  11
BRANCH   6  19
ATOM     19  N   UNL     1      34.183 -13.526 -21.159  0.00  0.00    -0.075 NA
BRANCH  19  20
ATOM     20  O   UNL     1      33.034 -13.630 -20.370  0.00  0.00    -0.294 OA
ATOM     21  H   UNL     1      32.889 -13.022 -19.671  0.00  0.00    +0.238 HD
ENDBRANCH  19  20
ENDBRANCH   6  19
BRANCH   2  22
ATOM     22  C   UNL     1      34.349 -17.913 -23.317  0.00  0.00    +0.128 C 
BRANCH  22  26
ATOM     23  F   UNL     1      38.715 -18.684 -21.318  0.00  0.00    -0.204 F 
ATOM     24  O   UNL     1      33.319 -19.724 -21.451  0.00  0.00    -0.448 OA
ATOM     25  O   UNL     1      33.632 -21.571 -19.949  0.00  0.00    -0.311 OA
ATOM     26  C   UNL     1      35.213 -18.601 -22.300  0.00  0.00    +0.034 C 
ATOM     27  C   UNL     1      34.670 -19.498 -21.379  0.00  0.00    +0.138 C 
ATOM     28  C   UNL     1      35.492 -20.145 -20.447  0.00  0.00    +0.043 C 
ATOM     29  C   UNL     1      36.581 -18.329 -22.277  0.00  0.00    +0.030 C 
ATOM     30  C   UNL     1      34.892 -21.106 -19.468  0.00  0.00    +0.176 C 
ATOM     31  C   UNL     1      36.860 -19.857 -20.425  0.00  0.00    +0.031 C 
ATOM     32  C   UNL     1      37.403 -18.952 -21.339  0.00  0.00    +0.140 C 
ATOM     33  C   UNL     1      32.815 -20.469 -20.337  0.00  0.00    +0.361 C 
ENDBRANCH  22  26
ENDBRANCH   2  22
TORSDOF 6
ENDMDL
MODEL 5
REMARK VINA RESULT:     -10.5      1.920      2.539
REMARK  Name = 45268539
REMARK  6 active torsions:
REMARK  status: ('A' for Active; 'I' for Inactive)
REMARK    1  A    between atoms: N_2  and  C_22
REMARK    2  A    between atoms: N_3  and  C_7
REMARK    3  A    between atoms: N_3  and  O_12
REMARK    4  A    between atoms: C_8  and  C_14
REMARK    5  A    between atoms: C_15  and  C_16
REMARK    6  A    between atoms: C_22  and  C_26
REMARK                            x       y       z     vdW  Elec       q    Type
REMARK                         _______ _______ _______ _____ _____    ______ ____
ROOT
ATOM      1  O   UNL     1      31.820 -24.107 -15.683  0.00  0.00    -0.273 OA
ATOM      2  N   UNL     1      34.108 -23.920 -15.065  0.00  0.00    -0.253 N 
ATOM      3  C   UNL     1      35.218 -23.295 -15.666  0.00  0.00    +0.052 C 
ATOM      4  C   UNL     1      34.844 -22.677 -16.859  0.00  0.00    +0.018 C 
ATOM      5  C   UNL     1      32.967 -23.742 -15.830  0.00  0.00    +0.252 C 
ATOM      6  C   UNL     1      33.424 -22.927 -17.017  0.00  0.00    +0.202 C 
ATOM      7  C   UNL     1      35.731 -21.989 -17.659  0.00  0.00    -0.001 C 
ATOM      8  C   UNL     1      36.528 -23.239 -15.227  0.00  0.00    +0.015 C 
ATOM      9  C   UNL     1      37.055 -21.927 -17.223  0.00  0.00    -0.000 C 
ATOM     10  C   UNL     1      37.450 -22.545 -16.020  0.00  0.00    +0.001 C 
ENDROOT
BRANCH   7  11
ATOM     11  C   UNL     1      35.348 -21.345 -18.902  0.00  0.00    -0.000 C 
ATOM     12  C   UNL     1      36.052 -20.371 -19.529  0.00  0.00    -0.000 C 
BRANCH  12  13
ATOM     13  C   UNL     1      35.672 -19.729 -20.801  0.00  0.00    -0.000 C 
ATOM     14  C   UNL     1      34.419 -19.979 -21.361  0.00  0.00    -0.000 C 
ATOM     15  C   UNL     1      36.565 -18.872 -21.443  0.00  0.00    -0.000 C 
ATOM     16  C   UNL     1      34.060 -19.372 -22.565  0.00  0.00    +0.000 C 
ATOM     17  C   UNL     1      36.205 -18.265 -22.646  0.00  0.00    +0.000 C 
ATOM     18  C   UNL     1      34.953 -18.515 -23.207  0.00  0.00    +0.000 C 
ENDBRANCH  12  13
ENDBRANCH   7  11
BRANCH   6  19
ATOM     19  N   UNL     1      32.642 -22.555 -17.967  0.00  0.00    -0.075 NA
BRANCH  19  20
ATOM     20  O   UNL     1      31.456 -22.076 -17.404  0.00  0.00    -0.294 OA
ATOM     21  H   UNL     1      31.324 -22.127 -16.477  0.00  0.00    +0.238 HD
ENDBRANCH  19  20
ENDBRANCH   6  19
BRANCH   2  22
ATOM     22  C   UNL     1      34.181 -24.642 -13.819  0.00  0.00    +0.128 C 
BRANCH  22  26
ATOM     23  F   UNL     1      37.035 -22.244 -10.695  0.00  0.00    -0.204 F 
ATOM     24  O   UNL     1      36.361 -26.320 -14.321  0.00  0.00    -0.448 OA
ATOM     25  O   UNL     1      38.730 -26.710 -14.332  0.00  0.00    -0.311 OA
ATOM     26  C   UNL     1      35.509 -24.462 -13.142  0.00  0.00    +0.034 C 
ATOM     27  C   UNL     1      36.578 -25.317 -13.410  0.00  0.00    +0.138 C 
ATOM     28  C   UNL     1      37.816 -25.126 -12.783  0.00  0.00    +0.043 C 
ATOM     29  C   UNL     1      35.666 -23.424 -12.225  0.00  0.00    +0.030 C 
ATOM     30  C   UNL     1      38.953 -26.053 -13.085  0.00  0.00    +0.176 C 
ATOM     31  C   UNL     1      37.961 -24.089 -11.856  0.00  0.00    +0.031 C 
ATOM     32  C   UNL     1      36.889 -23.239 -11.579  0.00  0.00    +0.140 C 
ATOM     33  C   UNL     1      37.423 -27.279 -14.364  0.00  0.00    +0.361 C 
ENDBRANCH  22  26
ENDBRANCH   2  22
TORSDOF 6
ENDMDL
MODEL 6
REMARK VINA RESULT:      -9.9      6.279     10.289
REMARK  Name = 45268539
REMARK  6 active torsions:
REMARK  status: ('A' for Active; 'I' for Inactive)
REMARK    1  A    between atoms: N_2  and  C_22
REMARK    2  A    between atoms: N_3  and  C_7
REMARK    3  A    between atoms: N_3  and  O_12
REMARK    4  A    between atoms: C_8  and  C_14
REMARK    5  A    between atoms: C_15  and  C_16
REMARK    6  A    between atoms: C_22  and  C_26
REMARK                            x       y       z     vdW  Elec       q    Type
REMARK                         _______ _______ _______ _____ _____    ______ ____
ROOT
ATOM      1  O   UNL     1      34.878 -16.434 -20.973  0.00  0.00    -0.273 OA
ATOM      2  N   UNL     1      34.395 -16.543 -23.298  0.00  0.00    -0.253 N 
ATOM      3  C   UNL     1      34.011 -15.575 -24.246  0.00  0.00    +0.052 C 
ATOM      4  C   UNL     1      33.907 -14.320 -23.648  0.00  0.00    +0.018 C 
ATOM      5  C   UNL     1      34.560 -15.970 -22.048  0.00  0.00    +0.252 C 
ATOM      6  C   UNL     1      34.244 -14.508 -22.250  0.00  0.00    +0.202 C 
ATOM      7  C   UNL     1      33.545 -13.184 -24.342  0.00  0.00    -0.001 C 
ATOM      8  C   UNL     1      33.749 -15.734 -25.595  0.00  0.00    +0.015 C 
ATOM      9  C   UNL     1      33.280 -13.336 -25.704  0.00  0.00    -0.000 C 
ATOM     10  C   UNL     1      33.380 -14.597 -26.324  0.00  0.00    +0.001 C 
ENDROOT
BRANCH   7  11
ATOM     11  C   UNL     1      33.434 -11.876 -23.724  0.00  0.00    -0.000 C 
ATOM     12  C   UNL     1      34.139 -10.776 -24.088  0.00  0.00    -0.000 C 
BRANCH  12  13
ATOM     13  C   UNL     1      34.014  -9.442 -23.472  0.00  0.00    -0.000 C 
ATOM     14  C   UNL     1      32.897  -9.135 -22.696  0.00  0.00    -0.000 C 
ATOM     15  C   UNL     1      35.013  -8.489 -23.665  0.00  0.00    -0.000 C 
ATOM     16  C   UNL     1      32.778  -7.873 -22.113  0.00  0.00    +0.000 C 
ATOM     17  C   UNL     1      34.895  -7.227 -23.083  0.00  0.00    +0.000 C 
ATOM     18  C   UNL     1      33.777  -6.919 -22.307  0.00  0.00    +0.000 C 
ENDBRANCH  12  13
ENDBRANCH   7  11
BRANCH   6  19
ATOM     19  N   UNL     1      34.284 -13.634 -21.308  0.00  0.00    -0.075 NA
BRANCH  19  20
ATOM     20  O   UNL     1      33.149 -13.794 -20.507  0.00  0.00    -0.294 OA
ATOM     21  H   UNL     1      32.442 -13.182 -20.569  0.00  0.00    +0.238 HD
ENDBRANCH  19  20
ENDBRANCH   6  19
BRANCH   2  22
ATOM     22  C   UNL     1      34.586 -17.936 -23.617  0.00  0.00    +0.128 C 
BRANCH  22  26
ATOM     23  F   UNL     1      32.212 -20.883 -20.564  0.00  0.00    -0.204 F 
ATOM     24  O   UNL     1      36.848 -18.313 -22.018  0.00  0.00    -0.448 OA
ATOM     25  O   UNL     1      37.831 -18.877 -19.901  0.00  0.00    -0.311 OA
ATOM     26  C   UNL     1      34.570 -18.802 -22.391  0.00  0.00    +0.034 C 
ATOM     27  C   UNL     1      35.715 -18.974 -21.613  0.00  0.00    +0.138 C 
ATOM     28  C   UNL     1      35.680 -19.772 -20.463  0.00  0.00    +0.043 C 
ATOM     29  C   UNL     1      33.387 -19.448 -22.034  0.00  0.00    +0.030 C 
ATOM     30  C   UNL     1      36.919 -19.943 -19.639  0.00  0.00    +0.176 C 
ATOM     31  C   UNL     1      34.492 -20.424 -20.118  0.00  0.00    +0.031 C 
ATOM     32  C   UNL     1      33.348 -20.261 -20.901  0.00  0.00    +0.140 C 
ATOM     33  C   UNL     1      38.021 -18.724 -21.306  0.00  0.00    +0.361 C 
ENDBRANCH  22  26
ENDBRANCH   2  22
TORSDOF 6
ENDMDL
MODEL 7
REMARK VINA RESULT:      -9.8     11.530     16.885
REMARK  Name = 45268539
REMARK  6 active torsions:
REMARK  status: ('A' for Active; 'I' for Inactive)
REMARK    1  A    between atoms: N_2  and  C_22
REMARK    2  A    between atoms: N_3  and  C_7
REMARK    3  A    between atoms: N_3  and  O_12
REMARK    4  A    between atoms: C_8  and  C_14
REMARK    5  A    between atoms: C_15  and  C_16
REMARK    6  A    between atoms: C_22  and  C_26
REMARK                            x       y       z     vdW  Elec       q    Type
REMARK                         _______ _______ _______ _____ _____    ______ ____
ROOT
ATOM      1  O   UNL     1      35.074  -8.147 -24.220  0.00  0.00    -0.273 OA
ATOM      2  N   UNL     1      33.507  -8.209 -22.434  0.00  0.00    -0.253 N 
ATOM      3  C   UNL     1      32.741  -9.243 -21.862  0.00  0.00    +0.052 C 
ATOM      4  C   UNL     1      32.990 -10.451 -22.513  0.00  0.00    +0.018 C 
ATOM      5  C   UNL     1      34.285  -8.688 -23.474  0.00  0.00    +0.252 C 
ATOM      6  C   UNL     1      33.964 -10.161 -23.547  0.00  0.00    +0.202 C 
ATOM      7  C   UNL     1      32.375 -11.634 -22.161  0.00  0.00    -0.001 C 
ATOM      8  C   UNL     1      31.844  -9.183 -20.811  0.00  0.00    +0.015 C 
ATOM      9  C   UNL     1      31.469 -11.583 -21.101  0.00  0.00    -0.000 C 
ATOM     10  C   UNL     1      31.206 -10.371 -20.433  0.00  0.00    +0.001 C 
ENDROOT
BRANCH   7  11
ATOM     11  C   UNL     1      32.629 -12.894 -22.835  0.00  0.00    -0.000 C 
ATOM     12  C   UNL     1      33.704 -13.694 -22.622  0.00  0.00    -0.000 C 
BRANCH  12  13
ATOM     13  C   UNL     1      33.954 -14.982 -23.294  0.00  0.00    -0.000 C 
ATOM     14  C   UNL     1      33.405 -15.229 -24.553  0.00  0.00    -0.000 C 
ATOM     15  C   UNL     1      34.739 -15.952 -22.672  0.00  0.00    -0.000 C 
ATOM     16  C   UNL     1      33.642 -16.449 -25.189  0.00  0.00    +0.000 C 
ATOM     17  C   UNL     1      34.976 -17.170 -23.308  0.00  0.00    +0.000 C 
ATOM     18  C   UNL     1      34.427 -17.419 -24.566  0.00  0.00    +0.000 C 
ENDBRANCH  12  13
ENDBRANCH   7  11
BRANCH   6  19
ATOM     19  N   UNL     1      34.493 -10.963 -24.401  0.00  0.00    -0.075 NA
BRANCH  19  20
ATOM     20  O   UNL     1      35.671 -10.384 -24.883  0.00  0.00    -0.294 OA
ATOM     21  H   UNL     1      35.965  -9.564 -24.538  0.00  0.00    +0.238 HD
ENDBRANCH  19  20
ENDBRANCH   6  19
BRANCH   2  22
ATOM     22  C   UNL     1      33.465  -6.842 -21.974  0.00  0.00    +0.128 C 
BRANCH  22  26
ATOM     23  F   UNL     1      34.128  -5.017 -26.432  0.00  0.00    -0.204 F 
ATOM     24  O   UNL     1      31.308  -5.081 -21.713  0.00  0.00    -0.448 OA
ATOM     25  O   UNL     1      30.183  -3.059 -22.352  0.00  0.00    -0.311 OA
ATOM     26  C   UNL     1      33.064  -5.893 -23.065  0.00  0.00    +0.034 C 
ATOM     27  C   UNL     1      31.982  -5.027 -22.908  0.00  0.00    +0.138 C 
ATOM     28  C   UNL     1      31.631  -4.135 -23.929  0.00  0.00    +0.043 C 
ATOM     29  C   UNL     1      33.789  -5.887 -24.257  0.00  0.00    +0.030 C 
ATOM     30  C   UNL     1      30.466  -3.211 -23.742  0.00  0.00    +0.176 C 
ATOM     31  C   UNL     1      32.356  -4.144 -25.125  0.00  0.00    +0.031 C 
ATOM     32  C   UNL     1      33.433  -5.016 -25.287  0.00  0.00    +0.140 C 
ATOM     33  C   UNL     1      30.086  -4.336 -21.724  0.00  0.00    +0.361 C 
ENDBRANCH  22  26
ENDBRANCH   2  22
TORSDOF 6
ENDMDL
MODEL 8
REMARK VINA RESULT:      -9.4      3.885      9.177
REMARK  Name = 45268539
REMARK  6 active torsions:
REMARK  status: ('A' for Active; 'I' for Inactive)
REMARK    1  A    between atoms: N_2  and  C_22
REMARK    2  A    between atoms: N_3  and  C_7
REMARK    3  A    between atoms: N_3  and  O_12
REMARK    4  A    between atoms: C_8  and  C_14
REMARK    5  A    between atoms: C_15  and  C_16
REMARK    6  A    between atoms: C_22  and  C_26
REMARK                            x       y       z     vdW  Elec       q    Type
REMARK                         _______ _______ _______ _____ _____    ______ ____
ROOT
ATOM      1  O   UNL     1      33.239 -20.255 -21.003  0.00  0.00    -0.273 OA
ATOM      2  N   UNL     1      35.333 -20.388 -19.886  0.00  0.00    -0.253 N 
ATOM      3  C   UNL     1      35.775 -21.096 -18.752  0.00  0.00    +0.052 C 
ATOM      4  C   UNL     1      34.735 -21.855 -18.215  0.00  0.00    +0.018 C 
ATOM      5  C   UNL     1      33.998 -20.648 -20.142  0.00  0.00    +0.252 C 
ATOM      6  C   UNL     1      33.580 -21.611 -19.057  0.00  0.00    +0.202 C 
ATOM      7  C   UNL     1      34.884 -22.649 -17.098  0.00  0.00    -0.001 C 
ATOM      8  C   UNL     1      37.029 -21.111 -18.169  0.00  0.00    +0.015 C 
ATOM      9  C   UNL     1      36.147 -22.670 -16.504  0.00  0.00    -0.000 C 
ATOM     10  C   UNL     1      37.207 -21.909 -17.033  0.00  0.00    +0.001 C 
ENDROOT
BRANCH   7  11
ATOM     11  C   UNL     1      33.805 -23.440 -16.534  0.00  0.00    -0.000 C 
ATOM     12  C   UNL     1      33.033 -23.073 -15.481  0.00  0.00    -0.000 C 
BRANCH  12  13
ATOM     13  C   UNL     1      31.927 -23.868 -14.919  0.00  0.00    -0.000 C 
ATOM     14  C   UNL     1      30.708 -23.940 -15.594  0.00  0.00    -0.000 C 
ATOM     15  C   UNL     1      32.099 -24.549 -13.714  0.00  0.00    -0.000 C 
ATOM     16  C   UNL     1      29.660 -24.693 -15.061  0.00  0.00    +0.000 C 
ATOM     17  C   UNL     1      31.052 -25.301 -13.183  0.00  0.00    +0.000 C 
ATOM     18  C   UNL     1      29.832 -25.373 -13.856  0.00  0.00    +0.000 C 
ENDBRANCH  12  13
ENDBRANCH   7  11
BRANCH   6  19
ATOM     19  N   UNL     1      32.392 -22.092 -18.951  0.00  0.00    -0.075 NA
BRANCH  19  20
ATOM     20  O   UNL     1      31.686 -21.329 -18.017  0.00  0.00    -0.294 OA
ATOM     21  H   UNL     1      30.823 -21.024 -18.218  0.00  0.00    +0.238 HD
ENDBRANCH  19  20
ENDBRANCH   6  19
BRANCH   2  22
ATOM     22  C   UNL     1      36.184 -19.515 -20.658  0.00  0.00    +0.128 C 
BRANCH  22  26
ATOM     23  F   UNL     1      34.555 -20.640 -25.100  0.00  0.00    -0.204 F 
ATOM     24  O   UNL     1      35.362 -16.890 -21.162  0.00  0.00    -0.448 OA
ATOM     25  O   UNL     1      34.826 -15.138 -22.713  0.00  0.00    -0.311 OA
ATOM     26  C   UNL     1      35.543 -19.106 -21.953  0.00  0.00    +0.034 C 
ATOM     27  C   UNL     1      35.141 -17.789 -22.176  0.00  0.00    +0.138 C 
ATOM     28  C   UNL     1      34.560 -17.420 -23.395  0.00  0.00    +0.043 C 
ATOM     29  C   UNL     1      35.345 -20.068 -22.944  0.00  0.00    +0.030 C 
ATOM     30  C   UNL     1      34.136 -16.000 -23.617  0.00  0.00    +0.176 C 
ATOM     31  C   UNL     1      34.355 -18.393 -24.378  0.00  0.00    +0.031 C 
ATOM     32  C   UNL     1      34.748 -19.713 -24.153  0.00  0.00    +0.140 C 
ATOM     33  C   UNL     1      34.717 -15.631 -21.380  0.00  0.00    +0.361 C 
ENDBRANCH  22  26
ENDBRANCH   2  22
TORSDOF 6
ENDMDL
MODEL 9
REMARK VINA RESULT:      -9.1     11.742     16.832
REMARK  Name = 45268539
REMARK  6 active torsions:
REMARK  status: ('A' for Active; 'I' for Inactive)
REMARK    1  A    between atoms: N_2  and  C_22
REMARK    2  A    between atoms: N_3  and  C_7
REMARK    3  A    between atoms: N_3  and  O_12
REMARK    4  A    between atoms: C_8  and  C_14
REMARK    5  A    between atoms: C_15  and  C_16
REMARK    6  A    between atoms: C_22  and  C_26
REMARK                            x       y       z     vdW  Elec       q    Type
REMARK                         _______ _______ _______ _____ _____    ______ ____
ROOT
ATOM      1  O   UNL     1      35.014  -8.021 -24.059  0.00  0.00    -0.273 OA
ATOM      2  N   UNL     1      33.585  -8.127 -22.162  0.00  0.00    -0.253 N 
ATOM      3  C   UNL     1      32.824  -9.163 -21.589  0.00  0.00    +0.052 C 
ATOM      4  C   UNL     1      32.974 -10.341 -22.322  0.00  0.00    +0.018 C 
ATOM      5  C   UNL     1      34.263  -8.574 -23.284  0.00  0.00    +0.252 C 
ATOM      6  C   UNL     1      33.878 -10.028 -23.411  0.00  0.00    +0.202 C 
ATOM      7  C   UNL     1      32.340 -11.519 -21.987  0.00  0.00    -0.001 C 
ATOM      8  C   UNL     1      32.012  -9.131 -20.471  0.00  0.00    +0.015 C 
ATOM      9  C   UNL     1      31.519 -11.495 -20.859  0.00  0.00    -0.000 C 
ATOM     10  C   UNL     1      31.356 -10.314 -20.108  0.00  0.00    +0.001 C 
ENDROOT
BRANCH   7  11
ATOM     11  C   UNL     1      32.491 -12.747 -22.746  0.00  0.00    -0.000 C 
ATOM     12  C   UNL     1      33.593 -13.538 -22.744  0.00  0.00    -0.000 C 
BRANCH  12  13
ATOM     13  C   UNL     1      33.741 -14.794 -23.501  0.00  0.00    -0.000 C 
ATOM     14  C   UNL     1      33.066 -14.963 -24.710  0.00  0.00    -0.000 C 
ATOM     15  C   UNL     1      34.557 -15.813 -23.009  0.00  0.00    -0.000 C 
ATOM     16  C   UNL     1      33.206 -16.153 -25.426  0.00  0.00    +0.000 C 
ATOM     17  C   UNL     1      34.696 -17.001 -23.725  0.00  0.00    +0.000 C 
ATOM     18  C   UNL     1      34.021 -17.172 -24.933  0.00  0.00    +0.000 C 
ENDBRANCH  12  13
ENDBRANCH   7  11
BRANCH   6  19
ATOM     19  N   UNL     1      34.308 -10.799 -24.346  0.00  0.00    -0.075 NA
BRANCH  19  20
ATOM     20  O   UNL     1      35.591 -10.380 -24.711  0.00  0.00    -0.294 OA
ATOM     21  H   UNL     1      36.204 -10.998 -25.060  0.00  0.00    +0.238 HD
ENDBRANCH  19  20
ENDBRANCH   6  19
BRANCH   2  22
ATOM     22  C   UNL     1      33.634  -6.788 -21.628  0.00  0.00    +0.128 C 
BRANCH  22  26
ATOM     23  F   UNL     1      29.271  -4.663 -21.316  0.00  0.00    -0.204 F 
ATOM     24  O   UNL     1      33.912  -5.558 -24.124  0.00  0.00    -0.448 OA
ATOM     25  O   UNL     1      32.929  -4.563 -26.075  0.00  0.00    -0.311 OA
ATOM     26  C   UNL     1      32.569  -5.909 -22.215  0.00  0.00    +0.034 C 
ATOM     27  C   UNL     1      32.736  -5.306 -23.462  0.00  0.00    +0.138 C 
ATOM     28  C   UNL     1      31.726  -4.501 -24.004  0.00  0.00    +0.043 C 
ATOM     29  C   UNL     1      31.396  -5.691 -21.493  0.00  0.00    +0.030 C 
ATOM     30  C   UNL     1      31.922  -3.863 -25.345  0.00  0.00    +0.176 C 
ATOM     31  C   UNL     1      30.558  -4.279 -23.267  0.00  0.00    +0.031 C 
ATOM     32  C   UNL     1      30.393  -4.874 -22.016  0.00  0.00    +0.140 C 
ATOM     33  C   UNL     1      34.097  -4.726 -25.274  0.00  0.00    +0.361 C 
ENDBRANCH  22  26
ENDBRANCH   2  22
TORSDOF 6
ENDMDL
