MODEL 1
REMARK VINA RESULT:     -12.5      0.000      0.000
REMARK  Name = 9808844
REMARK  5 active torsions:
REMARK  status: ('A' for Active; 'I' for Inactive)
REMARK    1  A    between atoms: N_2  and  C_13
REMARK    2  A    between atoms: C_8  and  O_19
REMARK    3  A    between atoms: O_19  and  C_20
REMARK    4  A    between atoms: C_20  and  C_22
REMARK    5  A    between atoms: C_25  and  C_29
REMARK                            x       y       z     vdW  Elec       q    Type
REMARK                         _______ _______ _______ _____ _____    ______ ____
ROOT
ATOM      1  O   UNL     1      35.477 -22.867 -16.915  0.00  0.00    -0.446 OA
ATOM      2  N   UNL     1      35.598 -19.806 -20.473  0.00  0.00    -0.296 N 
ATOM      3  N   UNL     1      33.579 -20.968 -19.942  0.00  0.00    -0.130 NA
ATOM      4  N   UNL     1      32.842 -21.871 -19.185  0.00  0.00    -0.106 NA
ATOM      5  C   UNL     1      35.494 -21.402 -18.634  0.00  0.00    +0.076 A 
ATOM      6  C   UNL     1      34.728 -22.296 -17.899  0.00  0.00    +0.202 A 
ATOM      7  C   UNL     1      34.884 -20.725 -19.686  0.00  0.00    +0.157 A 
ATOM      8  C   UNL     1      33.397 -22.545 -18.159  0.00  0.00    +0.279 A 
ATOM      9  C   UNL     1      36.789 -21.437 -18.055  0.00  0.00    +0.047 C 
ATOM     10  C   UNL     1      36.726 -22.339 -17.017  0.00  0.00    +0.180 C 
ATOM     11  H   UNL     1      36.539 -19.703 -20.203  0.00  0.00    +0.154 HD
ENDROOT
BRANCH   2  13
ATOM     12 CL   UNL     1      34.072 -16.424 -25.087  0.00  0.00    -0.082 Cl
ATOM     13  C   UNL     1      35.234 -19.000 -21.573  0.00  0.00    +0.049 C 
ATOM     14  C   UNL     1      34.773 -19.591 -22.748  0.00  0.00    +0.016 C 
ATOM     15  C   UNL     1      35.335 -17.611 -21.483  0.00  0.00    +0.016 C 
ATOM     16  C   UNL     1      34.414 -18.795 -23.835  0.00  0.00    +0.013 C 
ATOM     17  C   UNL     1      34.976 -16.815 -22.570  0.00  0.00    +0.013 C 
ATOM     18  C   UNL     1      34.515 -17.407 -23.745  0.00  0.00    +0.058 C 
ENDBRANCH   2  13
BRANCH   8  19
ATOM     19  O   UNL     1      32.634 -23.426 -17.439  0.00  0.00    -0.452 OA
BRANCH  19  20
ATOM     20  C   UNL     1      31.748 -22.867 -16.476  0.00  0.00    +0.234 C 
BRANCH  20  22
ATOM     21  N   UNL     1      32.181 -24.991 -12.778  0.00  0.00    -0.239 NA
ATOM     22  C   UNL     1      31.901 -23.611 -15.181  0.00  0.00    +0.024 C 
ATOM     23  C   UNL     1      33.094 -23.539 -14.482  0.00  0.00    +0.023 C 
ATOM     24  C   UNL     1      30.845 -24.366 -14.693  0.00  0.00    +0.020 C 
ATOM     25  C   UNL     1      33.183 -24.243 -13.292  0.00  0.00    +0.134 C 
ATOM     26  C   UNL     1      31.036 -25.034 -13.494  0.00  0.00    +0.099 C 
BRANCH  25  29
ATOM     27  O   UNL     1      34.500 -24.854 -11.450  0.00  0.00    -0.268 OA
ATOM     28  N   UNL     1      35.465 -23.443 -13.016  0.00  0.00    -0.298 N 
ATOM     29  C   UNL     1      34.407 -24.208 -12.510  0.00  0.00    +0.264 C 
ATOM     30  C   UNL     1      36.751 -23.329 -12.368  0.00  0.00    +0.111 C 
ATOM     31  H   UNL     1      35.325 -22.958 -13.861  0.00  0.00    +0.150 HD
ENDBRANCH  25  29
ENDBRANCH  20  22
ENDBRANCH  19  20
ENDBRANCH   8  19
TORSDOF 5
ENDMDL
MODEL 2
REMARK VINA RESULT:     -12.2      2.438      3.977
REMARK  Name = 9808844
REMARK  5 active torsions:
REMARK  status: ('A' for Active; 'I' for Inactive)
REMARK    1  A    between atoms: N_2  and  C_13
REMARK    2  A    between atoms: C_8  and  O_19
REMARK    3  A    between atoms: O_19  and  C_20
REMARK    4  A    between atoms: C_20  and  C_22
REMARK    5  A    between atoms: C_25  and  C_29
REMARK                            x       y       z     vdW  Elec       q    Type
REMARK                         _______ _______ _______ _____ _____    ______ ____
ROOT
ATOM      1  O   UNL     1      35.300 -22.765 -17.184  0.00  0.00    -0.446 OA
ATOM      2  N   UNL     1      35.479 -19.681 -20.719  0.00  0.00    -0.296 N 
ATOM      3  N   UNL     1      33.409 -20.710 -20.112  0.00  0.00    -0.130 NA
ATOM      4  N   UNL     1      32.646 -21.569 -19.331  0.00  0.00    -0.106 NA
ATOM      5  C   UNL     1      35.344 -21.286 -18.891  0.00  0.00    +0.076 A 
ATOM      6  C   UNL     1      34.551 -22.134 -18.130  0.00  0.00    +0.202 A 
ATOM      7  C   UNL     1      34.738 -20.559 -19.909  0.00  0.00    +0.157 A 
ATOM      8  C   UNL     1      33.197 -22.290 -18.335  0.00  0.00    +0.279 A 
ATOM      9  C   UNL     1      36.658 -21.414 -18.367  0.00  0.00    +0.047 C 
ATOM     10  C   UNL     1      36.576 -22.321 -17.335  0.00  0.00    +0.180 C 
ATOM     11  H   UNL     1      36.435 -19.644 -20.489  0.00  0.00    +0.154 HD
ENDROOT
BRANCH   2  13
ATOM     12 CL   UNL     1      33.994 -16.153 -25.237  0.00  0.00    -0.082 Cl
ATOM     13  C   UNL     1      35.125 -18.840 -21.796  0.00  0.00    +0.049 C 
ATOM     14  C   UNL     1      34.573 -19.386 -22.954  0.00  0.00    +0.016 C 
ATOM     15  C   UNL     1      35.327 -17.463 -21.701  0.00  0.00    +0.016 C 
ATOM     16  C   UNL     1      34.223 -18.555 -24.018  0.00  0.00    +0.013 C 
ATOM     17  C   UNL     1      34.977 -16.632 -22.765  0.00  0.00    +0.013 C 
ATOM     18  C   UNL     1      34.425 -17.179 -23.923  0.00  0.00    +0.058 C 
ENDBRANCH   2  13
BRANCH   8  19
ATOM     19  O   UNL     1      32.406 -23.125 -17.591  0.00  0.00    -0.452 OA
BRANCH  19  20
ATOM     20  C   UNL     1      32.230 -22.787 -16.220  0.00  0.00    +0.234 C 
BRANCH  20  22
ATOM     21  N   UNL     1      28.471 -24.343 -14.870  0.00  0.00    -0.239 NA
ATOM     22  C   UNL     1      30.913 -23.331 -15.747  0.00  0.00    +0.024 C 
ATOM     23  C   UNL     1      29.735 -22.700 -16.113  0.00  0.00    +0.023 C 
ATOM     24  C   UNL     1      30.884 -24.462 -14.947  0.00  0.00    +0.020 C 
ATOM     25  C   UNL     1      28.547 -23.243 -15.651  0.00  0.00    +0.134 C 
ATOM     26  C   UNL     1      29.644 -24.926 -14.537  0.00  0.00    +0.099 C 
BRANCH  25  29
ATOM     27  O   UNL     1      26.399 -22.455 -15.134  0.00  0.00    -0.268 OA
ATOM     28  N   UNL     1      27.107 -22.228 -17.330  0.00  0.00    -0.298 N 
ATOM     29  C   UNL     1      27.277 -22.629 -15.999  0.00  0.00    +0.264 C 
ATOM     30  C   UNL     1      25.912 -21.583 -17.825  0.00  0.00    +0.111 C 
ATOM     31  H   UNL     1      27.842 -22.395 -17.963  0.00  0.00    +0.150 HD
ENDBRANCH  25  29
ENDBRANCH  20  22
ENDBRANCH  19  20
ENDBRANCH   8  19
TORSDOF 5
ENDMDL
MODEL 3
REMARK VINA RESULT:     -12.0      2.335      3.669
REMARK  Name = 9808844
REMARK  5 active torsions:
REMARK  status: ('A' for Active; 'I' for Inactive)
REMARK    1  A    between atoms: N_2  and  C_13
REMARK    2  A    between atoms: C_8  and  O_19
REMARK    3  A    between atoms: O_19  and  C_20
REMARK    4  A    between atoms: C_20  and  C_22
REMARK    5  A    between atoms: C_25  and  C_29
REMARK                            x       y       z     vdW  Elec       q    Type
REMARK                         _______ _______ _______ _____ _____    ______ ____
ROOT
ATOM      1  O   UNL     1      35.458 -22.271 -18.144  0.00  0.00    -0.446 OA
ATOM      2  N   UNL     1      35.358 -19.047 -21.556  0.00  0.00    -0.296 N 
ATOM      3  N   UNL     1      33.341 -20.099 -20.822  0.00  0.00    -0.130 NA
ATOM      4  N   UNL     1      32.641 -20.988 -20.016  0.00  0.00    -0.106 NA
ATOM      5  C   UNL     1      35.368 -20.724 -19.788  0.00  0.00    +0.076 A 
ATOM      6  C   UNL     1      34.636 -21.602 -19.000  0.00  0.00    +0.202 A 
ATOM      7  C   UNL     1      34.683 -19.957 -20.724  0.00  0.00    +0.157 A 
ATOM      8  C   UNL     1      33.269 -21.749 -19.098  0.00  0.00    +0.279 A 
ATOM      9  C   UNL     1      36.719 -20.875 -19.380  0.00  0.00    +0.047 C 
ATOM     10  C   UNL     1      36.719 -21.823 -18.382  0.00  0.00    +0.180 C 
ATOM     11  H   UNL     1      36.330 -19.021 -21.404  0.00  0.00    +0.154 HD
ENDROOT
BRANCH   2  13
ATOM     12 CL   UNL     1      33.521 -15.340 -25.791  0.00  0.00    -0.082 Cl
ATOM     13  C   UNL     1      34.920 -18.164 -22.566  0.00  0.00    +0.049 C 
ATOM     14  C   UNL     1      34.287 -18.664 -23.703  0.00  0.00    +0.016 C 
ATOM     15  C   UNL     1      35.120 -16.790 -22.425  0.00  0.00    +0.016 C 
ATOM     16  C   UNL     1      33.855 -17.791 -24.701  0.00  0.00    +0.013 C 
ATOM     17  C   UNL     1      34.687 -15.917 -23.422  0.00  0.00    +0.013 C 
ATOM     18  C   UNL     1      34.054 -16.418 -24.560  0.00  0.00    +0.058 C 
ENDBRANCH   2  13
BRANCH   8  19
ATOM     19  O   UNL     1      32.539 -22.613 -18.325  0.00  0.00    -0.452 OA
BRANCH  19  20
ATOM     20  C   UNL     1      33.124 -23.020 -17.094  0.00  0.00    +0.234 C 
BRANCH  20  22
ATOM     21  N   UNL     1      30.035 -23.453 -14.153  0.00  0.00    -0.239 NA
ATOM     22  C   UNL     1      32.042 -23.171 -16.064  0.00  0.00    +0.024 C 
ATOM     23  C   UNL     1      30.746 -22.787 -16.366  0.00  0.00    +0.023 C 
ATOM     24  C   UNL     1      32.347 -23.694 -14.817  0.00  0.00    +0.020 C 
ATOM     25  C   UNL     1      29.784 -22.948 -15.382  0.00  0.00    +0.134 C 
ATOM     26  C   UNL     1      31.314 -23.813 -13.902  0.00  0.00    +0.099 C 
BRANCH  25  29
ATOM     27  O   UNL     1      27.684 -22.148 -14.710  0.00  0.00    -0.268 OA
ATOM     28  N   UNL     1      27.948 -22.666 -16.954  0.00  0.00    -0.298 N 
ATOM     29  C   UNL     1      28.406 -22.565 -15.634  0.00  0.00    +0.264 C 
ATOM     30  C   UNL     1      26.613 -22.301 -17.368  0.00  0.00    +0.111 C 
ATOM     31  H   UNL     1      28.571 -23.002 -17.638  0.00  0.00    +0.150 HD
ENDBRANCH  25  29
ENDBRANCH  20  22
ENDBRANCH  19  20
ENDBRANCH   8  19
TORSDOF 5
ENDMDL
MODEL 4
REMARK VINA RESULT:     -11.7      1.416      1.757
REMARK  Name = 9808844
REMARK  5 active torsions:
REMARK  status: ('A' for Active; 'I' for Inactive)
REMARK    1  A    between atoms: N_2  and  C_13
REMARK    2  A    between atoms: C_8  and  O_19
REMARK    3  A    between atoms: O_19  and  C_20
REMARK    4  A    between atoms: C_20  and  C_22
REMARK    5  A    between atoms: C_25  and  C_29
REMARK                            x       y       z     vdW  Elec       q    Type
REMARK                         _______ _______ _______ _____ _____    ______ ____
ROOT
ATOM      1  O   UNL     1      35.482 -22.485 -17.662  0.00  0.00    -0.446 OA
ATOM      2  N   UNL     1      35.398 -19.322 -21.130  0.00  0.00    -0.296 N 
ATOM      3  N   UNL     1      33.414 -20.509 -20.524  0.00  0.00    -0.130 NA
ATOM      4  N   UNL     1      32.723 -21.437 -19.754  0.00  0.00    -0.106 NA
ATOM      5  C   UNL     1      35.400 -20.971 -19.336  0.00  0.00    +0.076 A 
ATOM      6  C   UNL     1      34.678 -21.890 -18.586  0.00  0.00    +0.202 A 
ATOM      7  C   UNL     1      34.731 -20.268 -20.332  0.00  0.00    +0.157 A 
ATOM      8  C   UNL     1      33.336 -22.138 -18.780  0.00  0.00    +0.279 A 
ATOM      9  C   UNL     1      36.725 -21.016 -18.829  0.00  0.00    +0.047 C 
ATOM     10  C   UNL     1      36.721 -21.948 -17.817  0.00  0.00    +0.180 C 
ATOM     11  H   UNL     1      36.352 -19.222 -20.909  0.00  0.00    +0.154 HD
ENDROOT
BRANCH   2  13
ATOM     12 CL   UNL     1      33.610 -15.815 -25.553  0.00  0.00    -0.082 Cl
ATOM     13  C   UNL     1      34.972 -18.486 -22.184  0.00  0.00    +0.049 C 
ATOM     14  C   UNL     1      35.161 -17.107 -22.101  0.00  0.00    +0.016 C 
ATOM     15  C   UNL     1      34.362 -19.040 -23.310  0.00  0.00    +0.016 C 
ATOM     16  C   UNL     1      34.741 -16.281 -23.142  0.00  0.00    +0.013 C 
ATOM     17  C   UNL     1      33.941 -18.214 -24.352  0.00  0.00    +0.013 C 
ATOM     18  C   UNL     1      34.131 -16.835 -24.268  0.00  0.00    +0.058 C 
ENDBRANCH   2  13
BRANCH   8  19
ATOM     19  O   UNL     1      32.616 -23.043 -18.046  0.00  0.00    -0.452 OA
BRANCH  19  20
ATOM     20  C   UNL     1      31.978 -22.553 -16.872  0.00  0.00    +0.234 C 
BRANCH  20  22
ATOM     21  N   UNL     1      33.746 -24.413 -13.439  0.00  0.00    -0.239 NA
ATOM     22  C   UNL     1      32.598 -23.205 -15.670  0.00  0.00    +0.024 C 
ATOM     23  C   UNL     1      33.807 -23.869 -15.793  0.00  0.00    +0.023 C 
ATOM     24  C   UNL     1      31.955 -23.138 -14.444  0.00  0.00    +0.020 C 
ATOM     25  C   UNL     1      34.337 -24.452 -14.654  0.00  0.00    +0.134 C 
ATOM     26  C   UNL     1      32.568 -23.755 -13.365  0.00  0.00    +0.099 C 
BRANCH  25  29
ATOM     27  O   UNL     1      35.662 -26.313 -15.187  0.00  0.00    -0.268 OA
ATOM     28  N   UNL     1      36.736 -24.487 -14.246  0.00  0.00    -0.298 N 
ATOM     29  C   UNL     1      35.603 -25.163 -14.715  0.00  0.00    +0.264 C 
ATOM     30  C   UNL     1      38.067 -25.049 -14.263  0.00  0.00    +0.111 C 
ATOM     31  H   UNL     1      36.620 -23.578 -13.886  0.00  0.00    +0.150 HD
ENDBRANCH  25  29
ENDBRANCH  20  22
ENDBRANCH  19  20
ENDBRANCH   8  19
TORSDOF 5
ENDMDL
MODEL 5
REMARK VINA RESULT:     -11.2      1.401      3.322
REMARK  Name = 9808844
REMARK  5 active torsions:
REMARK  status: ('A' for Active; 'I' for Inactive)
REMARK    1  A    between atoms: N_2  and  C_13
REMARK    2  A    between atoms: C_8  and  O_19
REMARK    3  A    between atoms: O_19  and  C_20
REMARK    4  A    between atoms: C_20  and  C_22
REMARK    5  A    between atoms: C_25  and  C_29
REMARK                            x       y       z     vdW  Elec       q    Type
REMARK                         _______ _______ _______ _____ _____    ______ ____
ROOT
ATOM      1  O   UNL     1      34.618 -22.985 -17.412  0.00  0.00    -0.446 OA
ATOM      2  N   UNL     1      34.072 -20.002 -20.995  0.00  0.00    -0.296 N 
ATOM      3  N   UNL     1      36.178 -20.184 -19.879  0.00  0.00    -0.130 NA
ATOM      4  N   UNL     1      37.013 -20.726 -18.910  0.00  0.00    -0.106 NA
ATOM      5  C   UNL     1      34.396 -21.538 -19.132  0.00  0.00    +0.076 A 
ATOM      6  C   UNL     1      35.259 -22.058 -18.175  0.00  0.00    +0.202 A 
ATOM      7  C   UNL     1      34.888 -20.572 -20.002  0.00  0.00    +0.157 A 
ATOM      8  C   UNL     1      36.574 -21.664 -18.048  0.00  0.00    +0.279 A 
ATOM      9  C   UNL     1      33.155 -22.197 -18.929  0.00  0.00    +0.047 C 
ATOM     10  C   UNL     1      33.344 -23.064 -17.877  0.00  0.00    +0.180 C 
ATOM     11  H   UNL     1      33.153 -20.353 -20.999  0.00  0.00    +0.154 HD
ENDROOT
BRANCH   2  13
ATOM     12 CL   UNL     1      35.066 -15.912 -25.159  0.00  0.00    -0.082 Cl
ATOM     13  C   UNL     1      34.309 -19.027 -21.988  0.00  0.00    +0.049 C 
ATOM     14  C   UNL     1      33.967 -19.286 -23.314  0.00  0.00    +0.016 C 
ATOM     15  C   UNL     1      34.885 -17.805 -21.641  0.00  0.00    +0.016 C 
ATOM     16  C   UNL     1      34.200 -18.323 -24.295  0.00  0.00    +0.013 C 
ATOM     17  C   UNL     1      35.119 -16.842 -22.622  0.00  0.00    +0.013 C 
ATOM     18  C   UNL     1      34.777 -17.101 -23.949  0.00  0.00    +0.058 C 
ENDBRANCH   2  13
BRANCH   8  19
ATOM     19  O   UNL     1      37.431 -22.170 -17.108  0.00  0.00    -0.452 OA
BRANCH  19  20
ATOM     20  C   UNL     1      37.213 -21.769 -15.760  0.00  0.00    +0.234 C 
BRANCH  20  22
ATOM     21  N   UNL     1      36.532 -25.255 -13.361  0.00  0.00    -0.239 NA
ATOM     22  C   UNL     1      36.973 -22.990 -14.919  0.00  0.00    +0.024 C 
ATOM     23  C   UNL     1      35.750 -23.168 -14.296  0.00  0.00    +0.023 C 
ATOM     24  C   UNL     1      37.980 -23.931 -14.771  0.00  0.00    +0.020 C 
ATOM     25  C   UNL     1      35.579 -24.311 -13.532  0.00  0.00    +0.134 C 
ATOM     26  C   UNL     1      37.711 -25.040 -13.986  0.00  0.00    +0.099 C 
BRANCH  25  29
ATOM     27  O   UNL     1      34.254 -24.534 -11.611  0.00  0.00    -0.268 OA
ATOM     28  N   UNL     1      33.198 -24.797 -13.658  0.00  0.00    -0.298 N 
ATOM     29  C   UNL     1      34.319 -24.558 -12.853  0.00  0.00    +0.264 C 
ATOM     30  C   UNL     1      31.873 -25.035 -13.133  0.00  0.00    +0.111 C 
ATOM     31  H   UNL     1      33.319 -24.802 -14.635  0.00  0.00    +0.150 HD
ENDBRANCH  25  29
ENDBRANCH  20  22
ENDBRANCH  19  20
ENDBRANCH   8  19
TORSDOF 5
ENDMDL
MODEL 6
REMARK VINA RESULT:     -11.1      7.550     12.191
REMARK  Name = 9808844
REMARK  5 active torsions:
REMARK  status: ('A' for Active; 'I' for Inactive)
REMARK    1  A    between atoms: N_2  and  C_13
REMARK    2  A    between atoms: C_8  and  O_19
REMARK    3  A    between atoms: O_19  and  C_20
REMARK    4  A    between atoms: C_20  and  C_22
REMARK    5  A    between atoms: C_25  and  C_29
REMARK                            x       y       z     vdW  Elec       q    Type
REMARK                         _______ _______ _______ _____ _____    ______ ____
ROOT
ATOM      1  O   UNL     1      33.406 -13.864 -24.937  0.00  0.00    -0.446 OA
ATOM      2  N   UNL     1      34.929 -17.741 -22.771  0.00  0.00    -0.296 N 
ATOM      3  N   UNL     1      34.428 -15.769 -21.517  0.00  0.00    -0.130 NA
ATOM      4  N   UNL     1      34.006 -14.449 -21.418  0.00  0.00    -0.106 NA
ATOM      5  C   UNL     1      34.136 -15.709 -23.858  0.00  0.00    +0.076 A 
ATOM      6  C   UNL     1      33.720 -14.391 -23.722  0.00  0.00    +0.202 A 
ATOM      7  C   UNL     1      34.498 -16.404 -22.709  0.00  0.00    +0.157 A 
ATOM      8  C   UNL     1      33.648 -13.742 -22.508  0.00  0.00    +0.279 A 
ATOM      9  C   UNL     1      34.069 -15.992 -25.247  0.00  0.00    +0.047 C 
ATOM     10  C   UNL     1      33.620 -14.842 -25.856  0.00  0.00    +0.180 C 
ATOM     11  H   UNL     1      34.944 -18.108 -23.684  0.00  0.00    +0.154 HD
ENDROOT
BRANCH   2  13
ATOM     12 CL   UNL     1      36.671 -21.602 -18.635  0.00  0.00    -0.082 Cl
ATOM     13  C   UNL     1      35.345 -18.661 -21.785  0.00  0.00    +0.049 C 
ATOM     14  C   UNL     1      36.671 -18.670 -21.355  0.00  0.00    +0.016 C 
ATOM     15  C   UNL     1      34.428 -19.560 -21.241  0.00  0.00    +0.016 C 
ATOM     16  C   UNL     1      37.082 -19.580 -20.381  0.00  0.00    +0.013 C 
ATOM     17  C   UNL     1      34.838 -20.470 -20.267  0.00  0.00    +0.013 C 
ATOM     18  C   UNL     1      36.165 -20.479 -19.837  0.00  0.00    +0.058 C 
ENDBRANCH   2  13
BRANCH   8  19
ATOM     19  O   UNL     1      33.239 -12.442 -22.364  0.00  0.00    -0.452 OA
BRANCH  19  20
ATOM     20  C   UNL     1      31.916 -12.237 -21.881  0.00  0.00    +0.234 C 
BRANCH  20  22
ATOM     21  N   UNL     1      31.869  -8.762 -19.372  0.00  0.00    -0.239 NA
ATOM     22  C   UNL     1      31.900 -11.019 -21.003  0.00  0.00    +0.024 C 
ATOM     23  C   UNL     1      31.944  -9.758 -21.573  0.00  0.00    +0.023 C 
ATOM     24  C   UNL     1      31.841 -11.165 -19.625  0.00  0.00    +0.020 C 
ATOM     25  C   UNL     1      31.926  -8.667 -20.719  0.00  0.00    +0.134 C 
ATOM     26  C   UNL     1      31.828 -10.011 -18.859  0.00  0.00    +0.099 C 
BRANCH  25  29
ATOM     27  O   UNL     1      31.699  -6.340 -20.531  0.00  0.00    -0.268 OA
ATOM     28  N   UNL     1      32.348  -7.175 -22.595  0.00  0.00    -0.298 N 
ATOM     29  C   UNL     1      31.969  -7.317 -21.254  0.00  0.00    +0.264 C 
ATOM     30  C   UNL     1      32.462  -5.898 -23.263  0.00  0.00    +0.111 C 
ATOM     31  H   UNL     1      32.550  -7.989 -23.110  0.00  0.00    +0.150 HD
ENDBRANCH  25  29
ENDBRANCH  20  22
ENDBRANCH  19  20
ENDBRANCH   8  19
TORSDOF 5
ENDMDL
MODEL 7
REMARK VINA RESULT:     -11.0      7.715     13.010
REMARK  Name = 9808844
REMARK  5 active torsions:
REMARK  status: ('A' for Active; 'I' for Inactive)
REMARK    1  A    between atoms: N_2  and  C_13
REMARK    2  A    between atoms: C_8  and  O_19
REMARK    3  A    between atoms: O_19  and  C_20
REMARK    4  A    between atoms: C_20  and  C_22
REMARK    5  A    between atoms: C_25  and  C_29
REMARK                            x       y       z     vdW  Elec       q    Type
REMARK                         _______ _______ _______ _____ _____    ______ ____
ROOT
ATOM      1  O   UNL     1      33.320 -13.795 -25.202  0.00  0.00    -0.446 OA
ATOM      2  N   UNL     1      34.735 -17.663 -22.948  0.00  0.00    -0.296 N 
ATOM      3  N   UNL     1      34.605 -15.571 -21.801  0.00  0.00    -0.130 NA
ATOM      4  N   UNL     1      34.332 -14.209 -21.753  0.00  0.00    -0.106 NA
ATOM      5  C   UNL     1      34.005 -15.633 -24.082  0.00  0.00    +0.076 A 
ATOM      6  C   UNL     1      33.742 -14.272 -23.998  0.00  0.00    +0.202 A 
ATOM      7  C   UNL     1      34.449 -16.287 -22.938  0.00  0.00    +0.157 A 
ATOM      8  C   UNL     1      33.900 -13.541 -22.841  0.00  0.00    +0.279 A 
ATOM      9  C   UNL     1      33.721 -15.998 -25.424  0.00  0.00    +0.047 C 
ATOM     10  C   UNL     1      33.309 -14.849 -26.060  0.00  0.00    +0.180 C 
ATOM     11  H   UNL     1      34.589 -18.089 -23.824  0.00  0.00    +0.154 HD
ENDROOT
BRANCH   2  13
ATOM     12 CL   UNL     1      36.636 -21.409 -18.776  0.00  0.00    -0.082 Cl
ATOM     13  C   UNL     1      35.188 -18.556 -21.954  0.00  0.00    +0.049 C 
ATOM     14  C   UNL     1      34.306 -19.478 -21.391  0.00  0.00    +0.016 C 
ATOM     15  C   UNL     1      36.518 -18.516 -21.535  0.00  0.00    +0.016 C 
ATOM     16  C   UNL     1      34.754 -20.361 -20.409  0.00  0.00    +0.013 C 
ATOM     17  C   UNL     1      36.965 -19.399 -20.552  0.00  0.00    +0.013 C 
ATOM     18  C   UNL     1      36.083 -20.321 -19.990  0.00  0.00    +0.058 C 
ENDBRANCH   2  13
BRANCH   8  19
ATOM     19  O   UNL     1      33.644 -12.198 -22.749  0.00  0.00    -0.452 OA
BRANCH  19  20
ATOM     20  C   UNL     1      33.914 -11.414 -23.906  0.00  0.00    +0.234 C 
BRANCH  20  22
ATOM     21  N   UNL     1      33.980  -7.272 -22.805  0.00  0.00    -0.239 NA
ATOM     22  C   UNL     1      33.937  -9.964 -23.520  0.00  0.00    +0.024 C 
ATOM     23  C   UNL     1      32.895  -9.432 -22.778  0.00  0.00    +0.023 C 
ATOM     24  C   UNL     1      35.000  -9.165 -23.910  0.00  0.00    +0.020 C 
ATOM     25  C   UNL     1      32.964  -8.088 -22.447  0.00  0.00    +0.134 C 
ATOM     26  C   UNL     1      34.975  -7.833 -23.529  0.00  0.00    +0.099 C 
BRANCH  25  29
ATOM     27  O   UNL     1      31.531  -7.974 -20.594  0.00  0.00    -0.268 OA
ATOM     28  N   UNL     1      31.353  -6.285 -22.173  0.00  0.00    -0.298 N 
ATOM     29  C   UNL     1      31.905  -7.470 -21.669  0.00  0.00    +0.264 C 
ATOM     30  C   UNL     1      30.311  -5.540 -21.504  0.00  0.00    +0.111 C 
ATOM     31  H   UNL     1      31.696  -5.940 -23.029  0.00  0.00    +0.150 HD
ENDBRANCH  25  29
ENDBRANCH  20  22
ENDBRANCH  19  20
ENDBRANCH   8  19
TORSDOF 5
ENDMDL
MODEL 8
REMARK VINA RESULT:     -11.0      2.280      3.580
REMARK  Name = 9808844
REMARK  5 active torsions:
REMARK  status: ('A' for Active; 'I' for Inactive)
REMARK    1  A    between atoms: N_2  and  C_13
REMARK    2  A    between atoms: C_8  and  O_19
REMARK    3  A    between atoms: O_19  and  C_20
REMARK    4  A    between atoms: C_20  and  C_22
REMARK    5  A    between atoms: C_25  and  C_29
REMARK                            x       y       z     vdW  Elec       q    Type
REMARK                         _______ _______ _______ _____ _____    ______ ____
ROOT
ATOM      1  O   UNL     1      34.589 -22.967 -17.426  0.00  0.00    -0.446 OA
ATOM      2  N   UNL     1      34.071 -20.003 -21.030  0.00  0.00    -0.296 N 
ATOM      3  N   UNL     1      36.153 -20.143 -19.866  0.00  0.00    -0.130 NA
ATOM      4  N   UNL     1      36.976 -20.667 -18.876  0.00  0.00    -0.106 NA
ATOM      5  C   UNL     1      34.380 -21.528 -19.155  0.00  0.00    +0.076 A 
ATOM      6  C   UNL     1      35.229 -22.029 -18.178  0.00  0.00    +0.202 A 
ATOM      7  C   UNL     1      34.874 -20.555 -20.018  0.00  0.00    +0.157 A 
ATOM      8  C   UNL     1      36.534 -21.611 -18.022  0.00  0.00    +0.279 A 
ATOM      9  C   UNL     1      33.147 -22.209 -18.980  0.00  0.00    +0.047 C 
ATOM     10  C   UNL     1      33.327 -23.070 -17.920  0.00  0.00    +0.180 C 
ATOM     11  H   UNL     1      33.158 -20.371 -21.054  0.00  0.00    +0.154 HD
ENDROOT
BRANCH   2  13
ATOM     12 CL   UNL     1      35.085 -15.906 -25.183  0.00  0.00    -0.082 Cl
ATOM     13  C   UNL     1      34.312 -19.026 -22.020  0.00  0.00    +0.049 C 
ATOM     14  C   UNL     1      33.986 -19.287 -23.351  0.00  0.00    +0.016 C 
ATOM     15  C   UNL     1      34.876 -17.801 -21.667  0.00  0.00    +0.016 C 
ATOM     16  C   UNL     1      34.225 -18.323 -24.329  0.00  0.00    +0.013 C 
ATOM     17  C   UNL     1      35.115 -16.836 -22.645  0.00  0.00    +0.013 C 
ATOM     18  C   UNL     1      34.789 -17.097 -23.976  0.00  0.00    +0.058 C 
ENDBRANCH   2  13
BRANCH   8  19
ATOM     19  O   UNL     1      37.379 -22.099 -17.061  0.00  0.00    -0.452 OA
BRANCH  19  20
ATOM     20  C   UNL     1      37.119 -21.703 -15.719  0.00  0.00    +0.234 C 
BRANCH  20  22
ATOM     21  N   UNL     1      36.462 -25.201 -13.330  0.00  0.00    -0.239 NA
ATOM     22  C   UNL     1      36.890 -22.928 -14.883  0.00  0.00    +0.024 C 
ATOM     23  C   UNL     1      37.827 -23.948 -14.882  0.00  0.00    +0.023 C 
ATOM     24  C   UNL     1      35.739 -23.032 -14.116  0.00  0.00    +0.020 C 
ATOM     25  C   UNL     1      37.569 -25.057 -14.093  0.00  0.00    +0.134 C 
ATOM     26  C   UNL     1      35.574 -24.183 -13.362  0.00  0.00    +0.099 C 
BRANCH  25  29
ATOM     27  O   UNL     1      38.151 -27.315 -14.338  0.00  0.00    -0.268 OA
ATOM     28  N   UNL     1      39.832 -25.855 -13.692  0.00  0.00    -0.298 N 
ATOM     29  C   UNL     1      38.512 -26.160 -14.048  0.00  0.00    +0.264 C 
ATOM     30  C   UNL     1      40.890 -26.838 -13.625  0.00  0.00    +0.111 C 
ATOM     31  H   UNL     1      40.051 -24.920 -13.475  0.00  0.00    +0.150 HD
ENDBRANCH  25  29
ENDBRANCH  20  22
ENDBRANCH  19  20
ENDBRANCH   8  19
TORSDOF 5
ENDMDL
MODEL 9
REMARK VINA RESULT:     -10.8      5.398      8.724
REMARK  Name = 9808844
REMARK  5 active torsions:
REMARK  status: ('A' for Active; 'I' for Inactive)
REMARK    1  A    between atoms: N_2  and  C_13
REMARK    2  A    between atoms: C_8  and  O_19
REMARK    3  A    between atoms: O_19  and  C_20
REMARK    4  A    between atoms: C_20  and  C_22
REMARK    5  A    between atoms: C_25  and  C_29
REMARK                            x       y       z     vdW  Elec       q    Type
REMARK                         _______ _______ _______ _____ _____    ______ ____
ROOT
ATOM      1  O   UNL     1      34.179 -16.221 -24.934  0.00  0.00    -0.446 OA
ATOM      2  N   UNL     1      32.643 -12.225 -23.008  0.00  0.00    -0.296 N 
ATOM      3  N   UNL     1      33.885 -13.799 -21.707  0.00  0.00    -0.130 NA
ATOM      4  N   UNL     1      34.573 -14.997 -21.553  0.00  0.00    -0.106 NA
ATOM      5  C   UNL     1      33.458 -14.310 -23.971  0.00  0.00    +0.076 A 
ATOM      6  C   UNL     1      34.151 -15.498 -23.781  0.00  0.00    +0.202 A 
ATOM      7  C   UNL     1      33.331 -13.445 -22.889  0.00  0.00    +0.157 A 
ATOM      8  C   UNL     1      34.717 -15.860 -22.577  0.00  0.00    +0.279 A 
ATOM      9  C   UNL     1      33.042 -14.319 -25.328  0.00  0.00    +0.047 C 
ATOM     10  C   UNL     1      33.505 -15.498 -25.867  0.00  0.00    +0.180 C 
ATOM     11  H   UNL     1      32.278 -12.065 -23.908  0.00  0.00    +0.154 HD
ENDROOT
BRANCH   2  13
ATOM     12 CL   UNL     1      31.504  -7.859 -19.174  0.00  0.00    -0.082 Cl
ATOM     13  C   UNL     1      32.371 -11.185 -22.094  0.00  0.00    +0.049 C 
ATOM     14  C   UNL     1      32.697  -9.869 -22.420  0.00  0.00    +0.016 C 
ATOM     15  C   UNL     1      31.776 -11.473 -20.866  0.00  0.00    +0.016 C 
ATOM     16  C   UNL     1      32.429  -8.840 -21.517  0.00  0.00    +0.013 C 
ATOM     17  C   UNL     1      31.508 -10.445 -19.963  0.00  0.00    +0.013 C 
ATOM     18  C   UNL     1      31.834  -9.129 -20.289  0.00  0.00    +0.058 C 
ENDBRANCH   2  13
BRANCH   8  19
ATOM     19  O   UNL     1      35.401 -17.031 -22.381  0.00  0.00    -0.452 OA
BRANCH  19  20
ATOM     20  C   UNL     1      34.647 -18.235 -22.461  0.00  0.00    +0.234 C 
BRANCH  20  22
ATOM     21  N   UNL     1      35.937 -20.897 -19.359  0.00  0.00    -0.239 NA
ATOM     22  C   UNL     1      35.098 -19.167 -21.374  0.00  0.00    +0.024 C 
ATOM     23  C   UNL     1      34.183 -20.010 -20.766  0.00  0.00    +0.023 C 
ATOM     24  C   UNL     1      36.429 -19.178 -20.986  0.00  0.00    +0.020 C 
ATOM     25  C   UNL     1      34.650 -20.852 -19.769  0.00  0.00    +0.134 C 
ATOM     26  C   UNL     1      36.796 -20.057 -19.979  0.00  0.00    +0.099 C 
BRANCH  25  29
ATOM     27  O   UNL     1      32.621 -22.010 -19.572  0.00  0.00    -0.268 OA
ATOM     28  N   UNL     1      34.196 -22.349 -17.905  0.00  0.00    -0.298 N 
ATOM     29  C   UNL     1      33.742 -21.761 -19.092  0.00  0.00    +0.264 C 
ATOM     30  C   UNL     1      33.420 -23.291 -17.131  0.00  0.00    +0.111 C 
ATOM     31  H   UNL     1      35.094 -22.109 -17.581  0.00  0.00    +0.150 HD
ENDBRANCH  25  29
ENDBRANCH  20  22
ENDBRANCH  19  20
ENDBRANCH   8  19
TORSDOF 5
ENDMDL
