MODEL 1
REMARK VINA RESULT:     -10.8      0.000      0.000
REMARK  Name = 21302490
REMARK  5 active torsions:
REMARK  status: ('A' for Active; 'I' for Inactive)
REMARK    1  A    between atoms: N_2  and  C_19
REMARK    2  A    between atoms: C_19  and  C_20
REMARK    3  A    between atoms: C_20  and  C_21
REMARK    4  A    between atoms: C_21  and  C_23
REMARK    5  A    between atoms: C_23  and  C_25
REMARK                            x       y       z     vdW  Elec       q    Type
REMARK                         _______ _______ _______ _____ _____    ______ ____
ROOT
ATOM      1  N   UNL     1      32.112  -6.257 -22.155  0.00  0.00    -0.307 N 
ATOM      2  N   UNL     1      33.041  -9.965 -22.201  0.00  0.00    +0.387 N 
ATOM      3  N   UNL     1      31.341  -3.928 -23.624  0.00  0.00    -0.303 N 
ATOM      4  C   UNL     1      33.076  -7.122 -21.462  0.00  0.00    +0.073 C 
ATOM      5  C   UNL     1      33.998  -7.700 -22.585  0.00  0.00    +0.021 C 
ATOM      6  C   UNL     1      32.413  -8.200 -20.612  0.00  0.00    -0.003 C 
ATOM      7  C   UNL     1      33.476  -9.001 -23.216  0.00  0.00    -0.071 C 
ATOM      8  C   UNL     1      33.925  -6.580 -23.583  0.00  0.00    -0.008 C 
ATOM      9  C   UNL     1      32.808  -5.794 -23.289  0.00  0.00    +0.057 C 
ATOM     10  C   UNL     1      31.932  -9.403 -21.418  0.00  0.00    -0.076 C 
ATOM     11  C   UNL     1      31.283  -5.255 -21.517  0.00  0.00    +0.112 C 
ATOM     12  C   UNL     1      32.442  -4.672 -24.030  0.00  0.00    +0.061 C 
ATOM     13  C   UNL     1      30.471  -4.510 -22.589  0.00  0.00    +0.112 C 
ATOM     14  C   UNL     1      34.728  -6.284 -24.664  0.00  0.00    -0.003 C 
ATOM     15  C   UNL     1      33.269  -4.374 -25.121  0.00  0.00    +0.016 C 
ATOM     16  C   UNL     1      34.392  -5.169 -25.435  0.00  0.00    +0.001 C 
ATOM     17  C   UNL     1      30.835  -2.831 -24.428  0.00  0.00    +0.112 C 
ATOM     18  H   UNL     1      33.822 -10.161 -21.574  0.00  0.00    -0.080 HD
ENDROOT
BRANCH   2  19
ATOM     19  C   UNL     1      32.629 -11.219 -22.835  0.00  0.00    -0.077 C 
BRANCH  19  20
ATOM     20  C   UNL     1      33.810 -11.850 -23.575  0.00  0.00    -0.015 C 
BRANCH  20  21
ATOM     21  C   UNL     1      34.077 -13.290 -23.125  0.00  0.00    +0.067 C 
BRANCH  21  23
ATOM     22  O   UNL     1      33.209 -14.025 -25.253  0.00  0.00    -0.291 OA
ATOM     23  C   UNL     1      33.732 -14.327 -24.184  0.00  0.00    +0.173 C 
BRANCH  23  25
ATOM     24  F   UNL     1      34.989 -19.712 -23.180  0.00  0.00    -0.204 F 
ATOM     25  C   UNL     1      34.065 -15.757 -23.917  0.00  0.00    +0.035 C 
ATOM     26  C   UNL     1      33.660 -16.745 -24.813  0.00  0.00    +0.005 C 
ATOM     27  C   UNL     1      34.782 -16.104 -22.772  0.00  0.00    +0.005 C 
ATOM     28  C   UNL     1      33.972 -18.082 -24.565  0.00  0.00    +0.030 C 
ATOM     29  C   UNL     1      35.094 -17.440 -22.523  0.00  0.00    +0.030 C 
ATOM     30  C   UNL     1      34.690 -18.429 -23.419  0.00  0.00    +0.140 C 
ENDBRANCH  23  25
ENDBRANCH  21  23
ENDBRANCH  20  21
ENDBRANCH  19  20
ENDBRANCH   2  19
TORSDOF 5
ENDMDL
MODEL 2
REMARK VINA RESULT:     -10.5      3.257      5.949
REMARK  Name = 21302490
REMARK  5 active torsions:
REMARK  status: ('A' for Active; 'I' for Inactive)
REMARK    1  A    between atoms: N_2  and  C_19
REMARK    2  A    between atoms: C_19  and  C_20
REMARK    3  A    between atoms: C_20  and  C_21
REMARK    4  A    between atoms: C_21  and  C_23
REMARK    5  A    between atoms: C_23  and  C_25
REMARK                            x       y       z     vdW  Elec       q    Type
REMARK                         _______ _______ _______ _____ _____    ______ ____
ROOT
ATOM      1  N   UNL     1      33.388 -11.284 -23.210  0.00  0.00    -0.307 N 
ATOM      2  N   UNL     1      33.780 -14.896 -22.022  0.00  0.00    +0.387 N 
ATOM      3  N   UNL     1      33.473  -8.496 -22.577  0.00  0.00    -0.303 N 
ATOM      4  C   UNL     1      32.709 -12.563 -23.450  0.00  0.00    +0.073 C 
ATOM      5  C   UNL     1      32.157 -13.009 -22.056  0.00  0.00    +0.021 C 
ATOM      6  C   UNL     1      33.606 -13.606 -24.106  0.00  0.00    -0.003 C 
ATOM      7  C   UNL     1      33.151 -13.838 -21.226  0.00  0.00    -0.071 C 
ATOM      8  C   UNL     1      31.949 -11.666 -21.417  0.00  0.00    -0.008 C 
ATOM      9  C   UNL     1      32.698 -10.718 -22.120  0.00  0.00    +0.057 C 
ATOM     10  C   UNL     1      34.546 -14.304 -23.128  0.00  0.00    -0.076 C 
ATOM     11  C   UNL     1      33.759 -10.331 -24.236  0.00  0.00    +0.112 C 
ATOM     12  C   UNL     1      32.737  -9.367 -21.782  0.00  0.00    +0.061 C 
ATOM     13  C   UNL     1      34.376  -9.087 -23.576  0.00  0.00    +0.112 C 
ATOM     14  C   UNL     1      31.210 -11.300 -20.312  0.00  0.00    -0.003 C 
ATOM     15  C   UNL     1      31.975  -9.002 -20.664  0.00  0.00    +0.016 C 
ATOM     16  C   UNL     1      31.226  -9.954 -19.939  0.00  0.00    +0.001 C 
ATOM     17  C   UNL     1      33.657  -7.106 -22.201  0.00  0.00    +0.112 C 
ATOM     18  H   UNL     1      33.052 -15.497 -22.410  0.00  0.00    -0.080 HD
ENDROOT
BRANCH   2  19
ATOM     19  C   UNL     1      34.655 -15.713 -21.180  0.00  0.00    -0.077 C 
BRANCH  19  20
ATOM     20  C   UNL     1      35.309 -16.819 -22.011  0.00  0.00    -0.015 C 
BRANCH  20  21
ATOM     21  C   UNL     1      35.630 -18.062 -21.177  0.00  0.00    +0.067 C 
BRANCH  21  23
ATOM     22  O   UNL     1      34.132 -19.370 -22.544  0.00  0.00    -0.291 OA
ATOM     23  C   UNL     1      34.709 -19.238 -21.468  0.00  0.00    +0.173 C 
BRANCH  23  25
ATOM     24  F   UNL     1      34.003 -23.152 -17.496  0.00  0.00    -0.204 F 
ATOM     25  C   UNL     1      34.521 -20.276 -20.412  0.00  0.00    +0.035 C 
ATOM     26  C   UNL     1      33.236 -20.626 -20.000  0.00  0.00    +0.005 C 
ATOM     27  C   UNL     1      35.631 -20.897 -19.841  0.00  0.00    +0.005 C 
ATOM     28  C   UNL     1      33.061 -21.598 -19.014  0.00  0.00    +0.030 C 
ATOM     29  C   UNL     1      35.457 -21.868 -18.855  0.00  0.00    +0.030 C 
ATOM     30  C   UNL     1      34.172 -22.219 -18.443  0.00  0.00    +0.140 C 
ENDBRANCH  23  25
ENDBRANCH  21  23
ENDBRANCH  20  21
ENDBRANCH  19  20
ENDBRANCH   2  19
TORSDOF 5
ENDMDL
MODEL 3
REMARK VINA RESULT:     -10.2      2.367      2.990
REMARK  Name = 21302490
REMARK  5 active torsions:
REMARK  status: ('A' for Active; 'I' for Inactive)
REMARK    1  A    between atoms: N_2  and  C_19
REMARK    2  A    between atoms: C_19  and  C_20
REMARK    3  A    between atoms: C_20  and  C_21
REMARK    4  A    between atoms: C_21  and  C_23
REMARK    5  A    between atoms: C_23  and  C_25
REMARK                            x       y       z     vdW  Elec       q    Type
REMARK                         _______ _______ _______ _____ _____    ______ ____
ROOT
ATOM      1  N   UNL     1      32.013  -5.467 -22.601  0.00  0.00    -0.307 N 
ATOM      2  N   UNL     1      32.318  -9.109 -21.478  0.00  0.00    +0.387 N 
ATOM      3  N   UNL     1      31.845  -3.597 -24.758  0.00  0.00    -0.303 N 
ATOM      4  C   UNL     1      32.716  -6.199 -21.540  0.00  0.00    +0.073 C 
ATOM      5  C   UNL     1      33.678  -7.185 -22.280  0.00  0.00    +0.021 C 
ATOM      6  C   UNL     1      31.773  -6.895 -20.564  0.00  0.00    -0.003 C 
ATOM      7  C   UNL     1      33.042  -8.542 -22.620  0.00  0.00    -0.071 C 
ATOM      8  C   UNL     1      33.929  -6.405 -23.539  0.00  0.00    -0.008 C 
ATOM      9  C   UNL     1      32.926  -5.441 -23.674  0.00  0.00    +0.057 C 
ATOM     10  C   UNL     1      31.218  -8.216 -21.088  0.00  0.00    -0.076 C 
ATOM     11  C   UNL     1      31.278  -4.232 -22.418  0.00  0.00    +0.112 C 
ATOM     12  C   UNL     1      32.855  -4.551 -24.743  0.00  0.00    +0.061 C 
ATOM     13  C   UNL     1      30.757  -3.743 -23.779  0.00  0.00    +0.112 C 
ATOM     14  C   UNL     1      34.912  -6.535 -24.497  0.00  0.00    -0.003 C 
ATOM     15  C   UNL     1      33.864  -4.684 -25.707  0.00  0.00    +0.016 C 
ATOM     16  C   UNL     1      34.874  -5.663 -25.587  0.00  0.00    +0.001 C 
ATOM     17  C   UNL     1      31.643  -2.731 -25.905  0.00  0.00    +0.112 C 
ATOM     18  H   UNL     1      32.962  -9.203 -20.692  0.00  0.00    -0.080 HD
ENDROOT
BRANCH   2  19
ATOM     19  C   UNL     1      31.799 -10.436 -21.814  0.00  0.00    -0.077 C 
BRANCH  19  20
ATOM     20  C   UNL     1      32.039 -11.407 -20.656  0.00  0.00    -0.015 C 
BRANCH  20  21
ATOM     21  C   UNL     1      31.958 -12.871 -21.098  0.00  0.00    +0.067 C 
BRANCH  21  23
ATOM     22  O   UNL     1      34.156 -13.865 -21.062  0.00  0.00    -0.291 OA
ATOM     23  C   UNL     1      33.245 -13.383 -21.729  0.00  0.00    +0.173 C 
BRANCH  23  25
ATOM     24  F   UNL     1      33.793 -13.126 -27.316  0.00  0.00    -0.204 F 
ATOM     25  C   UNL     1      33.389 -13.314 -23.212  0.00  0.00    +0.035 C 
ATOM     26  C   UNL     1      33.780 -12.121 -23.820  0.00  0.00    +0.005 C 
ATOM     27  C   UNL     1      33.135 -14.443 -23.990  0.00  0.00    +0.005 C 
ATOM     28  C   UNL     1      33.917 -12.057 -25.207  0.00  0.00    +0.030 C 
ATOM     29  C   UNL     1      33.271 -14.380 -25.377  0.00  0.00    +0.030 C 
ATOM     30  C   UNL     1      33.662 -13.187 -25.985  0.00  0.00    +0.140 C 
ENDBRANCH  23  25
ENDBRANCH  21  23
ENDBRANCH  20  21
ENDBRANCH  19  20
ENDBRANCH   2  19
TORSDOF 5
ENDMDL
MODEL 4
REMARK VINA RESULT:     -10.0      4.124     10.351
REMARK  Name = 21302490
REMARK  5 active torsions:
REMARK  status: ('A' for Active; 'I' for Inactive)
REMARK    1  A    between atoms: N_2  and  C_19
REMARK    2  A    between atoms: C_19  and  C_20
REMARK    3  A    between atoms: C_20  and  C_21
REMARK    4  A    between atoms: C_21  and  C_23
REMARK    5  A    between atoms: C_23  and  C_25
REMARK                            x       y       z     vdW  Elec       q    Type
REMARK                         _______ _______ _______ _____ _____    ______ ____
ROOT
ATOM      1  N   UNL     1      33.880 -15.394 -23.728  0.00  0.00    -0.307 N 
ATOM      2  N   UNL     1      32.794 -12.819 -21.119  0.00  0.00    +0.387 N 
ATOM      3  N   UNL     1      33.962 -18.132 -24.550  0.00  0.00    -0.303 N 
ATOM      4  C   UNL     1      34.446 -14.177 -23.133  0.00  0.00    +0.073 C 
ATOM      5  C   UNL     1      34.580 -14.482 -21.605  0.00  0.00    +0.021 C 
ATOM      6  C   UNL     1      33.625 -12.926 -23.428  0.00  0.00    -0.003 C 
ATOM      7  C   UNL     1      33.324 -14.145 -20.787  0.00  0.00    -0.071 C 
ATOM      8  C   UNL     1      34.777 -15.971 -21.655  0.00  0.00    -0.008 C 
ATOM      9  C   UNL     1      34.340 -16.436 -22.898  0.00  0.00    +0.057 C 
ATOM     10  C   UNL     1      32.398 -12.777 -22.533  0.00  0.00    -0.076 C 
ATOM     11  C   UNL     1      33.886 -15.714 -25.141  0.00  0.00    +0.112 C 
ATOM     12  C   UNL     1      34.373 -17.779 -23.271  0.00  0.00    +0.061 C 
ATOM     13  C   UNL     1      33.272 -17.108 -25.350  0.00  0.00    +0.112 C 
ATOM     14  C   UNL     1      35.258 -16.847 -20.705  0.00  0.00    -0.003 C 
ATOM     15  C   UNL     1      34.873 -18.661 -22.303  0.00  0.00    +0.016 C 
ATOM     16  C   UNL     1      35.304 -18.202 -21.040  0.00  0.00    +0.001 C 
ATOM     17  C   UNL     1      33.852 -19.523 -24.948  0.00  0.00    +0.112 C 
ATOM     18  H   UNL     1      33.521 -12.122 -20.959  0.00  0.00    -0.080 HD
ENDROOT
BRANCH   2  19
ATOM     19  C   UNL     1      31.650 -12.501 -20.263  0.00  0.00    -0.077 C 
BRANCH  19  20
ATOM     20  C   UNL     1      31.813 -11.104 -19.660  0.00  0.00    -0.015 C 
BRANCH  20  21
ATOM     21  C   UNL     1      31.480  -9.995 -20.662  0.00  0.00    +0.067 C 
BRANCH  21  23
ATOM     22  O   UNL     1      32.417  -8.372 -19.141  0.00  0.00    -0.291 OA
ATOM     23  C   UNL     1      32.076  -8.645 -20.290  0.00  0.00    +0.173 C 
BRANCH  23  25
ATOM     24  F   UNL     1      32.818  -4.818 -24.338  0.00  0.00    -0.204 F 
ATOM     25  C   UNL     1      32.273  -7.630 -21.365  0.00  0.00    +0.035 C 
ATOM     26  C   UNL     1      31.222  -6.789 -21.730  0.00  0.00    +0.005 C 
ATOM     27  C   UNL     1      33.508  -7.521 -22.004  0.00  0.00    +0.005 C 
ATOM     28  C   UNL     1      31.406  -5.839 -22.735  0.00  0.00    +0.030 C 
ATOM     29  C   UNL     1      33.692  -6.572 -23.009  0.00  0.00    +0.030 C 
ATOM     30  C   UNL     1      32.641  -5.731 -23.373  0.00  0.00    +0.140 C 
ENDBRANCH  23  25
ENDBRANCH  21  23
ENDBRANCH  20  21
ENDBRANCH  19  20
ENDBRANCH   2  19
TORSDOF 5
ENDMDL
MODEL 5
REMARK VINA RESULT:      -9.7      3.857      8.826
REMARK  Name = 21302490
REMARK  5 active torsions:
REMARK  status: ('A' for Active; 'I' for Inactive)
REMARK    1  A    between atoms: N_2  and  C_19
REMARK    2  A    between atoms: C_19  and  C_20
REMARK    3  A    between atoms: C_20  and  C_21
REMARK    4  A    between atoms: C_21  and  C_23
REMARK    5  A    between atoms: C_23  and  C_25
REMARK                            x       y       z     vdW  Elec       q    Type
REMARK                         _______ _______ _______ _____ _____    ______ ____
ROOT
ATOM      1  N   UNL     1      32.245 -12.167 -20.948  0.00  0.00    -0.307 N 
ATOM      2  N   UNL     1      31.980  -8.390 -20.418  0.00  0.00    +0.387 N 
ATOM      3  N   UNL     1      33.814 -14.393 -21.820  0.00  0.00    -0.303 N 
ATOM      4  C   UNL     1      31.209 -11.140 -21.107  0.00  0.00    +0.073 C 
ATOM      5  C   UNL     1      31.770 -10.143 -22.173  0.00  0.00    +0.021 C 
ATOM      6  C   UNL     1      30.824 -10.466 -19.794  0.00  0.00    -0.003 C 
ATOM      7  C   UNL     1      32.623  -9.010 -21.581  0.00  0.00    -0.071 C 
ATOM      8  C   UNL     1      32.637 -11.076 -22.970  0.00  0.00    -0.008 C 
ATOM      9  C   UNL     1      32.886 -12.216 -22.202  0.00  0.00    +0.057 C 
ATOM     10  C   UNL     1      31.807  -9.386 -19.352  0.00  0.00    -0.076 C 
ATOM     11  C   UNL     1      32.048 -13.463 -20.331  0.00  0.00    +0.112 C 
ATOM     12  C   UNL     1      33.669 -13.282 -22.641  0.00  0.00    +0.061 C 
ATOM     13  C   UNL     1      33.349 -14.276 -20.429  0.00  0.00    +0.112 C 
ATOM     14  C   UNL     1      33.186 -10.941 -24.227  0.00  0.00    -0.003 C 
ATOM     15  C   UNL     1      34.215 -13.140 -23.924  0.00  0.00    +0.016 C 
ATOM     16  C   UNL     1      33.980 -11.986 -24.703  0.00  0.00    +0.001 C 
ATOM     17  C   UNL     1      34.720 -15.473 -22.167  0.00  0.00    +0.112 C 
ATOM     18  H   UNL     1      31.063  -8.039 -20.695  0.00  0.00    -0.080 HD
ENDROOT
BRANCH   2  19
ATOM     19  C   UNL     1      32.782  -7.264 -19.935  0.00  0.00    -0.077 C 
BRANCH  19  20
ATOM     20  C   UNL     1      32.263  -5.953 -20.527  0.00  0.00    -0.015 C 
BRANCH  20  21
ATOM     21  C   UNL     1      31.214  -6.182 -21.619  0.00  0.00    +0.067 C 
BRANCH  21  23
ATOM     22  O   UNL     1      30.459  -4.302 -22.930  0.00  0.00    -0.291 OA
ATOM     23  C   UNL     1      31.302  -5.179 -22.761  0.00  0.00    +0.173 C 
BRANCH  23  25
ATOM     24  F   UNL     1      35.692  -5.465 -26.257  0.00  0.00    -0.204 F 
ATOM     25  C   UNL     1      32.466  -5.256 -23.690  0.00  0.00    +0.035 C 
ATOM     26  C   UNL     1      32.534  -4.407 -24.794  0.00  0.00    +0.005 C 
ATOM     27  C   UNL     1      33.488  -6.175 -23.453  0.00  0.00    +0.005 C 
ATOM     28  C   UNL     1      33.624  -4.477 -25.662  0.00  0.00    +0.030 C 
ATOM     29  C   UNL     1      34.578  -6.247 -24.320  0.00  0.00    +0.030 C 
ATOM     30  C   UNL     1      34.646  -5.397 -25.424  0.00  0.00    +0.140 C 
ENDBRANCH  23  25
ENDBRANCH  21  23
ENDBRANCH  20  21
ENDBRANCH  19  20
ENDBRANCH   2  19
TORSDOF 5
ENDMDL
MODEL 6
REMARK VINA RESULT:      -9.7     11.241     16.929
REMARK  Name = 21302490
REMARK  5 active torsions:
REMARK  status: ('A' for Active; 'I' for Inactive)
REMARK    1  A    between atoms: N_2  and  C_19
REMARK    2  A    between atoms: C_19  and  C_20
REMARK    3  A    between atoms: C_20  and  C_21
REMARK    4  A    between atoms: C_21  and  C_23
REMARK    5  A    between atoms: C_23  and  C_25
REMARK                            x       y       z     vdW  Elec       q    Type
REMARK                         _______ _______ _______ _____ _____    ______ ____
ROOT
ATOM      1  N   UNL     1      37.935 -23.727 -14.958  0.00  0.00    -0.307 N 
ATOM      2  N   UNL     1      34.391 -22.841 -16.085  0.00  0.00    +0.387 N 
ATOM      3  N   UNL     1      39.735 -25.696 -13.928  0.00  0.00    -0.303 N 
ATOM      4  C   UNL     1      37.040 -22.569 -14.845  0.00  0.00    +0.073 C 
ATOM      5  C   UNL     1      35.797 -23.079 -14.045  0.00  0.00    +0.021 C 
ATOM      6  C   UNL     1      36.679 -21.954 -16.193  0.00  0.00    -0.003 C 
ATOM      7  C   UNL     1      34.693 -23.686 -14.925  0.00  0.00    -0.071 C 
ATOM      8  C   UNL     1      36.444 -24.154 -13.218  0.00  0.00    -0.008 C 
ATOM      9  C   UNL     1      37.665 -24.493 -13.807  0.00  0.00    +0.057 C 
ATOM     10  C   UNL     1      35.582 -22.712 -16.935  0.00  0.00    -0.076 C 
ATOM     11  C   UNL     1      39.338 -23.666 -15.315  0.00  0.00    +0.112 C 
ATOM     12  C   UNL     1      38.519 -25.469 -13.296  0.00  0.00    +0.061 C 
ATOM     13  C   UNL     1      39.942 -25.078 -15.247  0.00  0.00    +0.112 C 
ATOM     14  C   UNL     1      36.006 -24.802 -12.083  0.00  0.00    -0.003 C 
ATOM     15  C   UNL     1      38.070 -26.116 -12.136  0.00  0.00    +0.016 C 
ATOM     16  C   UNL     1      36.832 -25.789 -11.542  0.00  0.00    +0.001 C 
ATOM     17  C   UNL     1      40.604 -26.785 -13.521  0.00  0.00    +0.112 C 
ATOM     18  H   UNL     1      34.117 -21.915 -15.757  0.00  0.00    -0.080 HD
ENDROOT
BRANCH   2  19
ATOM     19  C   UNL     1      33.280 -23.409 -16.851  0.00  0.00    -0.077 C 
BRANCH  19  20
ATOM     20  C   UNL     1      32.725 -22.370 -17.827  0.00  0.00    -0.015 C 
BRANCH  20  21
ATOM     21  C   UNL     1      33.549 -22.283 -19.115  0.00  0.00    +0.067 C 
BRANCH  21  23
ATOM     22  O   UNL     1      32.236 -20.481 -20.039  0.00  0.00    -0.291 OA
ATOM     23  C   UNL     1      33.347 -20.980 -19.874  0.00  0.00    +0.173 C 
BRANCH  23  25
ATOM     24  F   UNL     1      37.863 -18.324 -21.909  0.00  0.00    -0.204 F 
ATOM     25  C   UNL     1      34.546 -20.276 -20.415  0.00  0.00    +0.035 C 
ATOM     26  C   UNL     1      34.404 -19.355 -21.453  0.00  0.00    +0.005 C 
ATOM     27  C   UNL     1      35.807 -20.536 -19.882  0.00  0.00    +0.005 C 
ATOM     28  C   UNL     1      35.525 -18.695 -21.959  0.00  0.00    +0.030 C 
ATOM     29  C   UNL     1      36.928 -19.878 -20.386  0.00  0.00    +0.030 C 
ATOM     30  C   UNL     1      36.787 -18.957 -21.424  0.00  0.00    +0.140 C 
ENDBRANCH  23  25
ENDBRANCH  21  23
ENDBRANCH  20  21
ENDBRANCH  19  20
ENDBRANCH   2  19
TORSDOF 5
ENDMDL
MODEL 7
REMARK VINA RESULT:      -9.6     11.349     16.929
REMARK  Name = 21302490
REMARK  5 active torsions:
REMARK  status: ('A' for Active; 'I' for Inactive)
REMARK    1  A    between atoms: N_2  and  C_19
REMARK    2  A    between atoms: C_19  and  C_20
REMARK    3  A    between atoms: C_20  and  C_21
REMARK    4  A    between atoms: C_21  and  C_23
REMARK    5  A    between atoms: C_23  and  C_25
REMARK                            x       y       z     vdW  Elec       q    Type
REMARK                         _______ _______ _______ _____ _____    ______ ____
ROOT
ATOM      1  N   UNL     1      35.044 -23.969 -12.648  0.00  0.00    -0.307 N 
ATOM      2  N   UNL     1      32.612 -23.616 -15.576  0.00  0.00    +0.387 N 
ATOM      3  N   UNL     1      37.747 -23.916 -11.716  0.00  0.00    -0.303 N 
ATOM      4  C   UNL     1      33.816 -24.636 -13.099  0.00  0.00    +0.073 C 
ATOM      5  C   UNL     1      34.160 -25.241 -14.500  0.00  0.00    +0.021 C 
ATOM      6  C   UNL     1      32.604 -23.712 -13.122  0.00  0.00    -0.003 C 
ATOM      7  C   UNL     1      33.916 -24.278 -15.673  0.00  0.00    -0.071 C 
ATOM      8  C   UNL     1      35.633 -25.476 -14.326  0.00  0.00    -0.008 C 
ATOM      9  C   UNL     1      36.084 -24.703 -13.253  0.00  0.00    +0.057 C 
ATOM     10  C   UNL     1      32.548 -22.809 -14.350  0.00  0.00    -0.076 C 
ATOM     11  C   UNL     1      35.320 -23.561 -11.286  0.00  0.00    +0.112 C 
ATOM     12  C   UNL     1      37.411 -24.680 -12.827  0.00  0.00    +0.061 C 
ATOM     13  C   UNL     1      36.739 -22.973 -11.209  0.00  0.00    +0.112 C 
ATOM     14  C   UNL     1      36.510 -26.259 -15.046  0.00  0.00    -0.003 C 
ATOM     15  C   UNL     1      38.293 -25.486 -13.559  0.00  0.00    +0.016 C 
ATOM     16  C   UNL     1      37.850 -26.261 -14.653  0.00  0.00    +0.001 C 
ATOM     17  C   UNL     1      39.130 -23.750 -11.307  0.00  0.00    +0.112 C 
ATOM     18  H   UNL     1      31.881 -24.328 -15.541  0.00  0.00    -0.080 HD
ENDROOT
BRANCH   2  19
ATOM     19  C   UNL     1      32.382 -22.773 -16.751  0.00  0.00    -0.077 C 
BRANCH  19  20
ATOM     20  C   UNL     1      33.373 -23.130 -17.861  0.00  0.00    -0.015 C 
BRANCH  20  21
ATOM     21  C   UNL     1      33.519 -22.008 -18.893  0.00  0.00    +0.067 C 
BRANCH  21  23
ATOM     22  O   UNL     1      35.903 -22.106 -18.530  0.00  0.00    -0.291 OA
ATOM     23  C   UNL     1      34.962 -21.585 -19.125  0.00  0.00    +0.173 C 
BRANCH  23  25
ATOM     24  F   UNL     1      36.009 -17.551 -22.894  0.00  0.00    -0.204 F 
ATOM     25  C   UNL     1      35.240 -20.515 -20.126  0.00  0.00    +0.035 C 
ATOM     26  C   UNL     1      34.216 -20.047 -20.949  0.00  0.00    +0.005 C 
ATOM     27  C   UNL     1      36.524 -19.981 -20.238  0.00  0.00    +0.005 C 
ATOM     28  C   UNL     1      34.475 -19.046 -21.884  0.00  0.00    +0.030 C 
ATOM     29  C   UNL     1      36.784 -18.980 -21.173  0.00  0.00    +0.030 C 
ATOM     30  C   UNL     1      35.760 -18.512 -21.996  0.00  0.00    +0.140 C 
ENDBRANCH  23  25
ENDBRANCH  21  23
ENDBRANCH  20  21
ENDBRANCH  19  20
ENDBRANCH   2  19
TORSDOF 5
ENDMDL
MODEL 8
REMARK VINA RESULT:      -9.5      8.813     15.703
REMARK  Name = 21302490
REMARK  5 active torsions:
REMARK  status: ('A' for Active; 'I' for Inactive)
REMARK    1  A    between atoms: N_2  and  C_19
REMARK    2  A    between atoms: C_19  and  C_20
REMARK    3  A    between atoms: C_20  and  C_21
REMARK    4  A    between atoms: C_21  and  C_23
REMARK    5  A    between atoms: C_23  and  C_25
REMARK                            x       y       z     vdW  Elec       q    Type
REMARK                         _______ _______ _______ _____ _____    ______ ____
ROOT
ATOM      1  N   UNL     1      36.984 -23.311 -15.372  0.00  0.00    -0.307 N 
ATOM      2  N   UNL     1      35.452 -21.462 -18.347  0.00  0.00    +0.387 N 
ATOM      3  N   UNL     1      37.026 -25.649 -13.726  0.00  0.00    -0.303 N 
ATOM      4  C   UNL     1      36.613 -21.926 -15.689  0.00  0.00    +0.073 C 
ATOM      5  C   UNL     1      35.069 -21.954 -15.937  0.00  0.00    +0.021 C 
ATOM      6  C   UNL     1      37.402 -21.345 -16.857  0.00  0.00    -0.003 C 
ATOM      7  C   UNL     1      34.676 -22.258 -17.392  0.00  0.00    -0.071 C 
ATOM      8  C   UNL     1      34.685 -23.104 -15.050  0.00  0.00    -0.008 C 
ATOM      9  C   UNL     1      35.830 -23.855 -14.774  0.00  0.00    +0.057 C 
ATOM     10  C   UNL     1      36.881 -21.782 -18.223  0.00  0.00    -0.076 C 
ATOM     11  C   UNL     1      38.225 -23.720 -14.748  0.00  0.00    +0.112 C 
ATOM     12  C   UNL     1      35.824 -25.002 -13.982  0.00  0.00    +0.061 C 
ATOM     13  C   UNL     1      38.200 -25.240 -14.513  0.00  0.00    +0.112 C 
ATOM     14  C   UNL     1      33.456 -23.486 -14.554  0.00  0.00    -0.003 C 
ATOM     15  C   UNL     1      34.573 -25.377 -13.474  0.00  0.00    +0.016 C 
ATOM     16  C   UNL     1      33.408 -24.632 -13.759  0.00  0.00    +0.001 C 
ATOM     17  C   UNL     1      37.064 -26.917 -13.020  0.00  0.00    +0.112 C 
ATOM     18  H   UNL     1      35.317 -20.472 -18.140  0.00  0.00    -0.080 HD
ENDROOT
BRANCH   2  19
ATOM     19  C   UNL     1      34.993 -21.717 -19.713  0.00  0.00    -0.077 C 
BRANCH  19  20
ATOM     20  C   UNL     1      34.290 -20.480 -20.275  0.00  0.00    -0.015 C 
BRANCH  20  21
ATOM     21  C   UNL     1      35.015 -19.903 -21.494  0.00  0.00    +0.067 C 
BRANCH  21  23
ATOM     22  O   UNL     1      35.682 -17.841 -20.432  0.00  0.00    -0.291 OA
ATOM     23  C   UNL     1      35.211 -18.395 -21.422  0.00  0.00    +0.173 C 
BRANCH  23  25
ATOM     24  F   UNL     1      33.807 -15.284 -25.887  0.00  0.00    -0.204 F 
ATOM     25  C   UNL     1      34.837 -17.569 -22.606  0.00  0.00    +0.035 C 
ATOM     26  C   UNL     1      34.965 -16.181 -22.557  0.00  0.00    +0.005 C 
ATOM     27  C   UNL     1      34.363 -18.185 -23.764  0.00  0.00    +0.005 C 
ATOM     28  C   UNL     1      34.617 -15.409 -23.665  0.00  0.00    +0.030 C 
ATOM     29  C   UNL     1      34.014 -17.413 -24.872  0.00  0.00    +0.030 C 
ATOM     30  C   UNL     1      34.142 -16.026 -24.823  0.00  0.00    +0.140 C 
ENDBRANCH  23  25
ENDBRANCH  21  23
ENDBRANCH  20  21
ENDBRANCH  19  20
ENDBRANCH   2  19
TORSDOF 5
ENDMDL
MODEL 9
REMARK VINA RESULT:      -9.4      7.363     11.377
REMARK  Name = 21302490
REMARK  5 active torsions:
REMARK  status: ('A' for Active; 'I' for Inactive)
REMARK    1  A    between atoms: N_2  and  C_19
REMARK    2  A    between atoms: C_19  and  C_20
REMARK    3  A    between atoms: C_20  and  C_21
REMARK    4  A    between atoms: C_21  and  C_23
REMARK    5  A    between atoms: C_23  and  C_25
REMARK                            x       y       z     vdW  Elec       q    Type
REMARK                         _______ _______ _______ _____ _____    ______ ____
ROOT
ATOM      1  N   UNL     1      34.967 -17.027 -23.415  0.00  0.00    -0.307 N 
ATOM      2  N   UNL     1      34.752 -20.035 -21.065  0.00  0.00    +0.387 N 
ATOM      3  N   UNL     1      33.601 -14.967 -24.852  0.00  0.00    -0.303 N 
ATOM      4  C   UNL     1      35.633 -18.330 -23.289  0.00  0.00    +0.073 C 
ATOM      5  C   UNL     1      34.500 -19.395 -23.457  0.00  0.00    +0.021 C 
ATOM      6  C   UNL     1      36.415 -18.481 -21.989  0.00  0.00    -0.003 C 
ATOM      7  C   UNL     1      33.796 -19.771 -22.144  0.00  0.00    -0.071 C 
ATOM      8  C   UNL     1      33.558 -18.635 -24.346  0.00  0.00    -0.008 C 
ATOM      9  C   UNL     1      33.870 -17.275 -24.266  0.00  0.00    +0.057 C 
ATOM     10  C   UNL     1      35.541 -18.827 -20.788  0.00  0.00    -0.076 C 
ATOM     11  C   UNL     1      35.637 -15.767 -23.663  0.00  0.00    +0.112 C 
ATOM     12  C   UNL     1      33.179 -16.286 -24.962  0.00  0.00    +0.061 C 
ATOM     13  C   UNL     1      34.588 -14.652 -23.808  0.00  0.00    +0.112 C 
ATOM     14  C   UNL     1      32.509 -19.070 -25.128  0.00  0.00    -0.003 C 
ATOM     15  C   UNL     1      32.121 -16.738 -25.762  0.00  0.00    +0.016 C 
ATOM     16  C   UNL     1      31.790 -18.108 -25.840  0.00  0.00    +0.001 C 
ATOM     17  C   UNL     1      32.843 -13.881 -25.448  0.00  0.00    +0.112 C 
ATOM     18  H   UNL     1      35.383 -20.782 -21.358  0.00  0.00    -0.080 HD
ENDROOT
BRANCH   2  19
ATOM     19  C   UNL     1      34.048 -20.470 -19.858  0.00  0.00    -0.077 C 
BRANCH  19  20
ATOM     20  C   UNL     1      34.719 -21.715 -19.273  0.00  0.00    -0.015 C 
BRANCH  20  21
ATOM     21  C   UNL     1      33.727 -22.614 -18.529  0.00  0.00    +0.067 C 
BRANCH  21  23
ATOM     22  O   UNL     1      35.305 -22.881 -16.723  0.00  0.00    -0.291 OA
ATOM     23  C   UNL     1      34.133 -22.899 -17.090  0.00  0.00    +0.173 C 
BRANCH  23  25
ATOM     24  F   UNL     1      30.104 -23.981 -13.325  0.00  0.00    -0.204 F 
ATOM     25  C   UNL     1      33.064 -23.188 -16.091  0.00  0.00    +0.035 C 
ATOM     26  C   UNL     1      33.405 -23.621 -14.810  0.00  0.00    +0.005 C 
ATOM     27  C   UNL     1      31.723 -23.022 -16.437  0.00  0.00    +0.005 C 
ATOM     28  C   UNL     1      32.405 -23.890 -13.875  0.00  0.00    +0.030 C 
ATOM     29  C   UNL     1      30.723 -23.290 -15.503  0.00  0.00    +0.030 C 
ATOM     30  C   UNL     1      31.064 -23.724 -14.222  0.00  0.00    +0.140 C 
ENDBRANCH  23  25
ENDBRANCH  21  23
ENDBRANCH  20  21
ENDBRANCH  19  20
ENDBRANCH   2  19
TORSDOF 5
ENDMDL
