MODEL 1
REMARK VINA RESULT:     -11.9      0.000      0.000
REMARK  Name = 72734520
REMARK  6 active torsions:
REMARK  status: ('A' for Active; 'I' for Inactive)
REMARK    1  A    between atoms: N_1  and  C_19
REMARK    2  A    between atoms: C_8  and  O_28
REMARK    3  A    between atoms: C_14  and  N_20
REMARK    4  A    between atoms: O_28  and  C_29
REMARK    5  A    between atoms: C_32  and  N_36
REMARK    6  A    between atoms: C_37  and  C_39
REMARK                            x       y       z     vdW  Elec       q    Type
REMARK                         _______ _______ _______ _____ _____    ______ ____
ROOT
ATOM      1  N   UNL     1      36.948 -21.050 -18.009  0.00  0.00    -0.238 N 
ATOM      2  N   UNL     1      37.278 -22.428 -16.155  0.00  0.00    -0.316 NA
ATOM      3  N   UNL     1      35.210 -22.504 -17.437  0.00  0.00    -0.294 NA
ATOM      4  N   UNL     1      37.295 -23.974 -14.305  0.00  0.00    -0.289 N 
ATOM      5  C   UNL     1      36.452 -22.051 -17.151  0.00  0.00    +0.207 C 
ATOM      6  C   UNL     1      35.454 -23.942 -15.565  0.00  0.00    +0.181 C 
ATOM      7  C   UNL     1      36.714 -23.382 -15.394  0.00  0.00    +0.188 C 
ATOM      8  C   UNL     1      34.698 -23.465 -16.635  0.00  0.00    +0.281 C 
ATOM      9  C   UNL     1      35.286 -24.903 -14.535  0.00  0.00    +0.008 C 
ATOM     10  C   UNL     1      36.435 -24.901 -13.774  0.00  0.00    +0.060 C 
ATOM     11  H   UNL     1      37.853 -20.741 -17.775  0.00  0.00    +0.166 HD
ATOM     12  H   UNL     1      38.192 -23.767 -13.956  0.00  0.00    +0.154 HD
ENDROOT
BRANCH   1  19
ATOM     13  F   UNL     1      33.289 -20.297 -21.012  0.00  0.00    -0.203 F 
ATOM     14  C   UNL     1      35.324 -19.128 -21.373  0.00  0.00    +0.076 C 
ATOM     15  C   UNL     1      34.551 -20.032 -20.646  0.00  0.00    +0.155 C 
ATOM     16  C   UNL     1      36.637 -18.862 -20.983  0.00  0.00    +0.018 C 
ATOM     17  C   UNL     1      35.090 -20.670 -19.528  0.00  0.00    +0.046 C 
ATOM     18  C   UNL     1      37.176 -19.500 -19.866  0.00  0.00    +0.017 C 
ATOM     19  C   UNL     1      36.402 -20.404 -19.139  0.00  0.00    +0.061 C 
BRANCH  14  20
ATOM     20  N   UNL     1      34.787 -18.487 -22.495  0.00  0.00    -0.310 N 
ATOM     21  N   UNL     1      33.933 -17.161 -24.876  0.00  0.00    +0.388 N 
ATOM     22  C   UNL     1      35.144 -17.081 -22.723  0.00  0.00    +0.068 C 
ATOM     23  C   UNL     1      34.476 -19.266 -23.698  0.00  0.00    +0.068 C 
ATOM     24  C   UNL     1      34.113 -16.406 -23.630  0.00  0.00    -0.056 C 
ATOM     25  C   UNL     1      33.467 -18.519 -24.574  0.00  0.00    -0.056 C 
ATOM     26  C   UNL     1      32.987 -16.477 -25.758  0.00  0.00    -0.101 C 
ATOM     27  H   UNL     1      34.830 -17.220 -25.357  0.00  0.00    -0.080 HD
ENDBRANCH  14  20
ENDBRANCH   1  19
BRANCH   8  28
ATOM     28  O   UNL     1      33.439 -23.936 -16.912  0.00  0.00    -0.429 OA
BRANCH  28  29
ATOM     29  C   UNL     1      32.408 -23.499 -16.105  0.00  0.00    +0.149 C 
ATOM     30  C   UNL     1      31.186 -23.135 -16.673  0.00  0.00    +0.052 C 
ATOM     31  C   UNL     1      32.587 -23.421 -14.724  0.00  0.00    +0.038 C 
ATOM     32  C   UNL     1      30.143 -22.694 -15.858  0.00  0.00    +0.054 C 
ATOM     33  C   UNL     1      30.322 -22.616 -14.477  0.00  0.00    +0.015 C 
ATOM     34  C   UNL     1      31.543 -22.980 -13.910  0.00  0.00    +0.004 C 
BRANCH  32  36
ATOM     35  O   UNL     1      27.863 -24.397 -16.817  0.00  0.00    -0.270 OA
ATOM     36  N   UNL     1      28.921 -22.331 -16.426  0.00  0.00    -0.280 N 
ATOM     37  C   UNL     1      27.886 -23.172 -16.857  0.00  0.00    +0.250 C 
ATOM     38  H   UNL     1      28.766 -21.365 -16.535  0.00  0.00    +0.155 HD
BRANCH  37  39
ATOM     39  C   UNL     1      26.739 -22.394 -17.408  0.00  0.00    +0.058 C 
ATOM     40  C   UNL     1      26.030 -21.579 -16.621  0.00  0.00    +0.005 C 
ENDBRANCH  37  39
ENDBRANCH  32  36
ENDBRANCH  28  29
ENDBRANCH   8  28
TORSDOF 6
ENDMDL
MODEL 2
REMARK VINA RESULT:     -11.6      5.161     11.202
REMARK  Name = 72734520
REMARK  6 active torsions:
REMARK  status: ('A' for Active; 'I' for Inactive)
REMARK    1  A    between atoms: N_1  and  C_19
REMARK    2  A    between atoms: C_8  and  O_28
REMARK    3  A    between atoms: C_14  and  N_20
REMARK    4  A    between atoms: O_28  and  C_29
REMARK    5  A    between atoms: C_32  and  N_36
REMARK    6  A    between atoms: C_37  and  C_39
REMARK                            x       y       z     vdW  Elec       q    Type
REMARK                         _______ _______ _______ _____ _____    ______ ____
ROOT
ATOM      1  N   UNL     1      34.362 -18.137 -23.815  0.00  0.00    -0.238 N 
ATOM      2  N   UNL     1      33.805 -16.512 -25.395  0.00  0.00    -0.316 NA
ATOM      3  N   UNL     1      34.464 -15.904 -23.132  0.00  0.00    -0.294 NA
ATOM      4  N   UNL     1      33.294 -14.599 -26.771  0.00  0.00    -0.289 N 
ATOM      5  C   UNL     1      34.202 -16.774 -24.133  0.00  0.00    +0.207 C 
ATOM      6  C   UNL     1      33.913 -14.182 -24.669  0.00  0.00    +0.181 C 
ATOM      7  C   UNL     1      33.679 -15.189 -25.597  0.00  0.00    +0.188 C 
ATOM      8  C   UNL     1      34.320 -14.586 -23.397  0.00  0.00    +0.281 C 
ATOM      9  C   UNL     1      33.655 -12.950 -25.321  0.00  0.00    +0.008 C 
ATOM     10  C   UNL     1      33.275 -13.237 -26.615  0.00  0.00    +0.060 C 
ATOM     11  H   UNL     1      34.164 -18.744 -24.564  0.00  0.00    +0.166 HD
ATOM     12  H   UNL     1      33.065 -15.079 -27.600  0.00  0.00    +0.154 HD
ENDROOT
BRANCH   1  19
ATOM     13  F   UNL     1      33.267 -20.758 -19.954  0.00  0.00    -0.203 F 
ATOM     14  C   UNL     1      35.528 -20.116 -20.298  0.00  0.00    +0.076 C 
ATOM     15  C   UNL     1      34.190 -20.123 -20.691  0.00  0.00    +0.155 C 
ATOM     16  C   UNL     1      36.478 -19.451 -21.072  0.00  0.00    +0.018 C 
ATOM     17  C   UNL     1      33.803 -19.467 -21.860  0.00  0.00    +0.046 C 
ATOM     18  C   UNL     1      36.091 -18.794 -22.240  0.00  0.00    +0.017 C 
ATOM     19  C   UNL     1      34.754 -18.802 -22.634  0.00  0.00    +0.061 C 
BRANCH  14  20
ATOM     20  N   UNL     1      35.919 -20.773 -19.126  0.00  0.00    -0.310 N 
ATOM     21  N   UNL     1      36.822 -22.297 -16.885  0.00  0.00    +0.388 N 
ATOM     22  C   UNL     1      35.324 -22.084 -18.839  0.00  0.00    +0.068 C 
ATOM     23  C   UNL     1      37.263 -20.554 -18.583  0.00  0.00    +0.068 C 
ATOM     24  C   UNL     1      35.433 -22.410 -17.348  0.00  0.00    -0.056 C 
ATOM     25  C   UNL     1      37.311 -20.930 -17.099  0.00  0.00    -0.056 C 
ATOM     26  C   UNL     1      36.924 -22.663 -15.473  0.00  0.00    -0.101 C 
ATOM     27  H   UNL     1      37.401 -22.941 -17.423  0.00  0.00    -0.080 HD
ENDBRANCH  14  20
ENDBRANCH   1  19
BRANCH   8  28
ATOM     28  O   UNL     1      34.584 -13.690 -22.392  0.00  0.00    -0.429 OA
BRANCH  28  29
ATOM     29  C   UNL     1      33.504 -13.065 -21.803  0.00  0.00    +0.149 C 
ATOM     30  C   UNL     1      33.084 -11.817 -22.266  0.00  0.00    +0.052 C 
ATOM     31  C   UNL     1      32.832 -13.679 -20.746  0.00  0.00    +0.038 C 
ATOM     32  C   UNL     1      31.992 -11.185 -21.672  0.00  0.00    +0.054 C 
ATOM     33  C   UNL     1      31.320 -11.799 -20.615  0.00  0.00    +0.015 C 
ATOM     34  C   UNL     1      31.739 -13.046 -20.153  0.00  0.00    +0.004 C 
BRANCH  32  36
ATOM     35  O   UNL     1      32.482  -8.435 -20.570  0.00  0.00    -0.270 OA
ATOM     36  N   UNL     1      31.571  -9.937 -22.136  0.00  0.00    -0.280 N 
ATOM     37  C   UNL     1      31.831  -8.677 -21.579  0.00  0.00    +0.250 C 
ATOM     38  H   UNL     1      31.026  -9.943 -22.955  0.00  0.00    +0.155 HD
BRANCH  37  39
ATOM     39  C   UNL     1      31.202  -7.584 -22.376  0.00  0.00    +0.058 C 
ATOM     40  C   UNL     1      31.114  -6.346 -21.881  0.00  0.00    +0.005 C 
ENDBRANCH  37  39
ENDBRANCH  32  36
ENDBRANCH  28  29
ENDBRANCH   8  28
TORSDOF 6
ENDMDL
MODEL 3
REMARK VINA RESULT:     -11.3      1.429      1.615
REMARK  Name = 72734520
REMARK  6 active torsions:
REMARK  status: ('A' for Active; 'I' for Inactive)
REMARK    1  A    between atoms: N_1  and  C_19
REMARK    2  A    between atoms: C_8  and  O_28
REMARK    3  A    between atoms: C_14  and  N_20
REMARK    4  A    between atoms: O_28  and  C_29
REMARK    5  A    between atoms: C_32  and  N_36
REMARK    6  A    between atoms: C_37  and  C_39
REMARK                            x       y       z     vdW  Elec       q    Type
REMARK                         _______ _______ _______ _____ _____    ______ ____
ROOT
ATOM      1  N   UNL     1      36.679 -22.535 -17.303  0.00  0.00    -0.238 N 
ATOM      2  N   UNL     1      36.733 -23.786 -15.334  0.00  0.00    -0.316 NA
ATOM      3  N   UNL     1      34.795 -22.436 -15.924  0.00  0.00    -0.294 NA
ATOM      4  N   UNL     1      36.466 -24.950 -13.239  0.00  0.00    -0.289 N 
ATOM      5  C   UNL     1      36.033 -22.943 -16.120  0.00  0.00    +0.207 C 
ATOM      6  C   UNL     1      34.758 -23.674 -13.899  0.00  0.00    +0.181 C 
ATOM      7  C   UNL     1      36.033 -24.113 -14.233  0.00  0.00    +0.188 C 
ATOM      8  C   UNL     1      34.142 -22.804 -14.798  0.00  0.00    +0.281 C 
ATOM      9  C   UNL     1      34.426 -24.275 -12.659  0.00  0.00    +0.008 C 
ATOM     10  C   UNL     1      35.496 -25.055 -12.275  0.00  0.00    +0.060 C 
ATOM     11  H   UNL     1      37.578 -22.920 -17.416  0.00  0.00    +0.166 HD
ATOM     12  H   UNL     1      37.338 -25.405 -13.218  0.00  0.00    +0.154 HD
ENDROOT
BRANCH   1  19
ATOM     13  F   UNL     1      33.326 -20.894 -20.309  0.00  0.00    -0.203 F 
ATOM     14  C   UNL     1      35.521 -19.998 -20.445  0.00  0.00    +0.076 C 
ATOM     15  C   UNL     1      34.591 -20.863 -19.868  0.00  0.00    +0.155 C 
ATOM     16  C   UNL     1      36.836 -19.977 -19.979  0.00  0.00    +0.018 C 
ATOM     17  C   UNL     1      34.976 -21.705 -18.824  0.00  0.00    +0.046 C 
ATOM     18  C   UNL     1      37.220 -20.819 -18.935  0.00  0.00    +0.017 C 
ATOM     19  C   UNL     1      36.290 -21.683 -18.358  0.00  0.00    +0.061 C 
BRANCH  14  20
ATOM     20  N   UNL     1      35.139 -19.154 -21.493  0.00  0.00    -0.310 N 
ATOM     21  N   UNL     1      34.612 -17.408 -23.691  0.00  0.00    +0.388 N 
ATOM     22  C   UNL     1      35.563 -17.749 -21.436  0.00  0.00    +0.068 C 
ATOM     23  C   UNL     1      34.948 -19.704 -22.838  0.00  0.00    +0.068 C 
ATOM     24  C   UNL     1      34.667 -16.881 -22.322  0.00  0.00    -0.056 C 
ATOM     25  C   UNL     1      34.072 -18.773 -23.680  0.00  0.00    -0.056 C 
ATOM     26  C   UNL     1      33.797 -16.541 -24.542  0.00  0.00    -0.101 C 
ATOM     27  H   UNL     1      35.556 -17.431 -24.073  0.00  0.00    -0.080 HD
ENDBRANCH  14  20
ENDBRANCH   1  19
BRANCH   8  28
ATOM     28  O   UNL     1      32.884 -22.299 -14.585  0.00  0.00    -0.429 OA
BRANCH  28  29
ATOM     29  C   UNL     1      31.818 -23.150 -14.794  0.00  0.00    +0.149 C 
ATOM     30  C   UNL     1      30.777 -22.767 -15.641  0.00  0.00    +0.052 C 
ATOM     31  C   UNL     1      31.780 -24.392 -14.161  0.00  0.00    +0.038 C 
ATOM     32  C   UNL     1      29.699 -23.627 -15.854  0.00  0.00    +0.054 C 
ATOM     33  C   UNL     1      29.662 -24.869 -15.221  0.00  0.00    +0.015 C 
ATOM     34  C   UNL     1      30.703 -25.252 -14.375  0.00  0.00    +0.004 C 
BRANCH  32  36
ATOM     35  O   UNL     1      27.199 -22.066 -15.282  0.00  0.00    -0.270 OA
ATOM     36  N   UNL     1      28.659 -23.245 -16.702  0.00  0.00    -0.280 N 
ATOM     37  C   UNL     1      27.508 -22.512 -16.381  0.00  0.00    +0.250 C 
ATOM     38  H   UNL     1      28.744 -23.524 -17.642  0.00  0.00    +0.155 HD
BRANCH  37  39
ATOM     39  C   UNL     1      26.635 -22.308 -17.572  0.00  0.00    +0.058 C 
ATOM     40  C   UNL     1      25.792 -21.273 -17.629  0.00  0.00    +0.005 C 
ENDBRANCH  37  39
ENDBRANCH  32  36
ENDBRANCH  28  29
ENDBRANCH   8  28
TORSDOF 6
ENDMDL
MODEL 4
REMARK VINA RESULT:     -10.7      3.946     10.386
REMARK  Name = 72734520
REMARK  6 active torsions:
REMARK  status: ('A' for Active; 'I' for Inactive)
REMARK    1  A    between atoms: N_1  and  C_19
REMARK    2  A    between atoms: C_8  and  O_28
REMARK    3  A    between atoms: C_14  and  N_20
REMARK    4  A    between atoms: O_28  and  C_29
REMARK    5  A    between atoms: C_32  and  N_36
REMARK    6  A    between atoms: C_37  and  C_39
REMARK                            x       y       z     vdW  Elec       q    Type
REMARK                         _______ _______ _______ _____ _____    ______ ____
ROOT
ATOM      1  N   UNL     1      34.995 -20.826 -21.159  0.00  0.00    -0.238 N 
ATOM      2  N   UNL     1      34.748 -19.485 -23.054  0.00  0.00    -0.316 NA
ATOM      3  N   UNL     1      34.998 -18.512 -20.836  0.00  0.00    -0.294 NA
ATOM      4  N   UNL     1      34.513 -17.827 -24.788  0.00  0.00    -0.289 N 
ATOM      5  C   UNL     1      34.909 -19.535 -21.715  0.00  0.00    +0.207 C 
ATOM      6  C   UNL     1      34.750 -17.068 -22.703  0.00  0.00    +0.181 C 
ATOM      7  C   UNL     1      34.675 -18.214 -23.484  0.00  0.00    +0.188 C 
ATOM      8  C   UNL     1      34.918 -17.256 -21.332  0.00  0.00    +0.281 C 
ATOM      9  C   UNL     1      34.627 -15.960 -23.580  0.00  0.00    +0.008 C 
ATOM     10  C   UNL     1      34.482 -16.458 -24.858  0.00  0.00    +0.060 C 
ATOM     11  H   UNL     1      34.927 -21.549 -21.824  0.00  0.00    +0.166 HD
ATOM     12  H   UNL     1      34.431 -18.437 -25.556  0.00  0.00    +0.154 HD
ENDROOT
BRANCH   1  19
ATOM     13  F   UNL     1      33.218 -22.891 -17.216  0.00  0.00    -0.203 F 
ATOM     14  C   UNL     1      35.489 -22.197 -17.219  0.00  0.00    +0.076 C 
ATOM     15  C   UNL     1      34.254 -22.329 -17.854  0.00  0.00    +0.155 C 
ATOM     16  C   UNL     1      36.559 -21.609 -17.893  0.00  0.00    +0.018 C 
ATOM     17  C   UNL     1      34.090 -21.874 -19.163  0.00  0.00    +0.046 C 
ATOM     18  C   UNL     1      36.396 -21.154 -19.202  0.00  0.00    +0.017 C 
ATOM     19  C   UNL     1      35.161 -21.287 -19.836  0.00  0.00    +0.061 C 
BRANCH  14  20
ATOM     20  N   UNL     1      35.656 -22.651 -15.906  0.00  0.00    -0.310 N 
ATOM     21  N   UNL     1      36.016 -23.328 -13.155  0.00  0.00    +0.388 N 
ATOM     22  C   UNL     1      36.944 -22.397 -15.248  0.00  0.00    +0.068 C 
ATOM     23  C   UNL     1      34.496 -22.745 -15.016  0.00  0.00    +0.068 C 
ATOM     24  C   UNL     1      37.153 -23.367 -14.084  0.00  0.00    -0.056 C 
ATOM     25  C   UNL     1      34.784 -23.704 -13.858  0.00  0.00    -0.056 C 
ATOM     26  C   UNL     1      36.251 -24.219 -12.019  0.00  0.00    -0.101 C 
ATOM     27  H   UNL     1      35.915 -22.378 -12.799  0.00  0.00    -0.080 HD
ENDBRANCH  14  20
ENDBRANCH   1  19
BRANCH   8  28
ATOM     28  O   UNL     1      35.007 -16.206 -20.452  0.00  0.00    -0.429 OA
BRANCH  28  29
ATOM     29  C   UNL     1      34.200 -15.112 -20.689  0.00  0.00    +0.149 C 
ATOM     30  C   UNL     1      34.573 -14.165 -21.643  0.00  0.00    +0.052 C 
ATOM     31  C   UNL     1      33.012 -14.954 -19.976  0.00  0.00    +0.038 C 
ATOM     32  C   UNL     1      33.757 -13.060 -21.884  0.00  0.00    +0.054 C 
ATOM     33  C   UNL     1      32.569 -12.901 -21.172  0.00  0.00    +0.015 C 
ATOM     34  C   UNL     1      32.195 -13.848 -20.219  0.00  0.00    +0.004 C 
BRANCH  32  36
ATOM     35  O   UNL     1      33.346 -13.031 -24.858  0.00  0.00    -0.270 OA
ATOM     36  N   UNL     1      34.130 -12.113 -22.839  0.00  0.00    -0.280 N 
ATOM     37  C   UNL     1      33.911 -12.149 -24.223  0.00  0.00    +0.250 C 
ATOM     38  H   UNL     1      34.605 -11.321 -22.498  0.00  0.00    +0.155 HD
BRANCH  37  39
ATOM     39  C   UNL     1      34.465 -10.941 -24.900  0.00  0.00    +0.058 C 
ATOM     40  C   UNL     1      34.958  -9.927 -24.183  0.00  0.00    +0.005 C 
ENDBRANCH  37  39
ENDBRANCH  32  36
ENDBRANCH  28  29
ENDBRANCH   8  28
TORSDOF 6
ENDMDL
MODEL 5
REMARK VINA RESULT:     -10.4      2.958      7.772
REMARK  Name = 72734520
REMARK  6 active torsions:
REMARK  status: ('A' for Active; 'I' for Inactive)
REMARK    1  A    between atoms: N_1  and  C_19
REMARK    2  A    between atoms: C_8  and  O_28
REMARK    3  A    between atoms: C_14  and  N_20
REMARK    4  A    between atoms: O_28  and  C_29
REMARK    5  A    between atoms: C_32  and  N_36
REMARK    6  A    between atoms: C_37  and  C_39
REMARK                            x       y       z     vdW  Elec       q    Type
REMARK                         _______ _______ _______ _____ _____    ______ ____
ROOT
ATOM      1  N   UNL     1      34.228 -25.082 -13.271  0.00  0.00    -0.238 N 
ATOM      2  N   UNL     1      36.496 -25.527 -12.948  0.00  0.00    -0.316 NA
ATOM      3  N   UNL     1      35.743 -23.945 -14.639  0.00  0.00    -0.294 NA
ATOM      4  N   UNL     1      38.895 -25.755 -12.876  0.00  0.00    -0.289 N 
ATOM      5  C   UNL     1      35.565 -24.837 -13.639  0.00  0.00    +0.207 C 
ATOM      6  C   UNL     1      38.071 -24.333 -14.385  0.00  0.00    +0.181 C 
ATOM      7  C   UNL     1      37.735 -25.225 -13.374  0.00  0.00    +0.188 C 
ATOM      8  C   UNL     1      37.014 -23.684 -15.022  0.00  0.00    +0.281 C 
ATOM      9  C   UNL     1      39.485 -24.337 -14.487  0.00  0.00    +0.008 C 
ATOM     10  C   UNL     1      39.966 -25.223 -13.546  0.00  0.00    +0.060 C 
ATOM     11  H   UNL     1      34.131 -25.736 -12.542  0.00  0.00    +0.166 HD
ATOM     12  H   UNL     1      38.952 -26.417 -12.149  0.00  0.00    +0.154 HD
ENDROOT
BRANCH   1  19
ATOM     13  F   UNL     1      29.583 -25.689 -14.287  0.00  0.00    -0.203 F 
ATOM     14  C   UNL     1      30.570 -23.564 -14.674  0.00  0.00    +0.076 C 
ATOM     15  C   UNL     1      30.658 -24.890 -14.250  0.00  0.00    +0.155 C 
ATOM     16  C   UNL     1      31.698 -22.743 -14.633  0.00  0.00    +0.018 C 
ATOM     17  C   UNL     1      31.873 -25.394 -13.784  0.00  0.00    +0.046 C 
ATOM     18  C   UNL     1      32.912 -23.247 -14.167  0.00  0.00    +0.017 C 
ATOM     19  C   UNL     1      32.999 -24.572 -13.742  0.00  0.00    +0.061 C 
BRANCH  14  20
ATOM     20  N   UNL     1      29.354 -23.056 -15.144  0.00  0.00    -0.310 N 
ATOM     21  N   UNL     1      26.978 -21.782 -16.087  0.00  0.00    +0.388 N 
ATOM     22  C   UNL     1      28.573 -22.197 -14.245  0.00  0.00    +0.068 C 
ATOM     23  C   UNL     1      29.176 -22.803 -16.577  0.00  0.00    +0.068 C 
ATOM     24  C   UNL     1      27.105 -22.164 -14.675  0.00  0.00    -0.056 C 
ATOM     25  C   UNL     1      27.688 -22.749 -16.932  0.00  0.00    -0.056 C 
ATOM     26  C   UNL     1      25.569 -21.701 -16.471  0.00  0.00    -0.101 C 
ATOM     27  H   UNL     1      27.397 -20.862 -16.217  0.00  0.00    -0.080 HD
ENDBRANCH  14  20
ENDBRANCH   1  19
BRANCH   8  28
ATOM     28  O   UNL     1      37.212 -22.779 -16.035  0.00  0.00    -0.429 OA
BRANCH  28  29
ATOM     29  C   UNL     1      36.162 -22.563 -16.904  0.00  0.00    +0.149 C 
ATOM     30  C   UNL     1      36.323 -21.702 -17.990  0.00  0.00    +0.052 C 
ATOM     31  C   UNL     1      34.942 -23.207 -16.699  0.00  0.00    +0.038 C 
ATOM     32  C   UNL     1      35.263 -21.485 -18.870  0.00  0.00    +0.054 C 
ATOM     33  C   UNL     1      34.042 -22.128 -18.665  0.00  0.00    +0.015 C 
ATOM     34  C   UNL     1      33.882 -22.990 -17.580  0.00  0.00    +0.004 C 
BRANCH  32  36
ATOM     35  O   UNL     1      33.218 -20.225 -20.672  0.00  0.00    -0.270 OA
ATOM     36  N   UNL     1      35.424 -20.623 -19.956  0.00  0.00    -0.280 N 
ATOM     37  C   UNL     1      34.428 -20.061 -20.768  0.00  0.00    +0.250 C 
ATOM     38  H   UNL     1      36.351 -20.380 -20.180  0.00  0.00    +0.155 HD
BRANCH  37  39
ATOM     39  C   UNL     1      35.011 -19.189 -21.828  0.00  0.00    +0.058 C 
ATOM     40  C   UNL     1      34.730 -19.407 -23.117  0.00  0.00    +0.005 C 
ENDBRANCH  37  39
ENDBRANCH  32  36
ENDBRANCH  28  29
ENDBRANCH   8  28
TORSDOF 6
ENDMDL
MODEL 6
REMARK VINA RESULT:     -10.1      9.943     14.872
REMARK  Name = 72734520
REMARK  6 active torsions:
REMARK  status: ('A' for Active; 'I' for Inactive)
REMARK    1  A    between atoms: N_1  and  C_19
REMARK    2  A    between atoms: C_8  and  O_28
REMARK    3  A    between atoms: C_14  and  N_20
REMARK    4  A    between atoms: O_28  and  C_29
REMARK    5  A    between atoms: C_32  and  N_36
REMARK    6  A    between atoms: C_37  and  C_39
REMARK                            x       y       z     vdW  Elec       q    Type
REMARK                         _______ _______ _______ _____ _____    ______ ____
ROOT
ATOM      1  N   UNL     1      32.381  -6.773 -23.325  0.00  0.00    -0.238 N 
ATOM      2  N   UNL     1      31.466  -8.459 -21.996  0.00  0.00    -0.316 NA
ATOM      3  N   UNL     1      33.366  -8.888 -23.456  0.00  0.00    -0.294 NA
ATOM      4  N   UNL     1      30.768 -10.410 -20.764  0.00  0.00    -0.289 N 
ATOM      5  C   UNL     1      32.406  -8.115 -22.901  0.00  0.00    +0.207 C 
ATOM      6  C   UNL     1      32.503 -10.666 -22.142  0.00  0.00    +0.181 C 
ATOM      7  C   UNL     1      31.572  -9.756 -21.658  0.00  0.00    +0.188 C 
ATOM      8  C   UNL     1      33.421 -10.184 -23.075  0.00  0.00    +0.281 C 
ATOM      9  C   UNL     1      32.237 -11.906 -21.509  0.00  0.00    +0.008 C 
ATOM     10  C   UNL     1      31.163 -11.719 -20.666  0.00  0.00    +0.060 C 
ATOM     11  H   UNL     1      31.671  -6.237 -22.904  0.00  0.00    +0.166 HD
ATOM     12  H   UNL     1      30.021 -10.004 -20.267  0.00  0.00    +0.154 HD
ENDROOT
BRANCH   1  19
ATOM     13  F   UNL     1      32.789  -3.505 -26.808  0.00  0.00    -0.203 F 
ATOM     14  C   UNL     1      34.747  -4.605 -26.036  0.00  0.00    +0.076 C 
ATOM     15  C   UNL     1      33.369  -4.395 -25.991  0.00  0.00    +0.155 C 
ATOM     16  C   UNL     1      35.339  -5.536 -25.182  0.00  0.00    +0.018 C 
ATOM     17  C   UNL     1      32.583  -5.115 -25.090  0.00  0.00    +0.046 C 
ATOM     18  C   UNL     1      34.553  -6.255 -24.282  0.00  0.00    +0.017 C 
ATOM     19  C   UNL     1      33.176  -6.044 -24.236  0.00  0.00    +0.061 C 
BRANCH  14  20
ATOM     20  N   UNL     1      35.538  -3.886 -26.939  0.00  0.00    -0.310 N 
ATOM     21  N   UNL     1      36.942  -2.404 -28.937  0.00  0.00    +0.388 N 
ATOM     22  C   UNL     1      35.817  -4.494 -28.247  0.00  0.00    +0.068 C 
ATOM     23  C   UNL     1      35.525  -2.420 -26.911  0.00  0.00    +0.068 C 
ATOM     24  C   UNL     1      37.063  -3.866 -28.875  0.00  0.00    -0.056 C 
ATOM     25  C   UNL     1      36.781  -1.859 -27.584  0.00  0.00    -0.056 C 
ATOM     26  C   UNL     1      38.115  -1.820 -29.589  0.00  0.00    -0.101 C 
ATOM     27  H   UNL     1      36.119  -2.165 -29.488  0.00  0.00    -0.080 HD
ENDBRANCH  14  20
ENDBRANCH   1  19
BRANCH   8  28
ATOM     28  O   UNL     1      34.392 -10.981 -23.629  0.00  0.00    -0.429 OA
BRANCH  28  29
ATOM     29  C   UNL     1      33.976 -12.126 -24.277  0.00  0.00    +0.149 C 
ATOM     30  C   UNL     1      34.163 -13.372 -23.679  0.00  0.00    +0.052 C 
ATOM     31  C   UNL     1      33.368 -12.037 -25.530  0.00  0.00    +0.038 C 
ATOM     32  C   UNL     1      33.741 -14.530 -24.334  0.00  0.00    +0.054 C 
ATOM     33  C   UNL     1      33.134 -14.441 -25.586  0.00  0.00    +0.015 C 
ATOM     34  C   UNL     1      32.946 -13.195 -26.183  0.00  0.00    +0.004 C 
BRANCH  32  36
ATOM     35  O   UNL     1      34.536 -17.164 -25.535  0.00  0.00    -0.270 OA
ATOM     36  N   UNL     1      33.928 -15.777 -23.735  0.00  0.00    -0.280 N 
ATOM     37  C   UNL     1      34.302 -16.981 -24.346  0.00  0.00    +0.250 C 
ATOM     38  H   UNL     1      33.779 -15.814 -22.762  0.00  0.00    +0.155 HD
BRANCH  37  39
ATOM     39  C   UNL     1      34.394 -18.094 -23.358  0.00  0.00    +0.058 C 
ATOM     40  C   UNL     1      35.202 -17.996 -22.298  0.00  0.00    +0.005 C 
ENDBRANCH  37  39
ENDBRANCH  32  36
ENDBRANCH  28  29
ENDBRANCH   8  28
TORSDOF 6
ENDMDL
MODEL 7
REMARK VINA RESULT:     -10.0      4.662     10.717
REMARK  Name = 72734520
REMARK  6 active torsions:
REMARK  status: ('A' for Active; 'I' for Inactive)
REMARK    1  A    between atoms: N_1  and  C_19
REMARK    2  A    between atoms: C_8  and  O_28
REMARK    3  A    between atoms: C_14  and  N_20
REMARK    4  A    between atoms: O_28  and  C_29
REMARK    5  A    between atoms: C_32  and  N_36
REMARK    6  A    between atoms: C_37  and  C_39
REMARK                            x       y       z     vdW  Elec       q    Type
REMARK                         _______ _______ _______ _____ _____    ______ ____
ROOT
ATOM      1  N   UNL     1      34.219 -19.448 -22.764  0.00  0.00    -0.238 N 
ATOM      2  N   UNL     1      33.830 -17.921 -24.486  0.00  0.00    -0.316 NA
ATOM      3  N   UNL     1      34.475 -17.181 -22.258  0.00  0.00    -0.294 NA
ATOM      4  N   UNL     1      33.504 -16.095 -26.026  0.00  0.00    -0.289 N 
ATOM      5  C   UNL     1      34.173 -18.108 -23.195  0.00  0.00    +0.207 C 
ATOM      6  C   UNL     1      34.099 -15.554 -23.945  0.00  0.00    +0.181 C 
ATOM      7  C   UNL     1      33.812 -16.614 -24.796  0.00  0.00    +0.188 C 
ATOM      8  C   UNL     1      34.440 -15.882 -22.633  0.00  0.00    +0.281 C 
ATOM      9  C   UNL     1      33.954 -14.364 -24.702  0.00  0.00    +0.008 C 
ATOM     10  C   UNL     1      33.587 -14.727 -25.980  0.00  0.00    +0.060 C 
ATOM     11  H   UNL     1      33.994 -20.098 -23.467  0.00  0.00    +0.166 HD
ATOM     12  H   UNL     1      33.261 -16.623 -26.821  0.00  0.00    +0.154 HD
ENDROOT
BRANCH   1  19
ATOM     13  F   UNL     1      37.445 -21.015 -19.584  0.00  0.00    -0.203 F 
ATOM     14  C   UNL     1      35.136 -21.215 -19.065  0.00  0.00    +0.076 C 
ATOM     15  C   UNL     1      36.163 -20.828 -19.926  0.00  0.00    +0.155 C 
ATOM     16  C   UNL     1      33.806 -21.017 -19.433  0.00  0.00    +0.018 C 
ATOM     17  C   UNL     1      35.858 -20.240 -21.154  0.00  0.00    +0.046 C 
ATOM     18  C   UNL     1      33.501 -20.430 -20.661  0.00  0.00    +0.017 C 
ATOM     19  C   UNL     1      34.527 -20.041 -21.521  0.00  0.00    +0.061 C 
BRANCH  14  20
ATOM     20  N   UNL     1      35.439 -21.806 -17.833  0.00  0.00    -0.310 N 
ATOM     21  N   UNL     1      36.096 -23.233 -15.448  0.00  0.00    +0.388 N 
ATOM     22  C   UNL     1      34.547 -22.862 -17.337  0.00  0.00    +0.068 C 
ATOM     23  C   UNL     1      36.834 -21.895 -17.391  0.00  0.00    +0.068 C 
ATOM     24  C   UNL     1      34.692 -23.021 -15.822  0.00  0.00    -0.056 C 
ATOM     25  C   UNL     1      36.906 -22.086 -15.874  0.00  0.00    -0.056 C 
ATOM     26  C   UNL     1      36.216 -23.438 -14.004  0.00  0.00    -0.101 C 
ATOM     27  H   UNL     1      36.439 -24.071 -15.918  0.00  0.00    -0.080 HD
ENDBRANCH  14  20
ENDBRANCH   1  19
BRANCH   8  28
ATOM     28  O   UNL     1      34.747 -14.929 -21.694  0.00  0.00    -0.429 OA
BRANCH  28  29
ATOM     29  C   UNL     1      33.732 -14.080 -21.300  0.00  0.00    +0.149 C 
ATOM     30  C   UNL     1      33.536 -12.872 -21.970  0.00  0.00    +0.052 C 
ATOM     31  C   UNL     1      32.903 -14.430 -20.235  0.00  0.00    +0.038 C 
ATOM     32  C   UNL     1      32.509 -12.014 -21.573  0.00  0.00    +0.054 C 
ATOM     33  C   UNL     1      31.680 -12.364 -20.508  0.00  0.00    +0.015 C 
ATOM     34  C   UNL     1      31.876 -13.573 -19.839  0.00  0.00    +0.004 C 
BRANCH  32  36
ATOM     35  O   UNL     1      32.187  -9.227 -20.503  0.00  0.00    -0.270 OA
ATOM     36  N   UNL     1      32.312 -10.806 -22.243  0.00  0.00    -0.280 N 
ATOM     37  C   UNL     1      32.168  -9.526 -21.691  0.00  0.00    +0.250 C 
ATOM     38  H   UNL     1      32.270 -10.860 -23.225  0.00  0.00    +0.155 HD
BRANCH  37  39
ATOM     39  C   UNL     1      31.975  -8.490 -22.746  0.00  0.00    +0.058 C 
ATOM     40  C   UNL     1      30.923  -7.666 -22.705  0.00  0.00    +0.005 C 
ENDBRANCH  37  39
ENDBRANCH  32  36
ENDBRANCH  28  29
ENDBRANCH   8  28
TORSDOF 6
ENDMDL
MODEL 8
REMARK VINA RESULT:      -9.9     11.021     17.414
REMARK  Name = 72734520
REMARK  6 active torsions:
REMARK  status: ('A' for Active; 'I' for Inactive)
REMARK    1  A    between atoms: N_1  and  C_19
REMARK    2  A    between atoms: C_8  and  O_28
REMARK    3  A    between atoms: C_14  and  N_20
REMARK    4  A    between atoms: O_28  and  C_29
REMARK    5  A    between atoms: C_32  and  N_36
REMARK    6  A    between atoms: C_37  and  C_39
REMARK                            x       y       z     vdW  Elec       q    Type
REMARK                         _______ _______ _______ _____ _____    ______ ____
ROOT
ATOM      1  N   UNL     1      31.440  -8.252 -21.310  0.00  0.00    -0.238 N 
ATOM      2  N   UNL     1      30.790  -6.012 -21.251  0.00  0.00    -0.316 NA
ATOM      3  N   UNL     1      31.723  -7.007 -23.267  0.00  0.00    -0.294 NA
ATOM      4  N   UNL     1      30.227  -3.683 -21.526  0.00  0.00    -0.289 N 
ATOM      5  C   UNL     1      31.310  -7.020 -21.980  0.00  0.00    +0.207 C 
ATOM      6  C   UNL     1      31.093  -4.719 -23.302  0.00  0.00    +0.181 C 
ATOM      7  C   UNL     1      30.710  -4.883 -21.977  0.00  0.00    +0.188 C 
ATOM      8  C   UNL     1      31.616  -5.841 -23.944  0.00  0.00    +0.281 C 
ATOM      9  C   UNL     1      30.826  -3.369 -23.646  0.00  0.00    +0.008 C 
ATOM     10  C   UNL     1      30.293  -2.755 -22.533  0.00  0.00    +0.060 C 
ATOM     11  H   UNL     1      31.131  -8.230 -20.376  0.00  0.00    +0.166 HD
ATOM     12  H   UNL     1      29.884  -3.513 -20.618  0.00  0.00    +0.154 HD
ENDROOT
BRANCH   1  19
ATOM     13  F   UNL     1      31.585 -13.017 -20.809  0.00  0.00    -0.203 F 
ATOM     14  C   UNL     1      32.887 -12.007 -22.519  0.00  0.00    +0.076 C 
ATOM     15  C   UNL     1      31.991 -11.915 -21.454  0.00  0.00    +0.155 C 
ATOM     16  C   UNL     1      33.303 -10.851 -23.181  0.00  0.00    +0.018 C 
ATOM     17  C   UNL     1      31.510 -10.667 -21.053  0.00  0.00    +0.046 C 
ATOM     18  C   UNL     1      32.822  -9.605 -22.780  0.00  0.00    +0.017 C 
ATOM     19  C   UNL     1      31.926  -9.513 -21.716  0.00  0.00    +0.061 C 
BRANCH  14  20
ATOM     20  N   UNL     1      33.371 -13.255 -22.923  0.00  0.00    -0.310 N 
ATOM     21  N   UNL     1      34.555 -15.678 -23.866  0.00  0.00    +0.388 N 
ATOM     22  C   UNL     1      33.384 -13.558 -24.360  0.00  0.00    +0.068 C 
ATOM     23  C   UNL     1      34.398 -13.931 -22.124  0.00  0.00    +0.068 C 
ATOM     24  C   UNL     1      33.431 -15.070 -24.590  0.00  0.00    -0.056 C 
ATOM     25  C   UNL     1      34.414 -15.431 -22.426  0.00  0.00    -0.056 C 
ATOM     26  C   UNL     1      34.623 -17.114 -24.136  0.00  0.00    -0.101 C 
ATOM     27  H   UNL     1      35.423 -15.252 -24.189  0.00  0.00    -0.080 HD
ENDBRANCH  14  20
ENDBRANCH   1  19
BRANCH   8  28
ATOM     28  O   UNL     1      32.030  -5.811 -25.252  0.00  0.00    -0.429 OA
BRANCH  28  29
ATOM     29  C   UNL     1      33.346  -5.469 -25.491  0.00  0.00    +0.149 C 
ATOM     30  C   UNL     1      33.659  -4.586 -26.524  0.00  0.00    +0.052 C 
ATOM     31  C   UNL     1      34.361  -6.005 -24.700  0.00  0.00    +0.038 C 
ATOM     32  C   UNL     1      34.988  -4.238 -26.766  0.00  0.00    +0.054 C 
ATOM     33  C   UNL     1      36.004  -4.774 -25.974  0.00  0.00    +0.015 C 
ATOM     34  C   UNL     1      35.691  -5.657 -24.941  0.00  0.00    +0.004 C 
BRANCH  32  36
ATOM     35  O   UNL     1      35.307  -4.724 -29.712  0.00  0.00    -0.270 OA
ATOM     36  N   UNL     1      35.301  -3.354 -27.799  0.00  0.00    -0.280 N 
ATOM     37  C   UNL     1      35.438  -3.635 -29.165  0.00  0.00    +0.250 C 
ATOM     38  H   UNL     1      35.443  -2.416 -27.535  0.00  0.00    +0.155 HD
BRANCH  37  39
ATOM     39  C   UNL     1      35.780  -2.412 -29.947  0.00  0.00    +0.058 C 
ATOM     40  C   UNL     1      37.040  -1.968 -29.997  0.00  0.00    +0.005 C 
ENDBRANCH  37  39
ENDBRANCH  32  36
ENDBRANCH  28  29
ENDBRANCH   8  28
TORSDOF 6
ENDMDL
MODEL 9
REMARK VINA RESULT:      -9.6     10.542     17.158
REMARK  Name = 72734520
REMARK  6 active torsions:
REMARK  status: ('A' for Active; 'I' for Inactive)
REMARK    1  A    between atoms: N_1  and  C_19
REMARK    2  A    between atoms: C_8  and  O_28
REMARK    3  A    between atoms: C_14  and  N_20
REMARK    4  A    between atoms: O_28  and  C_29
REMARK    5  A    between atoms: C_32  and  N_36
REMARK    6  A    between atoms: C_37  and  C_39
REMARK                            x       y       z     vdW  Elec       q    Type
REMARK                         _______ _______ _______ _____ _____    ______ ____
ROOT
ATOM      1  N   UNL     1      31.023  -8.841 -22.052  0.00  0.00    -0.238 N 
ATOM      2  N   UNL     1      30.496  -6.572 -22.191  0.00  0.00    -0.316 NA
ATOM      3  N   UNL     1      32.660  -7.416 -22.917  0.00  0.00    -0.294 NA
ATOM      4  N   UNL     1      30.276  -4.186 -22.467  0.00  0.00    -0.289 N 
ATOM      5  C   UNL     1      31.414  -7.536 -22.407  0.00  0.00    +0.207 C 
ATOM      6  C   UNL     1      32.216  -5.092 -23.095  0.00  0.00    +0.181 C 
ATOM      7  C   UNL     1      30.965  -5.367 -22.559  0.00  0.00    +0.188 C 
ATOM      8  C   UNL     1      33.074  -6.178 -23.269  0.00  0.00    +0.281 C 
ATOM      9  C   UNL     1      32.268  -3.694 -23.328  0.00  0.00    +0.008 C 
ATOM     10  C   UNL     1      31.060  -3.162 -22.932  0.00  0.00    +0.060 C 
ATOM     11  H   UNL     1      30.111  -8.895 -21.683  0.00  0.00    +0.166 HD
ATOM     12  H   UNL     1      29.360  -4.088 -22.120  0.00  0.00    +0.154 HD
ENDROOT
BRANCH   1  19
ATOM     13  F   UNL     1      31.583 -13.345 -20.512  0.00  0.00    -0.203 F 
ATOM     14  C   UNL     1      32.981 -12.552 -22.260  0.00  0.00    +0.076 C 
ATOM     15  C   UNL     1      31.954 -12.357 -21.337  0.00  0.00    +0.155 C 
ATOM     16  C   UNL     1      33.359 -11.514 -23.112  0.00  0.00    +0.018 C 
ATOM     17  C   UNL     1      31.302 -11.124 -21.269  0.00  0.00    +0.046 C 
ATOM     18  C   UNL     1      32.709 -10.282 -23.043  0.00  0.00    +0.017 C 
ATOM     19  C   UNL     1      31.680 -10.087 -22.122  0.00  0.00    +0.061 C 
BRANCH  14  20
ATOM     20  N   UNL     1      33.637 -13.786 -22.330  0.00  0.00    -0.310 N 
ATOM     21  N   UNL     1      35.187 -16.175 -22.550  0.00  0.00    +0.388 N 
ATOM     22  C   UNL     1      34.088 -14.252 -23.647  0.00  0.00    +0.068 C 
ATOM     23  C   UNL     1      34.423 -14.259 -21.187  0.00  0.00    +0.068 C 
ATOM     24  C   UNL     1      34.290 -15.769 -23.639  0.00  0.00    -0.056 C 
ATOM     25  C   UNL     1      34.616 -15.776 -21.258  0.00  0.00    -0.056 C 
ATOM     26  C   UNL     1      35.417 -17.619 -22.585  0.00  0.00    -0.101 C 
ATOM     27  H   UNL     1      36.085 -15.707 -22.671  0.00  0.00    -0.080 HD
ENDBRANCH  14  20
ENDBRANCH   1  19
BRANCH   8  28
ATOM     28  O   UNL     1      34.336  -6.040 -23.790  0.00  0.00    -0.429 OA
BRANCH  28  29
ATOM     29  C   UNL     1      34.443  -5.498 -25.054  0.00  0.00    +0.149 C 
ATOM     30  C   UNL     1      35.699  -5.188 -25.576  0.00  0.00    +0.052 C 
ATOM     31  C   UNL     1      33.296  -5.261 -25.812  0.00  0.00    +0.038 C 
ATOM     32  C   UNL     1      35.808  -4.641 -26.854  0.00  0.00    +0.054 C 
ATOM     33  C   UNL     1      34.661  -4.404 -27.612  0.00  0.00    +0.015 C 
ATOM     34  C   UNL     1      33.405  -4.715 -27.091  0.00  0.00    +0.004 C 
BRANCH  32  36
ATOM     35  O   UNL     1      37.546  -6.165 -28.771  0.00  0.00    -0.270 OA
ATOM     36  N   UNL     1      37.065  -4.332 -27.376  0.00  0.00    -0.280 N 
ATOM     37  C   UNL     1      37.836  -5.084 -28.273  0.00  0.00    +0.250 C 
ATOM     38  H   UNL     1      37.458  -3.480 -27.077  0.00  0.00    +0.155 HD
BRANCH  37  39
ATOM     39  C   UNL     1      39.127  -4.407 -28.590  0.00  0.00    +0.058 C 
ATOM     40  C   UNL     1      40.035  -4.195 -27.632  0.00  0.00    +0.005 C 
ENDBRANCH  37  39
ENDBRANCH  32  36
ENDBRANCH  28  29
ENDBRANCH   8  28
TORSDOF 6
ENDMDL
