MODEL 1
REMARK VINA RESULT:     -12.7      0.000      0.000
REMARK  Name = 46937081
REMARK  6 active torsions:
REMARK  status: ('A' for Active; 'I' for Inactive)
REMARK    1  A    between atoms: N_1  and  C_10
REMARK    2  A    between atoms: C_4  and  C_16
REMARK    3  A    between atoms: C_9  and  C_31
REMARK    4  A    between atoms: C_16  and  C_17
REMARK    5  A    between atoms: C_18  and  N_23
REMARK    6  A    between atoms: C_31  and  N_32
REMARK                            x       y       z     vdW  Elec       q    Type
REMARK                         _______ _______ _______ _____ _____    ______ ____
ROOT
ATOM      1  N   UNL     1      34.069 -23.392 -15.310  0.00  0.00    -0.267 N 
ATOM      2  N   UNL     1      35.167 -23.583 -13.171  0.00  0.00    -0.341 NA
ATOM      3  N   UNL     1      37.520 -22.963 -13.252  0.00  0.00    -0.188 NA
ATOM      4  C   UNL     1      34.423 -23.019 -16.580  0.00  0.00    +0.035 C 
ATOM      5  C   UNL     1      35.158 -23.295 -14.484  0.00  0.00    +0.199 C 
ATOM      6  C   UNL     1      36.233 -22.851 -15.243  0.00  0.00    +0.066 C 
ATOM      7  C   UNL     1      35.759 -22.678 -16.569  0.00  0.00    +0.016 C 
ATOM      8  C   UNL     1      37.446 -22.689 -14.576  0.00  0.00    +0.114 C 
ATOM      9  C   UNL     1      36.392 -23.387 -12.640  0.00  0.00    +0.042 C 
ENDROOT
BRANCH   1  10
ATOM     10  C   UNL     1      32.686 -23.844 -14.877  0.00  0.00    +0.079 C 
ATOM     11  C   UNL     1      32.748 -24.831 -13.698  0.00  0.00    +0.020 C 
ATOM     12  C   UNL     1      31.770 -22.651 -14.549  0.00  0.00    +0.020 C 
ATOM     13  C   UNL     1      31.351 -25.287 -13.278  0.00  0.00    +0.002 C 
ATOM     14  C   UNL     1      30.378 -23.116 -14.125  0.00  0.00    +0.002 C 
ATOM     15  C   UNL     1      30.444 -24.102 -12.962  0.00  0.00    +0.000 C 
ENDBRANCH   1  10
BRANCH   4  16
ATOM     16  C   UNL     1      33.432 -23.018 -17.727  0.00  0.00    +0.068 C 
BRANCH  16  17
ATOM     17  C   UNL     1      33.701 -21.974 -18.758  0.00  0.00    -0.016 C 
ATOM     18  C   UNL     1      34.205 -20.024 -20.689  0.00  0.00    +0.048 C 
ATOM     19  C   UNL     1      35.011 -21.719 -19.167  0.00  0.00    -0.003 C 
ATOM     20  C   UNL     1      32.644 -21.255 -19.315  0.00  0.00    -0.003 C 
ATOM     21  C   UNL     1      35.262 -20.745 -20.132  0.00  0.00    +0.014 C 
ATOM     22  C   UNL     1      32.896 -20.279 -20.280  0.00  0.00    +0.014 C 
BRANCH  18  23
ATOM     23  N   UNL     1      34.457 -19.046 -21.657  0.00  0.00    -0.312 N 
ATOM     24  N   UNL     1      35.222 -17.116 -23.619  0.00  0.00    +0.388 N 
ATOM     25  C   UNL     1      34.516 -19.422 -23.073  0.00  0.00    +0.068 C 
ATOM     26  C   UNL     1      35.276 -17.891 -21.272  0.00  0.00    +0.068 C 
ATOM     27  C   UNL     1      35.026 -16.716 -22.221  0.00  0.00    -0.056 C 
ATOM     28  C   UNL     1      34.291 -18.198 -23.964  0.00  0.00    -0.056 C 
ATOM     29  C   UNL     1      35.034 -15.974 -24.512  0.00  0.00    -0.101 C 
ATOM     30  H   UNL     1      36.177 -17.456 -23.734  0.00  0.00    -0.080 HD
ENDBRANCH  18  23
ENDBRANCH  16  17
ENDBRANCH   4  16
BRANCH   9  31
ATOM     31  C   UNL     1      36.519 -23.678 -11.181  0.00  0.00    +0.030 C 
BRANCH  31  32
ATOM     32  N   UNL     1      37.882 -24.057 -10.808  0.00  0.00    +0.390 N 
ATOM     33  H   UNL     1      37.948 -24.128  -9.791  0.00  0.00    -0.088 HD
ATOM     34  H   UNL     1      38.536 -23.349 -11.142  0.00  0.00    -0.088 HD
ATOM     35  H   UNL     1      38.112 -24.958 -11.227  0.00  0.00    -0.088 HD
ENDBRANCH  31  32
ENDBRANCH   9  31
TORSDOF 6
ENDMDL
MODEL 2
REMARK VINA RESULT:     -11.9      1.835      4.052
REMARK  Name = 46937081
REMARK  6 active torsions:
REMARK  status: ('A' for Active; 'I' for Inactive)
REMARK    1  A    between atoms: N_1  and  C_10
REMARK    2  A    between atoms: C_4  and  C_16
REMARK    3  A    between atoms: C_9  and  C_31
REMARK    4  A    between atoms: C_16  and  C_17
REMARK    5  A    between atoms: C_18  and  N_23
REMARK    6  A    between atoms: C_31  and  N_32
REMARK                            x       y       z     vdW  Elec       q    Type
REMARK                         _______ _______ _______ _____ _____    ______ ____
ROOT
ATOM      1  N   UNL     1      34.352 -23.288 -16.113  0.00  0.00    -0.267 N 
ATOM      2  N   UNL     1      32.736 -24.123 -14.528  0.00  0.00    -0.341 NA
ATOM      3  N   UNL     1      30.436 -23.707 -15.209  0.00  0.00    -0.188 NA
ATOM      4  C   UNL     1      34.318 -22.633 -17.316  0.00  0.00    +0.035 C 
ATOM      5  C   UNL     1      33.072 -23.504 -15.673  0.00  0.00    +0.199 C 
ATOM      6  C   UNL     1      32.201 -22.974 -16.617  0.00  0.00    +0.066 C 
ATOM      7  C   UNL     1      32.998 -22.425 -17.653  0.00  0.00    +0.016 C 
ATOM      8  C   UNL     1      30.839 -23.094 -16.347  0.00  0.00    +0.114 C 
ATOM      9  C   UNL     1      31.396 -24.176 -14.382  0.00  0.00    +0.042 C 
ENDROOT
BRANCH   1  10
ATOM     10  C   UNL     1      35.608 -23.713 -15.374  0.00  0.00    +0.079 C 
ATOM     11  C   UNL     1      35.824 -22.893 -14.090  0.00  0.00    +0.020 C 
ATOM     12  C   UNL     1      35.613 -25.221 -15.071  0.00  0.00    +0.020 C 
ATOM     13  C   UNL     1      37.097 -23.321 -13.361  0.00  0.00    +0.002 C 
ATOM     14  C   UNL     1      36.886 -25.640 -14.338  0.00  0.00    +0.002 C 
ATOM     15  C   UNL     1      37.101 -24.819 -13.070  0.00  0.00    +0.000 C 
ENDBRANCH   1  10
BRANCH   4  16
ATOM     16  C   UNL     1      35.582 -22.251 -18.063  0.00  0.00    +0.068 C 
BRANCH  16  17
ATOM     17  C   UNL     1      35.357 -21.285 -19.176  0.00  0.00    -0.016 C 
ATOM     18  C   UNL     1      34.937 -19.477 -21.259  0.00  0.00    +0.048 C 
ATOM     19  C   UNL     1      34.066 -21.060 -19.655  0.00  0.00    -0.003 C 
ATOM     20  C   UNL     1      36.437 -20.607 -19.739  0.00  0.00    -0.003 C 
ATOM     21  C   UNL     1      33.856 -20.156 -20.695  0.00  0.00    +0.014 C 
ATOM     22  C   UNL     1      36.228 -19.703 -20.781  0.00  0.00    +0.014 C 
BRANCH  18  23
ATOM     23  N   UNL     1      34.726 -18.571 -22.303  0.00  0.00    -0.312 N 
ATOM     24  N   UNL     1      34.549 -16.742 -24.491  0.00  0.00    +0.388 N 
ATOM     25  C   UNL     1      34.464 -19.068 -23.658  0.00  0.00    +0.068 C 
ATOM     26  C   UNL     1      35.388 -17.263 -22.225  0.00  0.00    +0.068 C 
ATOM     27  C   UNL     1      34.672 -16.245 -23.116  0.00  0.00    -0.056 C 
ATOM     28  C   UNL     1      33.778 -17.992 -24.503  0.00  0.00    -0.056 C 
ATOM     29  C   UNL     1      33.912 -15.740 -25.344  0.00  0.00    -0.101 C 
ATOM     30  H   UNL     1      35.481 -16.927 -24.859  0.00  0.00    -0.080 HD
ENDBRANCH  18  23
ENDBRANCH  16  17
ENDBRANCH   4  16
BRANCH   9  31
ATOM     31  C   UNL     1      30.907 -24.844 -13.139  0.00  0.00    +0.030 C 
BRANCH  31  32
ATOM     32  N   UNL     1      29.561 -25.394 -13.297  0.00  0.00    +0.390 N 
ATOM     33  H   UNL     1      29.613 -26.412 -13.355  0.00  0.00    -0.088 HD
ATOM     34  H   UNL     1      29.142 -25.027 -14.151  0.00  0.00    -0.088 HD
ATOM     35  H   UNL     1      28.988 -25.128 -12.496  0.00  0.00    -0.088 HD
ENDBRANCH  31  32
ENDBRANCH   9  31
TORSDOF 6
ENDMDL
MODEL 3
REMARK VINA RESULT:     -10.1     10.952     17.763
REMARK  Name = 46937081
REMARK  6 active torsions:
REMARK  status: ('A' for Active; 'I' for Inactive)
REMARK    1  A    between atoms: N_1  and  C_10
REMARK    2  A    between atoms: C_4  and  C_16
REMARK    3  A    between atoms: C_9  and  C_31
REMARK    4  A    between atoms: C_16  and  C_17
REMARK    5  A    between atoms: C_18  and  N_23
REMARK    6  A    between atoms: C_31  and  N_32
REMARK                            x       y       z     vdW  Elec       q    Type
REMARK                         _______ _______ _______ _____ _____    ______ ____
ROOT
ATOM      1  N   UNL     1      33.408  -5.356 -24.245  0.00  0.00    -0.267 N 
ATOM      2  N   UNL     1      32.128  -3.746 -25.505  0.00  0.00    -0.341 NA
ATOM      3  N   UNL     1      33.217  -3.080 -27.578  0.00  0.00    -0.188 NA
ATOM      4  C   UNL     1      34.605  -6.007 -24.389  0.00  0.00    +0.035 C 
ATOM      5  C   UNL     1      33.203  -4.532 -25.320  0.00  0.00    +0.199 C 
ATOM      6  C   UNL     1      34.293  -4.660 -26.171  0.00  0.00    +0.066 C 
ATOM      7  C   UNL     1      35.177  -5.595 -25.574  0.00  0.00    +0.016 C 
ATOM      8  C   UNL     1      34.272  -3.892 -27.335  0.00  0.00    +0.114 C 
ATOM      9  C   UNL     1      32.224  -3.057 -26.661  0.00  0.00    +0.042 C 
ENDROOT
BRANCH   1  10
ATOM     10  C   UNL     1      32.452  -5.516 -23.077  0.00  0.00    +0.079 C 
ATOM     11  C   UNL     1      31.739  -4.197 -22.734  0.00  0.00    +0.020 C 
ATOM     12  C   UNL     1      31.435  -6.645 -23.320  0.00  0.00    +0.020 C 
ATOM     13  C   UNL     1      30.787  -4.367 -21.550  0.00  0.00    +0.002 C 
ATOM     14  C   UNL     1      30.485  -6.805 -22.135  0.00  0.00    +0.002 C 
ATOM     15  C   UNL     1      29.786  -5.492 -21.791  0.00  0.00    +0.000 C 
ENDBRANCH   1  10
BRANCH   4  16
ATOM     16  C   UNL     1      35.117  -6.994 -23.357  0.00  0.00    +0.068 C 
BRANCH  16  17
ATOM     17  C   UNL     1      34.773  -8.413 -23.655  0.00  0.00    -0.016 C 
ATOM     18  C   UNL     1      34.129 -11.070 -24.215  0.00  0.00    +0.048 C 
ATOM     19  C   UNL     1      33.687  -9.016 -23.020  0.00  0.00    -0.003 C 
ATOM     20  C   UNL     1      35.536  -9.138 -24.570  0.00  0.00    -0.003 C 
ATOM     21  C   UNL     1      33.365 -10.344 -23.300  0.00  0.00    +0.014 C 
ATOM     22  C   UNL     1      35.215 -10.467 -24.850  0.00  0.00    +0.014 C 
BRANCH  18  23
ATOM     23  N   UNL     1      33.806 -12.402 -24.495  0.00  0.00    -0.312 N 
ATOM     24  N   UNL     1      32.903 -15.065 -24.998  0.00  0.00    +0.388 N 
ATOM     25  C   UNL     1      33.258 -12.756 -25.809  0.00  0.00    +0.068 C 
ATOM     26  C   UNL     1      33.388 -13.260 -23.380  0.00  0.00    +0.068 C 
ATOM     27  C   UNL     1      33.580 -14.735 -23.737  0.00  0.00    -0.056 C 
ATOM     28  C   UNL     1      33.453 -14.248 -26.087  0.00  0.00    -0.056 C 
ATOM     29  C   UNL     1      33.047 -16.488 -25.301  0.00  0.00    -0.101 C 
ATOM     30  H   UNL     1      31.909 -14.859 -24.902  0.00  0.00    -0.080 HD
ENDBRANCH  18  23
ENDBRANCH  16  17
ENDBRANCH   4  16
BRANCH   9  31
ATOM     31  C   UNL     1      31.081  -2.148 -26.969  0.00  0.00    +0.030 C 
BRANCH  31  32
ATOM     32  N   UNL     1      30.080  -2.133 -25.902  0.00  0.00    +0.390 N 
ATOM     33  H   UNL     1      30.184  -2.970 -25.327  0.00  0.00    -0.088 HD
ATOM     34  H   UNL     1      29.146  -2.117 -26.312  0.00  0.00    -0.088 HD
ATOM     35  H   UNL     1      30.212  -1.303 -25.324  0.00  0.00    -0.088 HD
ENDBRANCH  31  32
ENDBRANCH   9  31
TORSDOF 6
ENDMDL
MODEL 4
REMARK VINA RESULT:     -10.1      1.865      4.006
REMARK  Name = 46937081
REMARK  6 active torsions:
REMARK  status: ('A' for Active; 'I' for Inactive)
REMARK    1  A    between atoms: N_1  and  C_10
REMARK    2  A    between atoms: C_4  and  C_16
REMARK    3  A    between atoms: C_9  and  C_31
REMARK    4  A    between atoms: C_16  and  C_17
REMARK    5  A    between atoms: C_18  and  N_23
REMARK    6  A    between atoms: C_31  and  N_32
REMARK                            x       y       z     vdW  Elec       q    Type
REMARK                         _______ _______ _______ _____ _____    ______ ____
ROOT
ATOM      1  N   UNL     1      34.433 -23.146 -16.363  0.00  0.00    -0.267 N 
ATOM      2  N   UNL     1      32.847 -23.922 -14.720  0.00  0.00    -0.341 NA
ATOM      3  N   UNL     1      30.538 -23.461 -15.339  0.00  0.00    -0.188 NA
ATOM      4  C   UNL     1      34.379 -22.505 -17.573  0.00  0.00    +0.035 C 
ATOM      5  C   UNL     1      33.163 -23.325 -15.883  0.00  0.00    +0.199 C 
ATOM      6  C   UNL     1      32.276 -22.788 -16.808  0.00  0.00    +0.066 C 
ATOM      7  C   UNL     1      33.055 -22.270 -17.875  0.00  0.00    +0.016 C 
ATOM      8  C   UNL     1      30.920 -22.872 -16.496  0.00  0.00    +0.114 C 
ATOM      9  C   UNL     1      31.511 -23.942 -14.534  0.00  0.00    +0.042 C 
ENDROOT
BRANCH   1  10
ATOM     10  C   UNL     1      35.701 -23.590 -15.657  0.00  0.00    +0.079 C 
ATOM     11  C   UNL     1      36.510 -22.395 -15.124  0.00  0.00    +0.020 C 
ATOM     12  C   UNL     1      35.407 -24.601 -14.534  0.00  0.00    +0.020 C 
ATOM     13  C   UNL     1      37.789 -22.853 -14.424  0.00  0.00    +0.002 C 
ATOM     14  C   UNL     1      36.690 -25.050 -13.837  0.00  0.00    +0.002 C 
ATOM     15  C   UNL     1      37.495 -23.861 -13.317  0.00  0.00    +0.000 C 
ENDBRANCH   1  10
BRANCH   4  16
ATOM     16  C   UNL     1      35.628 -22.162 -18.362  0.00  0.00    +0.068 C 
BRANCH  16  17
ATOM     17  C   UNL     1      35.411 -21.136 -19.422  0.00  0.00    -0.016 C 
ATOM     18  C   UNL     1      35.006 -19.217 -21.406  0.00  0.00    +0.048 C 
ATOM     19  C   UNL     1      36.497 -20.430 -19.942  0.00  0.00    -0.003 C 
ATOM     20  C   UNL     1      34.124 -20.883 -19.894  0.00  0.00    -0.003 C 
ATOM     21  C   UNL     1      36.294 -19.471 -20.934  0.00  0.00    +0.014 C 
ATOM     22  C   UNL     1      33.921 -19.922 -20.886  0.00  0.00    +0.014 C 
BRANCH  18  23
ATOM     23  N   UNL     1      34.803 -18.254 -22.401  0.00  0.00    -0.312 N 
ATOM     24  N   UNL     1      34.141 -16.278 -24.354  0.00  0.00    +0.388 N 
ATOM     25  C   UNL     1      34.894 -16.830 -22.065  0.00  0.00    +0.068 C 
ATOM     26  C   UNL     1      33.901 -18.588 -23.509  0.00  0.00    +0.068 C 
ATOM     27  C   UNL     1      34.187 -17.698 -24.721  0.00  0.00    -0.056 C 
ATOM     28  C   UNL     1      35.147 -15.996 -23.323  0.00  0.00    -0.056 C 
ATOM     29  C   UNL     1      34.361 -15.436 -25.529  0.00  0.00    -0.101 C 
ATOM     30  H   UNL     1      33.217 -16.064 -23.979  0.00  0.00    -0.080 HD
ENDBRANCH  18  23
ENDBRANCH  16  17
ENDBRANCH   4  16
BRANCH   9  31
ATOM     31  C   UNL     1      31.044 -24.583 -13.268  0.00  0.00    +0.030 C 
BRANCH  31  32
ATOM     32  N   UNL     1      31.957 -25.628 -12.806  0.00  0.00    +0.390 N 
ATOM     33  H   UNL     1      32.171 -26.259 -13.579  0.00  0.00    -0.088 HD
ATOM     34  H   UNL     1      31.518 -26.154 -12.051  0.00  0.00    -0.088 HD
ATOM     35  H   UNL     1      32.820 -25.201 -12.466  0.00  0.00    -0.088 HD
ENDBRANCH  31  32
ENDBRANCH   9  31
TORSDOF 6
ENDMDL
