MODEL 1
REMARK VINA RESULT:     -11.5      0.000      0.000
REMARK  Name = 44177328
REMARK  2 active torsions:
REMARK  status: ('A' for Active; 'I' for Inactive)
REMARK    1  A    between atoms: N_1  and  C_15
REMARK    2  A    between atoms: C_6  and  C_23
REMARK                            x       y       z     vdW  Elec       q    Type
REMARK                         _______ _______ _______ _____ _____    ______ ____
ROOT
ATOM      1  N   UNL     1      32.383 -22.636 -17.828  0.00  0.00    -0.286 N 
ATOM      2  N   UNL     1      33.391 -23.508 -15.872  0.00  0.00    -0.386 NA
ATOM      3  N   UNL     1      30.881 -23.549 -14.622  0.00  0.00    -0.246 NA
ATOM      4  N   UNL     1      29.899 -22.676 -16.597  0.00  0.00    -0.340 N 
ATOM      5  C   UNL     1      32.273 -23.097 -16.503  0.00  0.00    +0.214 C 
ATOM      6  C   UNL     1      33.232 -23.940 -14.605  0.00  0.00    +0.135 C 
ATOM      7  C   UNL     1      31.040 -23.117 -15.890  0.00  0.00    +0.166 C 
ATOM      8  C   UNL     1      31.999 -23.959 -13.992  0.00  0.00    +0.185 C 
ATOM      9  H   UNL     1      31.576 -22.794 -18.370  0.00  0.00    +0.155 HD
ATOM     10  H   UNL     1      29.015 -22.687 -16.164  0.00  0.00    +0.144 HD
ATOM     11  H   UNL     1      29.989 -22.355 -17.524  0.00  0.00    +0.144 HD
ENDROOT
BRANCH   1  15
ATOM     12  N   UNL     1      36.286 -19.993 -20.723  0.00  0.00    -0.312 N 
ATOM     13  C   UNL     1      34.154 -20.447 -20.250  0.00  0.00    +0.016 C 
ATOM     14  C   UNL     1      35.474 -20.741 -19.900  0.00  0.00    +0.048 C 
ATOM     15  C   UNL     1      33.425 -21.993 -18.533  0.00  0.00    +0.050 C 
ATOM     16  C   UNL     1      33.110 -21.087 -19.552  0.00  0.00    +0.016 C 
ATOM     17  C   UNL     1      35.803 -21.642 -18.883  0.00  0.00    +0.016 C 
ATOM     18  C   UNL     1      34.751 -22.265 -18.205  0.00  0.00    +0.016 C 
ATOM     19  C   UNL     1      34.203 -19.500 -21.311  0.00  0.00    +0.017 C 
ATOM     20  C   UNL     1      35.527 -19.241 -21.579  0.00  0.00    +0.062 C 
ATOM     21  H   UNL     1      37.270 -20.000 -20.700  0.00  0.00    +0.152 HD
ENDBRANCH   1  15
BRANCH   6  23
ATOM     22  N   UNL     1      36.751 -25.220 -12.625  0.00  0.00    -0.242 NA
ATOM     23  C   UNL     1      34.429 -24.375 -13.932  0.00  0.00    +0.031 C 
ATOM     24  C   UNL     1      35.496 -24.885 -14.664  0.00  0.00    +0.023 C 
ATOM     25  C   UNL     1      34.522 -24.286 -12.547  0.00  0.00    +0.023 C 
ATOM     26  C   UNL     1      36.624 -25.290 -13.969  0.00  0.00    +0.099 C 
ATOM     27  C   UNL     1      35.694 -24.719 -11.947  0.00  0.00    +0.099 C 
ENDBRANCH   6  23
TORSDOF 2
ENDMDL
MODEL 2
REMARK VINA RESULT:     -10.4      1.287      2.087
REMARK  Name = 44177328
REMARK  2 active torsions:
REMARK  status: ('A' for Active; 'I' for Inactive)
REMARK    1  A    between atoms: N_1  and  C_15
REMARK    2  A    between atoms: C_6  and  C_23
REMARK                            x       y       z     vdW  Elec       q    Type
REMARK                         _______ _______ _______ _____ _____    ______ ____
ROOT
ATOM      1  N   UNL     1      33.000 -23.247 -16.498  0.00  0.00    -0.286 N 
ATOM      2  N   UNL     1      34.714 -23.891 -14.998  0.00  0.00    -0.386 NA
ATOM      3  N   UNL     1      32.806 -24.138 -12.957  0.00  0.00    -0.246 NA
ATOM      4  N   UNL     1      31.110 -23.491 -14.484  0.00  0.00    -0.340 N 
ATOM      5  C   UNL     1      33.406 -23.642 -15.209  0.00  0.00    +0.214 C 
ATOM      6  C   UNL     1      35.051 -24.266 -13.748  0.00  0.00    +0.135 C 
ATOM      7  C   UNL     1      32.469 -23.764 -14.208  0.00  0.00    +0.166 C 
ATOM      8  C   UNL     1      34.113 -24.387 -12.746  0.00  0.00    +0.185 C 
ATOM      9  H   UNL     1      32.082 -23.523 -16.725  0.00  0.00    +0.155 HD
ATOM     10  H   UNL     1      30.435 -23.576 -13.771  0.00  0.00    +0.144 HD
ATOM     11  H   UNL     1      30.837 -23.216 -15.389  0.00  0.00    +0.144 HD
ENDROOT
BRANCH   1  15
ATOM     12  N   UNL     1      35.321 -20.375 -20.617  0.00  0.00    -0.312 N 
ATOM     13  C   UNL     1      33.544 -21.110 -19.486  0.00  0.00    +0.016 C 
ATOM     14  C   UNL     1      34.940 -21.139 -19.537  0.00  0.00    +0.048 C 
ATOM     15  C   UNL     1      33.650 -22.533 -17.528  0.00  0.00    +0.050 C 
ATOM     16  C   UNL     1      32.888 -21.821 -18.461  0.00  0.00    +0.016 C 
ATOM     17  C   UNL     1      35.714 -21.845 -18.610  0.00  0.00    +0.016 C 
ATOM     18  C   UNL     1      35.041 -22.544 -17.603  0.00  0.00    +0.016 C 
ATOM     19  C   UNL     1      33.103 -20.303 -20.572  0.00  0.00    +0.017 C 
ATOM     20  C   UNL     1      34.218 -19.866 -21.248  0.00  0.00    +0.062 C 
ATOM     21  H   UNL     1      36.252 -20.219 -20.895  0.00  0.00    +0.152 HD
ENDBRANCH   1  15
BRANCH   6  23
ATOM     22  N   UNL     1      39.164 -25.035 -13.090  0.00  0.00    -0.242 NA
ATOM     23  C   UNL     1      36.450 -24.528 -13.524  0.00  0.00    +0.031 C 
ATOM     24  C   UNL     1      36.909 -24.821 -12.245  0.00  0.00    +0.023 C 
ATOM     25  C   UNL     1      37.346 -24.489 -14.587  0.00  0.00    +0.023 C 
ATOM     26  C   UNL     1      38.263 -25.065 -12.082  0.00  0.00    +0.099 C 
ATOM     27  C   UNL     1      38.681 -24.747 -14.319  0.00  0.00    +0.099 C 
ENDBRANCH   6  23
TORSDOF 2
ENDMDL
MODEL 3
REMARK VINA RESULT:     -10.3      1.798      6.634
REMARK  Name = 44177328
REMARK  2 active torsions:
REMARK  status: ('A' for Active; 'I' for Inactive)
REMARK    1  A    between atoms: N_1  and  C_15
REMARK    2  A    between atoms: C_6  and  C_23
REMARK                            x       y       z     vdW  Elec       q    Type
REMARK                         _______ _______ _______ _____ _____    ______ ____
ROOT
ATOM      1  N   UNL     1      34.651 -24.583 -13.231  0.00  0.00    -0.286 N 
ATOM      2  N   UNL     1      34.344 -23.547 -15.337  0.00  0.00    -0.386 NA
ATOM      3  N   UNL     1      31.595 -24.077 -15.173  0.00  0.00    -0.246 NA
ATOM      4  N   UNL     1      31.934 -25.108 -13.063  0.00  0.00    -0.340 N 
ATOM      5  C   UNL     1      33.801 -24.181 -14.278  0.00  0.00    +0.214 C 
ATOM      6  C   UNL     1      33.488 -23.183 -16.312  0.00  0.00    +0.135 C 
ATOM      7  C   UNL     1      32.451 -24.441 -14.196  0.00  0.00    +0.166 C 
ATOM      8  C   UNL     1      32.137 -23.444 -16.231  0.00  0.00    +0.185 C 
ATOM      9  H   UNL     1      34.214 -24.596 -12.349  0.00  0.00    +0.155 HD
ATOM     10  H   UNL     1      30.970 -25.297 -13.000  0.00  0.00    +0.144 HD
ATOM     11  H   UNL     1      32.538 -25.384 -12.337  0.00  0.00    +0.144 HD
ENDROOT
BRANCH   1  15
ATOM     12  N   UNL     1      39.999 -25.996 -13.328  0.00  0.00    -0.312 N 
ATOM     13  C   UNL     1      38.196 -25.048 -14.237  0.00  0.00    +0.016 C 
ATOM     14  C   UNL     1      38.663 -25.737 -13.116  0.00  0.00    +0.048 C 
ATOM     15  C   UNL     1      36.009 -24.971 -13.197  0.00  0.00    +0.050 C 
ATOM     16  C   UNL     1      36.842 -24.658 -14.277  0.00  0.00    +0.016 C 
ATOM     17  C   UNL     1      37.842 -26.055 -12.029  0.00  0.00    +0.016 C 
ATOM     18  C   UNL     1      36.503 -25.659 -12.091  0.00  0.00    +0.016 C 
ATOM     19  C   UNL     1      39.296 -24.904 -15.128  0.00  0.00    +0.017 C 
ATOM     20  C   UNL     1      40.390 -25.497 -14.541  0.00  0.00    +0.062 C 
ATOM     21  H   UNL     1      40.587 -26.472 -12.698  0.00  0.00    +0.152 HD
ENDBRANCH   1  15
BRANCH   6  23
ATOM     22  N   UNL     1      35.201 -21.202 -19.641  0.00  0.00    -0.242 NA
ATOM     23  C   UNL     1      34.071 -22.510 -17.444  0.00  0.00    +0.031 C 
ATOM     24  C   UNL     1      35.446 -22.315 -17.509  0.00  0.00    +0.023 C 
ATOM     25  C   UNL     1      33.260 -22.052 -18.477  0.00  0.00    +0.023 C 
ATOM     26  C   UNL     1      35.957 -21.661 -18.618  0.00  0.00    +0.099 C 
ATOM     27  C   UNL     1      33.869 -21.410 -19.544  0.00  0.00    +0.099 C 
ENDBRANCH   6  23
TORSDOF 2
ENDMDL
MODEL 4
REMARK VINA RESULT:     -10.1      1.761      6.783
REMARK  Name = 44177328
REMARK  2 active torsions:
REMARK  status: ('A' for Active; 'I' for Inactive)
REMARK    1  A    between atoms: N_1  and  C_15
REMARK    2  A    between atoms: C_6  and  C_23
REMARK                            x       y       z     vdW  Elec       q    Type
REMARK                         _______ _______ _______ _____ _____    ______ ____
ROOT
ATOM      1  N   UNL     1      34.075 -24.471 -14.079  0.00  0.00    -0.286 N 
ATOM      2  N   UNL     1      34.897 -23.211 -15.907  0.00  0.00    -0.386 NA
ATOM      3  N   UNL     1      37.317 -22.844 -14.538  0.00  0.00    -0.246 NA
ATOM      4  N   UNL     1      36.466 -24.111 -12.722  0.00  0.00    -0.340 N 
ATOM      5  C   UNL     1      35.108 -23.727 -14.680  0.00  0.00    +0.214 C 
ATOM      6  C   UNL     1      35.917 -22.509 -16.438  0.00  0.00    +0.135 C 
ATOM      7  C   UNL     1      36.297 -23.548 -14.007  0.00  0.00    +0.166 C 
ATOM      8  C   UNL     1      37.105 -22.328 -15.765  0.00  0.00    +0.185 C 
ATOM      9  H   UNL     1      34.396 -25.173 -13.469  0.00  0.00    +0.155 HD
ATOM     10  H   UNL     1      37.313 -23.986 -12.237  0.00  0.00    +0.144 HD
ATOM     11  H   UNL     1      35.736 -24.629 -12.313  0.00  0.00    +0.144 HD
ENDROOT
BRANCH   1  15
ATOM     12  N   UNL     1      28.590 -24.054 -14.670  0.00  0.00    -0.312 N 
ATOM     13  C   UNL     1      30.679 -23.525 -15.248  0.00  0.00    +0.016 C 
ATOM     14  C   UNL     1      29.912 -24.292 -14.367  0.00  0.00    +0.048 C 
ATOM     15  C   UNL     1      32.667 -24.406 -14.181  0.00  0.00    +0.050 C 
ATOM     16  C   UNL     1      32.084 -23.585 -15.152  0.00  0.00    +0.016 C 
ATOM     17  C   UNL     1      30.482 -25.118 -13.393  0.00  0.00    +0.016 C 
ATOM     18  C   UNL     1      31.878 -25.160 -13.315  0.00  0.00    +0.016 C 
ATOM     19  C   UNL     1      29.771 -22.821 -16.088  0.00  0.00    +0.017 C 
ATOM     20  C   UNL     1      28.495 -23.167 -15.708  0.00  0.00    +0.062 C 
ATOM     21  H   UNL     1      27.824 -24.463 -14.206  0.00  0.00    +0.152 HD
ENDBRANCH   1  15
BRANCH   6  23
ATOM     22  N   UNL     1      35.239 -20.881 -20.290  0.00  0.00    -0.242 NA
ATOM     23  C   UNL     1      35.687 -21.955 -17.748  0.00  0.00    +0.031 C 
ATOM     24  C   UNL     1      36.726 -21.342 -18.439  0.00  0.00    +0.023 C 
ATOM     25  C   UNL     1      34.424 -22.033 -18.326  0.00  0.00    +0.023 C 
ATOM     26  C   UNL     1      36.453 -20.826 -19.695  0.00  0.00    +0.099 C 
ATOM     27  C   UNL     1      34.254 -21.485 -19.588  0.00  0.00    +0.099 C 
ENDBRANCH   6  23
TORSDOF 2
ENDMDL
MODEL 5
REMARK VINA RESULT:      -9.8      7.155     11.254
REMARK  Name = 44177328
REMARK  2 active torsions:
REMARK  status: ('A' for Active; 'I' for Inactive)
REMARK    1  A    between atoms: N_1  and  C_15
REMARK    2  A    between atoms: C_6  and  C_23
REMARK                            x       y       z     vdW  Elec       q    Type
REMARK                         _______ _______ _______ _____ _____    ______ ____
ROOT
ATOM      1  N   UNL     1      33.332 -13.020 -23.775  0.00  0.00    -0.286 N 
ATOM      2  N   UNL     1      34.015 -15.235 -23.291  0.00  0.00    -0.386 NA
ATOM      3  N   UNL     1      33.740 -15.891 -26.004  0.00  0.00    -0.246 NA
ATOM      4  N   UNL     1      33.060 -13.664 -26.459  0.00  0.00    -0.340 N 
ATOM      5  C   UNL     1      33.616 -14.330 -24.207  0.00  0.00    +0.214 C 
ATOM      6  C   UNL     1      34.275 -16.473 -23.755  0.00  0.00    +0.135 C 
ATOM      7  C   UNL     1      33.481 -14.651 -25.539  0.00  0.00    +0.166 C 
ATOM      8  C   UNL     1      34.139 -16.795 -25.088  0.00  0.00    +0.185 C 
ATOM      9  H   UNL     1      33.504 -12.333 -24.458  0.00  0.00    +0.155 HD
ATOM     10  H   UNL     1      32.961 -13.888 -27.412  0.00  0.00    +0.144 HD
ATOM     11  H   UNL     1      32.864 -12.751 -26.145  0.00  0.00    +0.144 HD
ENDROOT
BRANCH   1  15
ATOM     12  N   UNL     1      31.445 -10.752 -19.095  0.00  0.00    -0.312 N 
ATOM     13  C   UNL     1      32.160 -10.610 -21.204  0.00  0.00    +0.016 C 
ATOM     14  C   UNL     1      31.901 -11.500 -20.158  0.00  0.00    +0.048 C 
ATOM     15  C   UNL     1      32.849 -12.501 -22.554  0.00  0.00    +0.050 C 
ATOM     16  C   UNL     1      32.643 -11.122 -22.425  0.00  0.00    +0.016 C 
ATOM     17  C   UNL     1      32.101 -12.879 -20.274  0.00  0.00    +0.016 C 
ATOM     18  C   UNL     1      32.582 -13.364 -21.494  0.00  0.00    +0.016 C 
ATOM     19  C   UNL     1      31.845  -9.306 -20.731  0.00  0.00    +0.017 C 
ATOM     20  C   UNL     1      31.408  -9.426 -19.432  0.00  0.00    +0.062 C 
ATOM     21  H   UNL     1      31.186 -11.120 -18.220  0.00  0.00    +0.152 HD
ENDBRANCH   1  15
BRANCH   6  23
ATOM     22  N   UNL     1      35.519 -19.314 -20.870  0.00  0.00    -0.242 NA
ATOM     23  C   UNL     1      34.698 -17.439 -22.774  0.00  0.00    +0.031 C 
ATOM     24  C   UNL     1      35.343 -17.020 -21.615  0.00  0.00    +0.023 C 
ATOM     25  C   UNL     1      34.461 -18.793 -22.981  0.00  0.00    +0.023 C 
ATOM     26  C   UNL     1      35.730 -17.989 -20.703  0.00  0.00    +0.099 C 
ATOM     27  C   UNL     1      34.888 -19.683 -22.008  0.00  0.00    +0.099 C 
ENDBRANCH   6  23
TORSDOF 2
ENDMDL
MODEL 6
REMARK VINA RESULT:      -9.2     10.858     14.305
REMARK  Name = 44177328
REMARK  2 active torsions:
REMARK  status: ('A' for Active; 'I' for Inactive)
REMARK    1  A    between atoms: N_1  and  C_15
REMARK    2  A    between atoms: C_6  and  C_23
REMARK                            x       y       z     vdW  Elec       q    Type
REMARK                         _______ _______ _______ _____ _____    ______ ____
ROOT
ATOM      1  N   UNL     1      31.640  -9.702 -21.421  0.00  0.00    -0.286 N 
ATOM      2  N   UNL     1      32.366 -11.659 -22.537  0.00  0.00    -0.386 NA
ATOM      3  N   UNL     1      32.321 -13.041 -20.096  0.00  0.00    -0.246 NA
ATOM      4  N   UNL     1      31.593 -11.064 -19.006  0.00  0.00    -0.340 N 
ATOM      5  C   UNL     1      32.004 -11.061 -21.384  0.00  0.00    +0.214 C 
ATOM      6  C   UNL     1      32.705 -12.961 -22.448  0.00  0.00    +0.135 C 
ATOM      7  C   UNL     1      31.981 -11.739 -20.186  0.00  0.00    +0.166 C 
ATOM      8  C   UNL     1      32.683 -13.639 -21.248  0.00  0.00    +0.185 C 
ATOM      9  H   UNL     1      30.980  -9.450 -20.735  0.00  0.00    +0.155 HD
ATOM     10  H   UNL     1      31.576 -11.543 -18.147  0.00  0.00    +0.144 HD
ATOM     11  H   UNL     1      31.341 -10.113 -19.044  0.00  0.00    +0.144 HD
ENDROOT
BRANCH   1  15
ATOM     12  N   UNL     1      33.437  -5.568 -24.629  0.00  0.00    -0.312 N 
ATOM     13  C   UNL     1      33.788  -7.342 -23.321  0.00  0.00    +0.016 C 
ATOM     14  C   UNL     1      32.797  -6.524 -23.872  0.00  0.00    +0.048 C 
ATOM     15  C   UNL     1      32.037  -8.628 -22.249  0.00  0.00    +0.050 C 
ATOM     16  C   UNL     1      33.398  -8.414 -22.494  0.00  0.00    +0.016 C 
ATOM     17  C   UNL     1      31.434  -6.728 -23.637  0.00  0.00    +0.016 C 
ATOM     18  C   UNL     1      31.072  -7.797 -22.812  0.00  0.00    +0.016 C 
ATOM     19  C   UNL     1      35.041  -6.842 -23.773  0.00  0.00    +0.017 C 
ATOM     20  C   UNL     1      34.793  -5.751 -24.575  0.00  0.00    +0.062 C 
ATOM     21  H   UNL     1      32.984  -4.855 -25.134  0.00  0.00    +0.152 HD
ENDBRANCH   1  15
BRANCH   6  23
ATOM     22  N   UNL     1      33.850 -14.832 -26.071  0.00  0.00    -0.242 NA
ATOM     23  C   UNL     1      33.094 -13.596 -23.680  0.00  0.00    +0.031 C 
ATOM     24  C   UNL     1      33.078 -12.880 -24.871  0.00  0.00    +0.023 C 
ATOM     25  C   UNL     1      33.489 -14.930 -23.682  0.00  0.00    +0.023 C 
ATOM     26  C   UNL     1      33.462 -13.537 -26.029  0.00  0.00    +0.099 C 
ATOM     27  C   UNL     1      33.853 -15.497 -24.894  0.00  0.00    +0.099 C 
ENDBRANCH   6  23
TORSDOF 2
ENDMDL
MODEL 7
REMARK VINA RESULT:      -9.0      1.968      6.755
REMARK  Name = 44177328
REMARK  2 active torsions:
REMARK  status: ('A' for Active; 'I' for Inactive)
REMARK    1  A    between atoms: N_1  and  C_15
REMARK    2  A    between atoms: C_6  and  C_23
REMARK                            x       y       z     vdW  Elec       q    Type
REMARK                         _______ _______ _______ _____ _____    ______ ____
ROOT
ATOM      1  N   UNL     1      34.989 -23.821 -14.356  0.00  0.00    -0.286 N 
ATOM      2  N   UNL     1      34.359 -22.823 -16.407  0.00  0.00    -0.386 NA
ATOM      3  N   UNL     1      31.703 -23.594 -15.942  0.00  0.00    -0.246 NA
ATOM      4  N   UNL     1      32.365 -24.585 -13.891  0.00  0.00    -0.340 N 
ATOM      5  C   UNL     1      33.996 -23.499 -15.299  0.00  0.00    +0.214 C 
ATOM      6  C   UNL     1      33.371 -22.539 -17.279  0.00  0.00    +0.135 C 
ATOM      7  C   UNL     1      32.692 -23.878 -15.070  0.00  0.00    +0.166 C 
ATOM      8  C   UNL     1      32.066 -22.918 -17.050  0.00  0.00    +0.185 C 
ATOM      9  H   UNL     1      34.655 -23.870 -13.431  0.00  0.00    +0.155 HD
ATOM     10  H   UNL     1      31.434 -24.858 -13.722  0.00  0.00    +0.144 HD
ATOM     11  H   UNL     1      33.068 -24.804 -13.238  0.00  0.00    +0.144 HD
ENDROOT
BRANCH   1  15
ATOM     12  N   UNL     1      40.373 -25.057 -14.665  0.00  0.00    -0.312 N 
ATOM     13  C   UNL     1      38.316 -25.399 -13.870  0.00  0.00    +0.016 C 
ATOM     14  C   UNL     1      39.076 -24.597 -14.725  0.00  0.00    +0.048 C 
ATOM     15  C   UNL     1      36.371 -24.088 -14.476  0.00  0.00    +0.050 C 
ATOM     16  C   UNL     1      36.937 -25.138 -13.744  0.00  0.00    +0.016 C 
ATOM     17  C   UNL     1      38.524 -23.546 -15.464  0.00  0.00    +0.016 C 
ATOM     18  C   UNL     1      37.154 -23.305 -15.322  0.00  0.00    +0.016 C 
ATOM     19  C   UNL     1      39.201 -26.354 -13.295  0.00  0.00    +0.017 C 
ATOM     20  C   UNL     1      40.458 -26.118 -13.803  0.00  0.00    +0.062 C 
ATOM     21  H   UNL     1      41.129 -24.677 -15.167  0.00  0.00    +0.152 HD
ENDBRANCH   1  15
BRANCH   6  23
ATOM     22  N   UNL     1      34.524 -20.424 -20.763  0.00  0.00    -0.242 NA
ATOM     23  C   UNL     1      33.763 -21.819 -18.463  0.00  0.00    +0.031 C 
ATOM     24  C   UNL     1      32.802 -21.189 -19.247  0.00  0.00    +0.023 C 
ATOM     25  C   UNL     1      35.103 -21.752 -18.827  0.00  0.00    +0.023 C 
ATOM     26  C   UNL     1      33.231 -20.511 -20.377  0.00  0.00    +0.099 C 
ATOM     27  C   UNL     1      35.429 -21.048 -19.976  0.00  0.00    +0.099 C 
ENDBRANCH   6  23
TORSDOF 2
ENDMDL
MODEL 8
REMARK VINA RESULT:      -9.0     10.887     14.300
REMARK  Name = 44177328
REMARK  2 active torsions:
REMARK  status: ('A' for Active; 'I' for Inactive)
REMARK    1  A    between atoms: N_1  and  C_15
REMARK    2  A    between atoms: C_6  and  C_23
REMARK                            x       y       z     vdW  Elec       q    Type
REMARK                         _______ _______ _______ _____ _____    ______ ____
ROOT
ATOM      1  N   UNL     1      32.006  -9.324 -21.889  0.00  0.00    -0.286 N 
ATOM      2  N   UNL     1      32.608 -11.510 -22.569  0.00  0.00    -0.386 NA
ATOM      3  N   UNL     1      31.697 -12.503 -20.109  0.00  0.00    -0.246 NA
ATOM      4  N   UNL     1      31.103 -10.301 -19.457  0.00  0.00    -0.340 N 
ATOM      5  C   UNL     1      32.089 -10.703 -21.622  0.00  0.00    +0.214 C 
ATOM      6  C   UNL     1      32.664 -12.821 -22.265  0.00  0.00    +0.135 C 
ATOM      7  C   UNL     1      31.640 -11.190 -20.415  0.00  0.00    +0.166 C 
ATOM      8  C   UNL     1      32.217 -13.308 -21.056  0.00  0.00    +0.185 C 
ATOM      9  H   UNL     1      31.254  -8.877 -21.437  0.00  0.00    +0.155 HD
ATOM     10  H   UNL     1      30.781 -10.643 -18.591  0.00  0.00    +0.144 HD
ATOM     11  H   UNL     1      31.051  -9.338 -19.655  0.00  0.00    +0.144 HD
ENDROOT
BRANCH   1  15
ATOM     12  N   UNL     1      34.879  -5.769 -25.006  0.00  0.00    -0.312 N 
ATOM     13  C   UNL     1      33.005  -6.430 -23.992  0.00  0.00    +0.016 C 
ATOM     14  C   UNL     1      34.342  -6.765 -24.221  0.00  0.00    +0.048 C 
ATOM     15  C   UNL     1      32.791  -8.455 -22.679  0.00  0.00    +0.050 C 
ATOM     16  C   UNL     1      32.216  -7.293 -23.205  0.00  0.00    +0.016 C 
ATOM     17  C   UNL     1      34.930  -7.922 -23.700  0.00  0.00    +0.016 C 
ATOM     18  C   UNL     1      34.128  -8.763 -22.924  0.00  0.00    +0.016 C 
ATOM     19  C   UNL     1      32.760  -5.201 -24.667  0.00  0.00    +0.017 C 
ATOM     20  C   UNL     1      33.931  -4.821 -25.281  0.00  0.00    +0.062 C 
ATOM     21  H   UNL     1      35.810  -5.745 -25.325  0.00  0.00    +0.152 HD
ENDBRANCH   1  15
BRANCH   6  23
ATOM     22  N   UNL     1      34.309 -15.346 -25.242  0.00  0.00    -0.242 NA
ATOM     23  C   UNL     1      33.223 -13.680 -23.277  0.00  0.00    +0.031 C 
ATOM     24  C   UNL     1      34.060 -14.731 -22.917  0.00  0.00    +0.023 C 
ATOM     25  C   UNL     1      32.928 -13.462 -24.618  0.00  0.00    +0.023 C 
ATOM     26  C   UNL     1      34.572 -15.527 -23.928  0.00  0.00    +0.099 C 
ATOM     27  C   UNL     1      33.491 -14.315 -25.554  0.00  0.00    +0.099 C 
ENDBRANCH   6  23
TORSDOF 2
ENDMDL
MODEL 9
REMARK VINA RESULT:      -8.8      1.890      7.337
REMARK  Name = 44177328
REMARK  2 active torsions:
REMARK  status: ('A' for Active; 'I' for Inactive)
REMARK    1  A    between atoms: N_1  and  C_15
REMARK    2  A    between atoms: C_6  and  C_23
REMARK                            x       y       z     vdW  Elec       q    Type
REMARK                         _______ _______ _______ _____ _____    ______ ____
ROOT
ATOM      1  N   UNL     1      34.538 -23.891 -15.440  0.00  0.00    -0.286 N 
ATOM      2  N   UNL     1      35.109 -22.472 -17.247  0.00  0.00    -0.386 NA
ATOM      3  N   UNL     1      37.658 -22.114 -16.133  0.00  0.00    -0.246 NA
ATOM      4  N   UNL     1      37.057 -23.540 -14.335  0.00  0.00    -0.340 N 
ATOM      5  C   UNL     1      35.474 -23.067 -16.094  0.00  0.00    +0.214 C 
ATOM      6  C   UNL     1      36.041 -21.695 -17.833  0.00  0.00    +0.135 C 
ATOM      7  C   UNL     1      36.726 -22.892 -15.546  0.00  0.00    +0.166 C 
ATOM      8  C   UNL     1      37.293 -21.519 -17.285  0.00  0.00    +0.185 C 
ATOM      9  H   UNL     1      34.947 -24.623 -14.925  0.00  0.00    +0.155 HD
ATOM     10  H   UNL     1      37.950 -23.418 -13.939  0.00  0.00    +0.144 HD
ATOM     11  H   UNL     1      36.394 -24.114 -13.887  0.00  0.00    +0.144 HD
ENDROOT
BRANCH   1  15
ATOM     12  N   UNL     1      29.024 -23.975 -15.002  0.00  0.00    -0.312 N 
ATOM     13  C   UNL     1      31.061 -24.609 -14.350  0.00  0.00    +0.016 C 
ATOM     14  C   UNL     1      30.366 -23.822 -15.271  0.00  0.00    +0.048 C 
ATOM     15  C   UNL     1      33.127 -23.872 -15.379  0.00  0.00    +0.050 C 
ATOM     16  C   UNL     1      32.469 -24.633 -14.406  0.00  0.00    +0.016 C 
ATOM     17  C   UNL     1      31.010 -23.055 -16.247  0.00  0.00    +0.016 C 
ATOM     18  C   UNL     1      32.407 -23.095 -16.284  0.00  0.00    +0.016 C 
ATOM     19  C   UNL     1      30.091 -25.239 -13.521  0.00  0.00    +0.017 C 
ATOM     20  C   UNL     1      28.848 -24.829 -13.947  0.00  0.00    +0.062 C 
ATOM     21  H   UNL     1      28.297 -23.534 -15.498  0.00  0.00    +0.152 HD
ENDBRANCH   1  15
BRANCH   6  23
ATOM     22  N   UNL     1      34.885 -19.821 -21.452  0.00  0.00    -0.242 NA
ATOM     23  C   UNL     1      35.647 -21.058 -19.064  0.00  0.00    +0.031 C 
ATOM     24  C   UNL     1      34.324 -21.114 -19.487  0.00  0.00    +0.023 C 
ATOM     25  C   UNL     1      36.590 -20.383 -19.832  0.00  0.00    +0.023 C 
ATOM     26  C   UNL     1      33.997 -20.485 -20.677  0.00  0.00    +0.099 C 
ATOM     27  C   UNL     1      36.161 -19.787 -21.008  0.00  0.00    +0.099 C 
ENDBRANCH   6  23
TORSDOF 2
ENDMDL
