MODEL 1
REMARK VINA RESULT:     -11.5      0.000      0.000
REMARK  Name = 54671008
REMARK  7 active torsions:
REMARK  status: ('A' for Active; 'I' for Inactive)
REMARK    1  A    between atoms: C_4  and  C_21
REMARK    2  A    between atoms: C_6  and  C_11
REMARK    3  A    between atoms: C_8  and  O_34
REMARK    4  A    between atoms: N_10  and  C_13
REMARK    5  A    between atoms: C_13  and  C_15
REMARK    6  A    between atoms: C_21  and  N_25
REMARK    7  A    between atoms: C_26  and  C_31
REMARK                            x       y       z     vdW  Elec       q    Type
REMARK                         _______ _______ _______ _____ _____    ______ ____
ROOT
ATOM      1  O   UNL     1      30.092 -22.478 -16.919  0.00  0.00    -0.271 OA
ATOM      2  N   UNL     1      31.309 -23.333 -15.111  0.00  0.00    -0.232 N 
ATOM      3  N   UNL     1      33.679 -23.443 -15.259  0.00  0.00    -0.386 NA
ATOM      4  C   UNL     1      32.572 -23.638 -14.611  0.00  0.00    +0.182 C 
ATOM      5  C   UNL     1      31.158 -22.780 -16.386  0.00  0.00    +0.265 C 
ATOM      6  C   UNL     1      33.578 -22.902 -16.511  0.00  0.00    +0.199 C 
ATOM      7  C   UNL     1      30.127 -23.593 -14.292  0.00  0.00    +0.122 C 
ATOM      8  C   UNL     1      32.434 -22.559 -17.120  0.00  0.00    +0.245 C 
ENDROOT
BRANCH   6  11
ATOM      9  O   UNL     1      35.921 -22.828 -16.650  0.00  0.00    -0.268 OA
ATOM     10  N   UNL     1      34.662 -22.333 -18.548  0.00  0.00    -0.295 N 
ATOM     11  C   UNL     1      34.845 -22.689 -17.225  0.00  0.00    +0.275 C 
ATOM     12  H   UNL     1      33.742 -22.256 -18.889  0.00  0.00    +0.150 HD
BRANCH  10  13
ATOM     13  C   UNL     1      35.755 -22.070 -19.456  0.00  0.00    +0.117 C 
BRANCH  13  15
ATOM     14  F   UNL     1      35.317 -17.003 -21.872  0.00  0.00    -0.204 F 
ATOM     15  C   UNL     1      35.638 -20.719 -20.101  0.00  0.00    -0.002 C 
ATOM     16  C   UNL     1      36.769 -19.914 -20.242  0.00  0.00    -0.000 C 
ATOM     17  C   UNL     1      34.400 -20.269 -20.557  0.00  0.00    -0.000 C 
ATOM     18  C   UNL     1      36.660 -18.659 -20.840  0.00  0.00    +0.029 C 
ATOM     19  C   UNL     1      34.291 -19.014 -21.155  0.00  0.00    +0.029 C 
ATOM     20  C   UNL     1      35.421 -18.209 -21.297  0.00  0.00    +0.140 C 
ENDBRANCH  13  15
ENDBRANCH  10  13
ENDBRANCH   6  11
BRANCH   4  21
ATOM     21  C   UNL     1      32.664 -24.234 -13.226  0.00  0.00    +0.117 C 
ATOM     22  C   UNL     1      32.483 -23.140 -12.183  0.00  0.00    +0.028 C 
ATOM     23  C   UNL     1      31.623 -25.333 -13.068  0.00  0.00    +0.028 C 
BRANCH  21  25
ATOM     24  O   UNL     1      34.589 -23.896 -11.123  0.00  0.00    -0.265 OA
ATOM     25  N   UNL     1      33.999 -24.773 -13.188  0.00  0.00    -0.293 N 
ATOM     26  C   UNL     1      34.862 -24.555 -12.122  0.00  0.00    +0.302 C 
ATOM     27  H   UNL     1      34.311 -25.317 -13.947  0.00  0.00    +0.150 HD
BRANCH  26  31
ATOM     28  O   UNL     1      36.995 -24.864 -13.322  0.00  0.00    -0.416 OA
ATOM     29  N   UNL     1      36.779 -25.986 -11.399  0.00  0.00    -0.102 NA
ATOM     30  N   UNL     1      38.023 -26.277 -11.926  0.00  0.00    -0.111 NA
ATOM     31  C   UNL     1      36.215 -25.158 -12.246  0.00  0.00    +0.304 A 
ATOM     32  C   UNL     1      38.106 -25.601 -13.048  0.00  0.00    +0.227 A 
ATOM     33  C   UNL     1      39.203 -25.531 -14.022  0.00  0.00    +0.097 C 
ENDBRANCH  26  31
ENDBRANCH  21  25
ENDBRANCH   4  21
BRANCH   8  34
ATOM     34  O   UNL     1      32.375 -22.017 -18.384  0.00  0.00    -0.370 OA
ATOM     35  H   UNL     1      31.547 -21.777 -18.752  0.00  0.00    +0.211 HD
ENDBRANCH   8  34
TORSDOF 7
ENDMDL
MODEL 2
REMARK VINA RESULT:      -9.7      2.819      7.607
REMARK  Name = 54671008
REMARK  7 active torsions:
REMARK  status: ('A' for Active; 'I' for Inactive)
REMARK    1  A    between atoms: C_4  and  C_21
REMARK    2  A    between atoms: C_6  and  C_11
REMARK    3  A    between atoms: C_8  and  O_34
REMARK    4  A    between atoms: N_10  and  C_13
REMARK    5  A    between atoms: C_13  and  C_15
REMARK    6  A    between atoms: C_21  and  N_25
REMARK    7  A    between atoms: C_26  and  C_31
REMARK                            x       y       z     vdW  Elec       q    Type
REMARK                         _______ _______ _______ _____ _____    ______ ____
ROOT
ATOM      1  O   UNL     1      37.590 -25.452 -11.182  0.00  0.00    -0.271 OA
ATOM      2  N   UNL     1      37.407 -24.207 -13.156  0.00  0.00    -0.232 N 
ATOM      3  N   UNL     1      35.255 -23.515 -13.892  0.00  0.00    -0.386 NA
ATOM      4  C   UNL     1      36.543 -23.565 -14.040  0.00  0.00    +0.182 C 
ATOM      5  C   UNL     1      36.916 -24.856 -12.020  0.00  0.00    +0.265 C 
ATOM      6  C   UNL     1      34.731 -24.137 -12.792  0.00  0.00    +0.199 C 
ATOM      7  C   UNL     1      38.844 -24.199 -13.420  0.00  0.00    +0.122 C 
ATOM      8  C   UNL     1      35.437 -24.791 -11.860  0.00  0.00    +0.245 C 
ENDROOT
BRANCH   6  11
ATOM      9  O   UNL     1      32.738 -23.085 -12.132  0.00  0.00    -0.268 OA
ATOM     10  N   UNL     1      32.627 -25.186 -13.135  0.00  0.00    -0.295 N 
ATOM     11  C   UNL     1      33.270 -24.065 -12.646  0.00  0.00    +0.275 C 
ATOM     12  H   UNL     1      33.173 -25.907 -13.524  0.00  0.00    +0.150 HD
BRANCH  10  13
ATOM     13  C   UNL     1      31.192 -25.352 -13.104  0.00  0.00    +0.117 C 
BRANCH  13  15
ATOM     14  F   UNL     1      28.639 -22.380 -17.147  0.00  0.00    -0.204 F 
ATOM     15  C   UNL     1      30.511 -24.560 -14.183  0.00  0.00    -0.002 C 
ATOM     16  C   UNL     1      31.264 -23.757 -15.039  0.00  0.00    -0.000 C 
ATOM     17  C   UNL     1      29.125 -24.626 -14.328  0.00  0.00    -0.000 C 
ATOM     18  C   UNL     1      30.632 -23.021 -16.040  0.00  0.00    +0.029 C 
ATOM     19  C   UNL     1      28.492 -23.889 -15.329  0.00  0.00    +0.029 C 
ATOM     20  C   UNL     1      29.246 -23.087 -16.185  0.00  0.00    +0.140 C 
ENDBRANCH  13  15
ENDBRANCH  10  13
ENDBRANCH   6  11
BRANCH   4  21
ATOM     21  C   UNL     1      37.138 -22.882 -15.248  0.00  0.00    +0.117 C 
ATOM     22  C   UNL     1      37.619 -21.489 -14.866  0.00  0.00    +0.028 C 
ATOM     23  C   UNL     1      38.272 -23.728 -15.811  0.00  0.00    +0.028 C 
BRANCH  21  25
ATOM     24  O   UNL     1      37.021 -21.363 -17.681  0.00  0.00    -0.265 OA
ATOM     25  N   UNL     1      36.032 -22.816 -16.168  0.00  0.00    -0.293 N 
ATOM     26  C   UNL     1      36.068 -22.051 -17.325  0.00  0.00    +0.302 C 
ATOM     27  H   UNL     1      35.219 -23.335 -15.968  0.00  0.00    +0.150 HD
BRANCH  26  31
ATOM     28  O   UNL     1      34.510 -20.986 -18.914  0.00  0.00    -0.416 OA
ATOM     29  N   UNL     1      33.976 -23.056 -18.253  0.00  0.00    -0.102 NA
ATOM     30  N   UNL     1      33.001 -22.623 -19.132  0.00  0.00    -0.111 NA
ATOM     31  C   UNL     1      34.836 -22.069 -18.156  0.00  0.00    +0.304 A 
ATOM     32  C   UNL     1      33.353 -21.411 -19.492  0.00  0.00    +0.227 A 
ATOM     33  C   UNL     1      32.689 -20.476 -20.408  0.00  0.00    +0.097 C 
ENDBRANCH  26  31
ENDBRANCH  21  25
ENDBRANCH   4  21
BRANCH   8  34
ATOM     34  O   UNL     1      34.872 -25.406 -10.766  0.00  0.00    -0.370 OA
ATOM     35  H   UNL     1      34.120 -25.954 -10.873  0.00  0.00    +0.211 HD
ENDBRANCH   8  34
TORSDOF 7
ENDMDL
MODEL 3
REMARK VINA RESULT:      -9.7      5.879      9.898
REMARK  Name = 54671008
REMARK  7 active torsions:
REMARK  status: ('A' for Active; 'I' for Inactive)
REMARK    1  A    between atoms: C_4  and  C_21
REMARK    2  A    between atoms: C_6  and  C_11
REMARK    3  A    between atoms: C_8  and  O_34
REMARK    4  A    between atoms: N_10  and  C_13
REMARK    5  A    between atoms: C_13  and  C_15
REMARK    6  A    between atoms: C_21  and  N_25
REMARK    7  A    between atoms: C_26  and  C_31
REMARK                            x       y       z     vdW  Elec       q    Type
REMARK                         _______ _______ _______ _____ _____    ______ ____
ROOT
ATOM      1  O   UNL     1      32.447 -19.108 -25.528  0.00  0.00    -0.271 OA
ATOM      2  N   UNL     1      33.928 -18.645 -23.775  0.00  0.00    -0.232 N 
ATOM      3  N   UNL     1      34.526 -16.387 -23.331  0.00  0.00    -0.386 NA
ATOM      4  C   UNL     1      34.609 -17.655 -23.070  0.00  0.00    +0.182 C 
ATOM      5  C   UNL     1      33.088 -18.314 -24.842  0.00  0.00    +0.265 C 
ATOM      6  C   UNL     1      33.714 -16.018 -24.368  0.00  0.00    +0.199 C 
ATOM      7  C   UNL     1      34.093 -20.046 -23.392  0.00  0.00    +0.122 C 
ATOM      8  C   UNL     1      33.000 -16.857 -25.132  0.00  0.00    +0.245 C 
ENDROOT
BRANCH   6  11
ATOM      9  O   UNL     1      33.551 -14.161 -25.796  0.00  0.00    -0.268 OA
ATOM     10  N   UNL     1      33.672 -13.809 -23.495  0.00  0.00    -0.295 N 
ATOM     11  C   UNL     1      33.636 -14.577 -24.643  0.00  0.00    +0.275 C 
ATOM     12  H   UNL     1      33.742 -14.267 -22.627  0.00  0.00    +0.150 HD
BRANCH  10  13
ATOM     13  C   UNL     1      33.610 -12.364 -23.506  0.00  0.00    +0.117 C 
BRANCH  13  15
ATOM     14  F   UNL     1      30.547 -10.352 -19.232  0.00  0.00    -0.204 F 
ATOM     15  C   UNL     1      32.793 -11.828 -22.366  0.00  0.00    -0.002 C 
ATOM     16  C   UNL     1      32.435 -10.480 -22.339  0.00  0.00    -0.000 C 
ATOM     17  C   UNL     1      32.392 -12.677 -21.334  0.00  0.00    -0.000 C 
ATOM     18  C   UNL     1      31.677  -9.982 -21.280  0.00  0.00    +0.029 C 
ATOM     19  C   UNL     1      31.634 -12.178 -20.275  0.00  0.00    +0.029 C 
ATOM     20  C   UNL     1      31.276 -10.830 -20.248  0.00  0.00    +0.140 C 
ENDBRANCH  13  15
ENDBRANCH  10  13
ENDBRANCH   6  11
BRANCH   4  21
ATOM     21  C   UNL     1      35.500 -18.081 -21.927  0.00  0.00    +0.117 C 
ATOM     22  C   UNL     1      36.775 -18.706 -22.475  0.00  0.00    +0.028 C 
ATOM     23  C   UNL     1      35.804 -16.883 -21.038  0.00  0.00    +0.028 C 
BRANCH  21  25
ATOM     24  O   UNL     1      36.402 -19.907 -19.904  0.00  0.00    -0.265 OA
ATOM     25  N   UNL     1      34.700 -19.056 -21.231  0.00  0.00    -0.293 N 
ATOM     26  C   UNL     1      35.227 -19.899 -20.263  0.00  0.00    +0.302 C 
ATOM     27  H   UNL     1      33.743 -19.126 -21.451  0.00  0.00    +0.150 HD
BRANCH  26  31
ATOM     28  O   UNL     1      34.706 -21.731 -18.694  0.00  0.00    -0.416 OA
ATOM     29  N   UNL     1      33.005 -20.999 -19.951  0.00  0.00    -0.102 NA
ATOM     30  N   UNL     1      32.532 -22.015 -19.141  0.00  0.00    -0.111 NA
ATOM     31  C   UNL     1      34.277 -20.867 -19.656  0.00  0.00    +0.304 A 
ATOM     32  C   UNL     1      33.558 -22.412 -18.426  0.00  0.00    +0.227 A 
ATOM     33  C   UNL     1      33.637 -23.461 -17.402  0.00  0.00    +0.097 C 
ENDBRANCH  26  31
ENDBRANCH  21  25
ENDBRANCH   4  21
BRANCH   8  34
ATOM     34  O   UNL     1      32.193 -16.445 -26.168  0.00  0.00    -0.370 OA
ATOM     35  H   UNL     1      32.569 -16.235 -27.001  0.00  0.00    +0.211 HD
ENDBRANCH   8  34
TORSDOF 7
ENDMDL
MODEL 4
REMARK VINA RESULT:      -9.7      1.776      2.348
REMARK  Name = 54671008
REMARK  7 active torsions:
REMARK  status: ('A' for Active; 'I' for Inactive)
REMARK    1  A    between atoms: C_4  and  C_21
REMARK    2  A    between atoms: C_6  and  C_11
REMARK    3  A    between atoms: C_8  and  O_34
REMARK    4  A    between atoms: N_10  and  C_13
REMARK    5  A    between atoms: C_13  and  C_15
REMARK    6  A    between atoms: C_21  and  N_25
REMARK    7  A    between atoms: C_26  and  C_31
REMARK                            x       y       z     vdW  Elec       q    Type
REMARK                         _______ _______ _______ _____ _____    ______ ____
ROOT
ATOM      1  O   UNL     1      31.467 -22.591 -17.384  0.00  0.00    -0.271 OA
ATOM      2  N   UNL     1      33.011 -23.439 -15.841  0.00  0.00    -0.232 N 
ATOM      3  N   UNL     1      35.330 -23.055 -16.193  0.00  0.00    -0.386 NA
ATOM      4  C   UNL     1      34.356 -23.556 -15.499  0.00  0.00    +0.182 C 
ATOM      5  C   UNL     1      32.623 -22.750 -16.993  0.00  0.00    +0.265 C 
ATOM      6  C   UNL     1      34.995 -22.370 -17.329  0.00  0.00    +0.199 C 
ATOM      7  C   UNL     1      31.993 -24.043 -14.983  0.00  0.00    +0.122 C 
ATOM      8  C   UNL     1      33.748 -22.177 -17.781  0.00  0.00    +0.245 C 
ENDROOT
BRANCH   6  11
ATOM      9  O   UNL     1      37.277 -22.091 -17.811  0.00  0.00    -0.268 OA
ATOM     10  N   UNL     1      35.702 -20.977 -19.119  0.00  0.00    -0.295 N 
ATOM     11  C   UNL     1      36.116 -21.810 -18.098  0.00  0.00    +0.275 C 
ATOM     12  H   UNL     1      34.736 -20.833 -19.244  0.00  0.00    +0.150 HD
BRANCH  10  13
ATOM     13  C   UNL     1      36.617 -20.306 -20.014  0.00  0.00    +0.117 C 
BRANCH  13  15
ATOM     14  F   UNL     1      33.916 -17.510 -24.087  0.00  0.00    -0.204 F 
ATOM     15  C   UNL     1      35.897 -19.560 -21.100  0.00  0.00    -0.002 C 
ATOM     16  C   UNL     1      34.660 -20.016 -21.557  0.00  0.00    -0.000 C 
ATOM     17  C   UNL     1      36.464 -18.412 -21.653  0.00  0.00    -0.000 C 
ATOM     18  C   UNL     1      33.991 -19.324 -22.566  0.00  0.00    +0.029 C 
ATOM     19  C   UNL     1      35.795 -17.720 -22.662  0.00  0.00    +0.029 C 
ATOM     20  C   UNL     1      34.558 -18.176 -23.119  0.00  0.00    +0.140 C 
ENDBRANCH  13  15
ENDBRANCH  10  13
ENDBRANCH   6  11
BRANCH   4  21
ATOM     21  C   UNL     1      34.707 -24.314 -14.241  0.00  0.00    +0.117 C 
ATOM     22  C   UNL     1      34.432 -23.443 -13.022  0.00  0.00    +0.028 C 
ATOM     23  C   UNL     1      33.917 -25.614 -14.185  0.00  0.00    +0.028 C 
BRANCH  21  25
ATOM     24  O   UNL     1      36.515 -25.208 -12.198  0.00  0.00    -0.265 OA
ATOM     25  N   UNL     1      36.116 -24.568 -14.391  0.00  0.00    -0.293 N 
ATOM     26  C   UNL     1      36.914 -25.001 -13.341  0.00  0.00    +0.302 C 
ATOM     27  H   UNL     1      36.530 -24.429 -15.275  0.00  0.00    +0.150 HD
BRANCH  26  31
ATOM     28  O   UNL     1      38.997 -26.317 -13.235  0.00  0.00    -0.416 OA
ATOM     29  N   UNL     1      39.124 -24.363 -14.318  0.00  0.00    -0.102 NA
ATOM     30  N   UNL     1      40.371 -24.957 -14.360  0.00  0.00    -0.111 NA
ATOM     31  C   UNL     1      38.354 -25.192 -13.653  0.00  0.00    +0.304 A 
ATOM     32  C   UNL     1      40.251 -26.094 -13.716  0.00  0.00    +0.227 A 
ATOM     33  C   UNL     1      41.255 -27.131 -13.449  0.00  0.00    +0.097 C 
ENDBRANCH  26  31
ENDBRANCH  21  25
ENDBRANCH   4  21
BRANCH   8  34
ATOM     34  O   UNL     1      33.453 -21.481 -18.931  0.00  0.00    -0.370 OA
ATOM     35  H   UNL     1      33.070 -21.926 -19.662  0.00  0.00    +0.211 HD
ENDBRANCH   8  34
TORSDOF 7
ENDMDL
MODEL 5
REMARK VINA RESULT:      -9.4      6.178     10.145
REMARK  Name = 54671008
REMARK  7 active torsions:
REMARK  status: ('A' for Active; 'I' for Inactive)
REMARK    1  A    between atoms: C_4  and  C_21
REMARK    2  A    between atoms: C_6  and  C_11
REMARK    3  A    between atoms: C_8  and  O_34
REMARK    4  A    between atoms: N_10  and  C_13
REMARK    5  A    between atoms: C_13  and  C_15
REMARK    6  A    between atoms: C_21  and  N_25
REMARK    7  A    between atoms: C_26  and  C_31
REMARK                            x       y       z     vdW  Elec       q    Type
REMARK                         _______ _______ _______ _____ _____    ______ ____
ROOT
ATOM      1  O   UNL     1      33.224 -15.557 -25.400  0.00  0.00    -0.271 OA
ATOM      2  N   UNL     1      34.386 -16.966 -23.936  0.00  0.00    -0.232 N 
ATOM      3  N   UNL     1      34.704 -16.283 -21.681  0.00  0.00    -0.386 NA
ATOM      4  C   UNL     1      34.864 -17.143 -22.639  0.00  0.00    +0.182 C 
ATOM      5  C   UNL     1      33.683 -15.811 -24.288  0.00  0.00    +0.265 C 
ATOM      6  C   UNL     1      34.019 -15.138 -21.982  0.00  0.00    +0.199 C 
ATOM      7  C   UNL     1      34.623 -18.003 -24.939  0.00  0.00    +0.122 C 
ATOM      8  C   UNL     1      33.505 -14.832 -23.181  0.00  0.00    +0.245 C 
ENDROOT
BRANCH   6  11
ATOM      9  O   UNL     1      34.825 -13.732 -20.281  0.00  0.00    -0.268 OA
ATOM     10  N   UNL     1      32.524 -13.880 -20.629  0.00  0.00    -0.295 N 
ATOM     11  C   UNL     1      33.850 -14.180 -20.879  0.00  0.00    +0.275 C 
ATOM     12  H   UNL     1      31.834 -14.310 -21.184  0.00  0.00    +0.150 HD
BRANCH  10  13
ATOM     13  C   UNL     1      32.101 -12.964 -19.594  0.00  0.00    +0.117 C 
BRANCH  13  15
ATOM     14  F   UNL     1      31.518  -7.711 -21.534  0.00  0.00    -0.204 F 
ATOM     15  C   UNL     1      31.946 -11.563 -20.112  0.00  0.00    -0.002 C 
ATOM     16  C   UNL     1      31.944 -10.488 -19.223  0.00  0.00    -0.000 C 
ATOM     17  C   UNL     1      31.803 -11.336 -21.480  0.00  0.00    -0.000 C 
ATOM     18  C   UNL     1      31.799  -9.187 -19.703  0.00  0.00    +0.029 C 
ATOM     19  C   UNL     1      31.658 -10.035 -21.961  0.00  0.00    +0.029 C 
ATOM     20  C   UNL     1      31.656  -8.960 -21.072  0.00  0.00    +0.140 C 
ENDBRANCH  13  15
ENDBRANCH  10  13
ENDBRANCH   6  11
BRANCH   4  21
ATOM     21  C   UNL     1      35.616 -18.414 -22.325  0.00  0.00    +0.117 C 
ATOM     22  C   UNL     1      35.874 -19.189 -23.609  0.00  0.00    +0.028 C 
ATOM     23  C   UNL     1      36.915 -18.079 -21.605  0.00  0.00    +0.028 C 
BRANCH  21  25
ATOM     24  O   UNL     1      36.290 -20.537 -20.514  0.00  0.00    -0.265 OA
ATOM     25  N   UNL     1      34.711 -19.127 -21.461  0.00  0.00    -0.293 N 
ATOM     26  C   UNL     1      35.131 -20.144 -20.615  0.00  0.00    +0.302 C 
ATOM     27  H   UNL     1      33.756 -18.882 -21.470  0.00  0.00    +0.150 HD
BRANCH  26  31
ATOM     28  O   UNL     1      34.408 -21.682 -18.828  0.00  0.00    -0.416 OA
ATOM     29  N   UNL     1      32.775 -20.617 -19.926  0.00  0.00    -0.102 NA
ATOM     30  N   UNL     1      32.190 -21.427 -18.972  0.00  0.00    -0.111 NA
ATOM     31  C   UNL     1      34.070 -20.798 -19.806  0.00  0.00    +0.304 A 
ATOM     32  C   UNL     1      33.179 -22.030 -18.355  0.00  0.00    +0.227 A 
ATOM     33  C   UNL     1      33.145 -23.001 -17.254  0.00  0.00    +0.097 C 
ENDBRANCH  26  31
ENDBRANCH  21  25
ENDBRANCH   4  21
BRANCH   8  34
ATOM     34  O   UNL     1      32.822 -13.666 -23.444  0.00  0.00    -0.370 OA
ATOM     35  H   UNL     1      33.158 -13.057 -24.071  0.00  0.00    +0.211 HD
ENDBRANCH   8  34
TORSDOF 7
ENDMDL
MODEL 6
REMARK VINA RESULT:      -9.3     11.637     16.570
REMARK  Name = 54671008
REMARK  7 active torsions:
REMARK  status: ('A' for Active; 'I' for Inactive)
REMARK    1  A    between atoms: C_4  and  C_21
REMARK    2  A    between atoms: C_6  and  C_11
REMARK    3  A    between atoms: C_8  and  O_34
REMARK    4  A    between atoms: N_10  and  C_13
REMARK    5  A    between atoms: C_13  and  C_15
REMARK    6  A    between atoms: C_21  and  N_25
REMARK    7  A    between atoms: C_26  and  C_31
REMARK                            x       y       z     vdW  Elec       q    Type
REMARK                         _______ _______ _______ _____ _____    ______ ____
ROOT
ATOM      1  O   UNL     1      35.746  -7.646 -23.652  0.00  0.00    -0.271 OA
ATOM      2  N   UNL     1      33.818  -8.273 -22.482  0.00  0.00    -0.232 N 
ATOM      3  N   UNL     1      32.808 -10.372 -22.956  0.00  0.00    -0.386 NA
ATOM      4  C   UNL     1      32.845  -9.253 -22.300  0.00  0.00    +0.182 C 
ATOM      5  C   UNL     1      34.844  -8.447 -23.414  0.00  0.00    +0.265 C 
ATOM      6  C   UNL     1      33.795 -10.585 -23.878  0.00  0.00    +0.199 C 
ATOM      7  C   UNL     1      33.764  -7.048 -21.686  0.00  0.00    +0.122 C 
ATOM      8  C   UNL     1      34.792  -9.735 -24.159  0.00  0.00    +0.245 C 
ENDROOT
BRANCH   6  11
ATOM      9  O   UNL     1      33.801 -11.888 -25.832  0.00  0.00    -0.268 OA
ATOM     10  N   UNL     1      33.592 -12.950 -23.768  0.00  0.00    -0.295 N 
ATOM     11  C   UNL     1      33.732 -11.860 -24.606  0.00  0.00    +0.275 C 
ATOM     12  H   UNL     1      33.549 -12.791 -22.797  0.00  0.00    +0.150 HD
BRANCH  10  13
ATOM     13  C   UNL     1      33.506 -14.311 -24.246  0.00  0.00    +0.117 C 
BRANCH  13  15
ATOM     14  F   UNL     1      35.841 -17.961 -20.650  0.00  0.00    -0.204 F 
ATOM     15  C   UNL     1      34.129 -15.284 -23.287  0.00  0.00    -0.002 C 
ATOM     16  C   UNL     1      34.648 -16.491 -23.757  0.00  0.00    -0.000 C 
ATOM     17  C   UNL     1      34.188 -14.982 -21.926  0.00  0.00    -0.000 C 
ATOM     18  C   UNL     1      35.226 -17.395 -22.866  0.00  0.00    +0.029 C 
ATOM     19  C   UNL     1      34.766 -15.886 -21.035  0.00  0.00    +0.029 C 
ATOM     20  C   UNL     1      35.285 -17.093 -21.505  0.00  0.00    +0.140 C 
ENDBRANCH  13  15
ENDBRANCH  10  13
ENDBRANCH   6  11
BRANCH   4  21
ATOM     21  C   UNL     1      31.764  -9.002 -21.277  0.00  0.00    +0.117 C 
ATOM     22  C   UNL     1      30.529  -9.822 -21.622  0.00  0.00    +0.028 C 
ATOM     23  C   UNL     1      32.284  -9.336 -19.885  0.00  0.00    +0.028 C 
BRANCH  21  25
ATOM     24  O   UNL     1      30.235  -7.729 -23.347  0.00  0.00    -0.265 OA
ATOM     25  N   UNL     1      31.505  -7.591 -21.411  0.00  0.00    -0.293 N 
ATOM     26  C   UNL     1      30.750  -7.066 -22.450  0.00  0.00    +0.302 C 
ATOM     27  H   UNL     1      31.877  -6.976 -20.737  0.00  0.00    +0.150 HD
BRANCH  26  31
ATOM     28  O   UNL     1      31.272  -4.840 -23.375  0.00  0.00    -0.416 OA
ATOM     29  N   UNL     1      29.848  -4.876 -21.651  0.00  0.00    -0.102 NA
ATOM     30  N   UNL     1      30.021  -3.560 -22.034  0.00  0.00    -0.111 NA
ATOM     31  C   UNL     1      30.596  -5.588 -22.461  0.00  0.00    +0.304 A 
ATOM     32  C   UNL     1      30.860  -3.586 -23.042  0.00  0.00    +0.227 A 
ATOM     33  C   UNL     1      31.400  -2.478 -23.841  0.00  0.00    +0.097 C 
ENDBRANCH  26  31
ENDBRANCH  21  25
ENDBRANCH   4  21
BRANCH   8  34
ATOM     34  O   UNL     1      35.768  -9.986 -25.097  0.00  0.00    -0.370 OA
ATOM     35  H   UNL     1      36.658 -10.100 -24.827  0.00  0.00    +0.211 HD
ENDBRANCH   8  34
TORSDOF 7
ENDMDL
MODEL 7
REMARK VINA RESULT:      -9.2     11.375     16.343
REMARK  Name = 54671008
REMARK  7 active torsions:
REMARK  status: ('A' for Active; 'I' for Inactive)
REMARK    1  A    between atoms: C_4  and  C_21
REMARK    2  A    between atoms: C_6  and  C_11
REMARK    3  A    between atoms: C_8  and  O_34
REMARK    4  A    between atoms: N_10  and  C_13
REMARK    5  A    between atoms: C_13  and  C_15
REMARK    6  A    between atoms: C_21  and  N_25
REMARK    7  A    between atoms: C_26  and  C_31
REMARK                            x       y       z     vdW  Elec       q    Type
REMARK                         _______ _______ _______ _____ _____    ______ ____
ROOT
ATOM      1  O   UNL     1      31.873 -11.585 -19.401  0.00  0.00    -0.271 OA
ATOM      2  N   UNL     1      31.873  -9.607 -20.653  0.00  0.00    -0.232 N 
ATOM      3  N   UNL     1      32.673  -9.653 -22.892  0.00  0.00    -0.386 NA
ATOM      4  C   UNL     1      32.175  -9.015 -21.878  0.00  0.00    +0.182 C 
ATOM      5  C   UNL     1      32.101 -10.969 -20.441  0.00  0.00    +0.265 C 
ATOM      6  C   UNL     1      32.910 -10.991 -22.728  0.00  0.00    +0.199 C 
ATOM      7  C   UNL     1      31.312  -8.791 -19.578  0.00  0.00    +0.122 C 
ATOM      8  C   UNL     1      32.672 -11.692 -21.611  0.00  0.00    +0.245 C 
ENDROOT
BRANCH   6  11
ATOM      9  O   UNL     1      34.267 -11.128 -24.640  0.00  0.00    -0.268 OA
ATOM     10  N   UNL     1      33.011 -12.988 -24.011  0.00  0.00    -0.295 N 
ATOM     11  C   UNL     1      33.474 -11.692 -23.891  0.00  0.00    +0.275 C 
ATOM     12  H   UNL     1      32.373 -13.322 -23.339  0.00  0.00    +0.150 HD
BRANCH  10  13
ATOM     13  C   UNL     1      33.419 -13.880 -25.073  0.00  0.00    +0.117 C 
BRANCH  13  15
ATOM     14  F   UNL     1      35.045 -18.899 -23.107  0.00  0.00    -0.204 F 
ATOM     15  C   UNL     1      33.852 -15.218 -24.549  0.00  0.00    -0.002 C 
ATOM     16  C   UNL     1      34.661 -15.294 -23.415  0.00  0.00    -0.000 C 
ATOM     17  C   UNL     1      33.447 -16.386 -25.196  0.00  0.00    -0.000 C 
ATOM     18  C   UNL     1      35.064 -16.537 -22.928  0.00  0.00    +0.029 C 
ATOM     19  C   UNL     1      33.850 -17.629 -24.710  0.00  0.00    +0.029 C 
ATOM     20  C   UNL     1      34.659 -17.705 -23.575  0.00  0.00    +0.140 C 
ENDBRANCH  13  15
ENDBRANCH  10  13
ENDBRANCH   6  11
BRANCH   4  21
ATOM     21  C   UNL     1      31.905  -7.539 -22.041  0.00  0.00    +0.117 C 
ATOM     22  C   UNL     1      30.473  -7.326 -22.514  0.00  0.00    +0.028 C 
ATOM     23  C   UNL     1      32.170  -6.818 -20.726  0.00  0.00    +0.028 C 
BRANCH  21  25
ATOM     24  O   UNL     1      32.151  -4.936 -23.228  0.00  0.00    -0.265 OA
ATOM     25  N   UNL     1      32.851  -7.141 -23.051  0.00  0.00    -0.293 N 
ATOM     26  C   UNL     1      32.895  -5.852 -23.567  0.00  0.00    +0.302 C 
ATOM     27  H   UNL     1      33.492  -7.808 -23.389  0.00  0.00    +0.150 HD
BRANCH  26  31
ATOM     28  O   UNL     1      33.560  -4.970 -25.772  0.00  0.00    -0.416 OA
ATOM     29  N   UNL     1      35.177  -5.953 -24.580  0.00  0.00    -0.102 NA
ATOM     30  N   UNL     1      35.727  -5.524 -25.773  0.00  0.00    -0.111 NA
ATOM     31  C   UNL     1      33.912  -5.608 -24.623  0.00  0.00    +0.304 A 
ATOM     32  C   UNL     1      34.748  -4.957 -26.437  0.00  0.00    +0.227 A 
ATOM     33  C   UNL     1      34.757  -4.326 -27.763  0.00  0.00    +0.097 C 
ENDBRANCH  26  31
ENDBRANCH  21  25
ENDBRANCH   4  21
BRANCH   8  34
ATOM     34  O   UNL     1      32.925 -13.038 -21.486  0.00  0.00    -0.370 OA
ATOM     35  H   UNL     1      32.651 -13.631 -22.158  0.00  0.00    +0.211 HD
ENDBRANCH   8  34
TORSDOF 7
ENDMDL
MODEL 8
REMARK VINA RESULT:      -9.1      7.893     13.130
REMARK  Name = 54671008
REMARK  7 active torsions:
REMARK  status: ('A' for Active; 'I' for Inactive)
REMARK    1  A    between atoms: C_4  and  C_21
REMARK    2  A    between atoms: C_6  and  C_11
REMARK    3  A    between atoms: C_8  and  O_34
REMARK    4  A    between atoms: N_10  and  C_13
REMARK    5  A    between atoms: C_13  and  C_15
REMARK    6  A    between atoms: C_21  and  N_25
REMARK    7  A    between atoms: C_26  and  C_31
REMARK                            x       y       z     vdW  Elec       q    Type
REMARK                         _______ _______ _______ _____ _____    ______ ____
ROOT
ATOM      1  O   UNL     1      34.119 -15.711 -25.880  0.00  0.00    -0.271 OA
ATOM      2  N   UNL     1      33.483 -14.354 -24.082  0.00  0.00    -0.232 N 
ATOM      3  N   UNL     1      34.039 -15.026 -21.870  0.00  0.00    -0.386 NA
ATOM      4  C   UNL     1      33.495 -14.189 -22.699  0.00  0.00    +0.182 C 
ATOM      5  C   UNL     1      34.077 -15.471 -24.675  0.00  0.00    +0.265 C 
ATOM      6  C   UNL     1      34.634 -16.135 -22.408  0.00  0.00    +0.199 C 
ATOM      7  C   UNL     1      32.842 -13.344 -24.922  0.00  0.00    +0.122 C 
ATOM      8  C   UNL     1      34.699 -16.425 -23.715  0.00  0.00    +0.245 C 
ENDROOT
BRANCH   6  11
ATOM      9  O   UNL     1      35.305 -16.790 -20.255  0.00  0.00    -0.268 OA
ATOM     10  N   UNL     1      35.710 -18.223 -22.049  0.00  0.00    -0.295 N 
ATOM     11  C   UNL     1      35.244 -17.068 -21.450  0.00  0.00    +0.275 C 
ATOM     12  H   UNL     1      35.599 -18.323 -23.023  0.00  0.00    +0.150 HD
BRANCH  10  13
ATOM     13  C   UNL     1      36.350 -19.292 -21.317  0.00  0.00    +0.117 C 
BRANCH  13  15
ATOM     14  F   UNL     1      32.644 -22.361 -18.394  0.00  0.00    -0.204 F 
ATOM     15  C   UNL     1      35.362 -20.110 -20.538  0.00  0.00    -0.002 C 
ATOM     16  C   UNL     1      35.812 -21.041 -19.601  0.00  0.00    -0.000 C 
ATOM     17  C   UNL     1      33.994 -19.940 -20.750  0.00  0.00    -0.000 C 
ATOM     18  C   UNL     1      34.894 -21.801 -18.878  0.00  0.00    +0.029 C 
ATOM     19  C   UNL     1      33.075 -20.701 -20.027  0.00  0.00    +0.029 C 
ATOM     20  C   UNL     1      33.526 -21.632 -19.090  0.00  0.00    +0.140 C 
ENDBRANCH  13  15
ENDBRANCH  10  13
ENDBRANCH   6  11
BRANCH   4  21
ATOM     21  C   UNL     1      32.836 -12.959 -22.122  0.00  0.00    +0.117 C 
ATOM     22  C   UNL     1      31.371 -12.920 -22.535  0.00  0.00    +0.028 C 
ATOM     23  C   UNL     1      32.988 -12.955 -20.608  0.00  0.00    +0.028 C 
BRANCH  21  25
ATOM     24  O   UNL     1      32.137 -10.175 -22.077  0.00  0.00    -0.265 OA
ATOM     25  N   UNL     1      33.573 -11.878 -22.723  0.00  0.00    -0.293 N 
ATOM     26  C   UNL     1      33.155 -10.556 -22.647  0.00  0.00    +0.302 C 
ATOM     27  H   UNL     1      34.407 -12.084 -23.204  0.00  0.00    +0.150 HD
BRANCH  26  31
ATOM     28  O   UNL     1      33.758  -8.231 -23.207  0.00  0.00    -0.416 OA
ATOM     29  N   UNL     1      35.046  -9.823 -24.108  0.00  0.00    -0.102 NA
ATOM     30  N   UNL     1      35.527  -8.597 -24.527  0.00  0.00    -0.111 NA
ATOM     31  C   UNL     1      34.014  -9.561 -23.341  0.00  0.00    +0.304 A 
ATOM     32  C   UNL     1      34.746  -7.697 -23.977  0.00  0.00    +0.227 A 
ATOM     33  C   UNL     1      34.789  -6.233 -24.076  0.00  0.00    +0.097 C 
ENDBRANCH  26  31
ENDBRANCH  21  25
ENDBRANCH   4  21
BRANCH   8  34
ATOM     34  O   UNL     1      35.307 -17.552 -24.218  0.00  0.00    -0.370 OA
ATOM     35  H   UNL     1      35.623 -18.214 -23.634  0.00  0.00    +0.211 HD
ENDBRANCH   8  34
TORSDOF 7
ENDMDL
MODEL 9
REMARK VINA RESULT:      -9.0      8.861     13.539
REMARK  Name = 54671008
REMARK  7 active torsions:
REMARK  status: ('A' for Active; 'I' for Inactive)
REMARK    1  A    between atoms: C_4  and  C_21
REMARK    2  A    between atoms: C_6  and  C_11
REMARK    3  A    between atoms: C_8  and  O_34
REMARK    4  A    between atoms: N_10  and  C_13
REMARK    5  A    between atoms: C_13  and  C_15
REMARK    6  A    between atoms: C_21  and  N_25
REMARK    7  A    between atoms: C_26  and  C_31
REMARK                            x       y       z     vdW  Elec       q    Type
REMARK                         _______ _______ _______ _____ _____    ______ ____
ROOT
ATOM      1  O   UNL     1      33.817 -12.195 -26.382  0.00  0.00    -0.271 OA
ATOM      2  N   UNL     1      33.498 -12.480 -24.080  0.00  0.00    -0.232 N 
ATOM      3  N   UNL     1      33.289 -14.680 -23.204  0.00  0.00    -0.386 NA
ATOM      4  C   UNL     1      33.320 -13.393 -23.044  0.00  0.00    +0.182 C 
ATOM      5  C   UNL     1      33.657 -12.916 -25.398  0.00  0.00    +0.265 C 
ATOM      6  C   UNL     1      33.443 -15.151 -24.479  0.00  0.00    +0.199 C 
ATOM      7  C   UNL     1      33.519 -11.048 -23.785  0.00  0.00    +0.122 C 
ATOM      8  C   UNL     1      33.621 -14.394 -25.571  0.00  0.00    +0.245 C 
ENDROOT
BRANCH   6  11
ATOM      9  O   UNL     1      32.732 -17.132 -25.521  0.00  0.00    -0.268 OA
ATOM     10  N   UNL     1      34.182 -17.271 -23.701  0.00  0.00    -0.295 N 
ATOM     11  C   UNL     1      33.405 -16.612 -24.635  0.00  0.00    +0.275 C 
ATOM     12  H   UNL     1      34.676 -16.734 -23.040  0.00  0.00    +0.150 HD
BRANCH  10  13
ATOM     13  C   UNL     1      34.307 -18.710 -23.649  0.00  0.00    +0.117 C 
BRANCH  13  15
ATOM     14  F   UNL     1      36.947 -20.427 -18.982  0.00  0.00    -0.204 F 
ATOM     15  C   UNL     1      35.012 -19.168 -22.404  0.00  0.00    -0.002 C 
ATOM     16  C   UNL     1      34.353 -19.995 -21.495  0.00  0.00    -0.000 C 
ATOM     17  C   UNL     1      36.324 -18.766 -22.157  0.00  0.00    -0.000 C 
ATOM     18  C   UNL     1      35.007 -20.420 -20.339  0.00  0.00    +0.029 C 
ATOM     19  C   UNL     1      36.978 -19.191 -21.001  0.00  0.00    +0.029 C 
ATOM     20  C   UNL     1      36.319 -20.018 -20.092  0.00  0.00    +0.140 C 
ENDBRANCH  13  15
ENDBRANCH  10  13
ENDBRANCH   6  11
BRANCH   4  21
ATOM     21  C   UNL     1      33.154 -12.855 -21.643  0.00  0.00    +0.117 C 
ATOM     22  C   UNL     1      32.048 -13.619 -20.927  0.00  0.00    +0.028 C 
ATOM     23  C   UNL     1      34.475 -12.954 -20.892  0.00  0.00    +0.028 C 
BRANCH  21  25
ATOM     24  O   UNL     1      31.763 -11.147 -19.802  0.00  0.00    -0.265 OA
ATOM     25  N   UNL     1      32.780 -11.481 -21.859  0.00  0.00    -0.293 N 
ATOM     26  C   UNL     1      32.106 -10.731 -20.905  0.00  0.00    +0.302 C 
ATOM     27  H   UNL     1      33.013 -11.057 -22.717  0.00  0.00    +0.150 HD
BRANCH  26  31
ATOM     28  O   UNL     1      32.231  -8.294 -20.547  0.00  0.00    -0.416 OA
ATOM     29  N   UNL     1      31.044  -8.966 -22.320  0.00  0.00    -0.102 NA
ATOM     30  N   UNL     1      31.004  -7.585 -22.278  0.00  0.00    -0.111 NA
ATOM     31  C   UNL     1      31.771  -9.336 -21.292  0.00  0.00    +0.304 A 
ATOM     32  C   UNL     1      31.710  -7.237 -21.228  0.00  0.00    +0.227 A 
ATOM     33  C   UNL     1      32.006  -5.899 -20.700  0.00  0.00    +0.097 C 
ENDBRANCH  26  31
ENDBRANCH  21  25
ENDBRANCH   4  21
BRANCH   8  34
ATOM     34  O   UNL     1      33.772 -14.907 -26.839  0.00  0.00    -0.370 OA
ATOM     35  H   UNL     1      33.072 -15.388 -27.236  0.00  0.00    +0.211 HD
ENDBRANCH   8  34
TORSDOF 7
ENDMDL
