MODEL 1
REMARK VINA RESULT:     -12.3      0.000      0.000
REMARK  Name = 66599893
REMARK  9 active torsions:
REMARK  status: ('A' for Active; 'I' for Inactive)
REMARK    1  A    between atoms: C_1  and  C_2
REMARK    2  A    between atoms: C_1  and  C_22
REMARK    3  A    between atoms: C_1  and  C_34
REMARK    4  A    between atoms: C_5  and  C_8
REMARK    5  A    between atoms: C_8  and  O_9
REMARK    6  A    between atoms: O_9  and  C_11
REMARK    7  A    between atoms: C_11  and  C_12
REMARK    8  A    between atoms: N_21  and  C_25
REMARK    9  A    between atoms: C_34  and  N_35
REMARK                            x       y       z     vdW  Elec       q    Type
REMARK                         _______ _______ _______ _____ _____    ______ ____
ROOT
ATOM      1  C   UNL     1      35.143 -17.361 -23.063  0.00  0.00    +0.077 C 
ENDROOT
BRANCH   1   2
ATOM      2  C   UNL     1      35.263 -18.471 -22.030  0.00  0.00    -0.016 C 
ATOM      3  C   UNL     1      36.512 -18.804 -21.504  0.00  0.00    -0.004 C 
ATOM      4  C   UNL     1      34.124 -19.157 -21.607  0.00  0.00    -0.004 C 
ATOM      5  C   UNL     1      35.483 -20.507 -20.136  0.00  0.00    +0.021 C 
ATOM      6  C   UNL     1      36.622 -19.822 -20.558  0.00  0.00    -0.001 C 
ATOM      7  C   UNL     1      34.235 -20.176 -20.661  0.00  0.00    -0.001 C 
BRANCH   5   8
ATOM      8  C   UNL     1      35.600 -21.596 -19.123  0.00  0.00    +0.235 C 
BRANCH   8   9
ATOM      9  O   UNL     1      34.409 -21.651 -18.348  0.00  0.00    -0.440 OA
BRANCH   9  11
ATOM     10  O   UNL     1      33.837 -23.763 -19.063  0.00  0.00    -0.245 OA
ATOM     11  C   UNL     1      33.837 -22.879 -18.220  0.00  0.00    +0.341 C 
BRANCH  11  12
ATOM     12  C   UNL     1      33.190 -23.021 -16.890  0.00  0.00    +0.072 C 
ATOM     13  C   UNL     1      33.947 -23.226 -15.738  0.00  0.00    -0.016 C 
ATOM     14  C   UNL     1      31.925 -23.283 -14.418  0.00  0.00    -0.022 C 
ATOM     15  C   UNL     1      33.315 -23.357 -14.502  0.00  0.00    -0.008 C 
ATOM     16  C   UNL     1      31.799 -22.947 -16.807  0.00  0.00    +0.006 C 
ATOM     17  C   UNL     1      31.166 -23.078 -15.571  0.00  0.00    -0.004 C 
ATOM     18  C   UNL     1      35.438 -23.309 -15.799  0.00  0.00    +0.031 C 
ATOM     19  C   UNL     1      31.247 -23.424 -13.097  0.00  0.00    +0.031 C 
ENDBRANCH  11  12
ENDBRANCH   9  11
ENDBRANCH   8   9
ENDBRANCH   5   8
ENDBRANCH   1   2
BRANCH   1  22
ATOM     20  O   UNL     1      34.902 -15.868 -21.177  0.00  0.00    -0.275 OA
ATOM     21  N   UNL     1      34.185 -15.130 -23.291  0.00  0.00    -0.284 N 
ATOM     22  C   UNL     1      34.743 -16.044 -22.382  0.00  0.00    +0.228 C 
ATOM     23  H   UNL     1      34.120 -15.437 -24.224  0.00  0.00    +0.155 HD
BRANCH  21  25
ATOM     24  N   UNL     1      31.430  -9.716 -21.197  0.00  0.00    -0.242 NA
ATOM     25  C   UNL     1      33.710 -13.841 -23.039  0.00  0.00    +0.050 C 
ATOM     26  C   UNL     1      32.864 -13.612 -21.953  0.00  0.00    +0.015 C 
ATOM     27  C   UNL     1      32.376 -12.322 -21.687  0.00  0.00    +0.004 C 
ATOM     28  C   UNL     1      34.081 -12.789 -23.870  0.00  0.00    +0.015 C 
ATOM     29  C   UNL     1      32.755 -11.258 -22.531  0.00  0.00    +0.019 C 
ATOM     30  C   UNL     1      33.608 -11.501 -23.622  0.00  0.00    +0.003 C 
ATOM     31  C   UNL     1      31.526 -12.059 -20.606  0.00  0.00    +0.021 C 
ATOM     32  C   UNL     1      32.252  -9.989 -22.235  0.00  0.00    +0.099 C 
ATOM     33  C   UNL     1      31.089 -10.758 -20.409  0.00  0.00    +0.099 C 
ENDBRANCH  21  25
ENDBRANCH   1  22
BRANCH   1  34
ATOM     34  C   UNL     1      34.153 -17.701 -24.195  0.00  0.00    -0.072 C 
BRANCH  34  35
ATOM     35  N   UNL     1      34.261 -19.096 -24.612  0.00  0.00    +0.381 N 
ATOM     36  H   UNL     1      34.243 -19.699 -23.790  0.00  0.00    -0.089 HD
ATOM     37  H   UNL     1      35.137 -19.234 -25.115  0.00  0.00    -0.089 HD
ATOM     38  H   UNL     1      33.478 -19.330 -25.223  0.00  0.00    -0.089 HD
ENDBRANCH  34  35
ENDBRANCH   1  34
TORSDOF 9
ENDMDL
MODEL 2
REMARK VINA RESULT:     -11.9      4.692      8.687
REMARK  Name = 66599893
REMARK  9 active torsions:
REMARK  status: ('A' for Active; 'I' for Inactive)
REMARK    1  A    between atoms: C_1  and  C_2
REMARK    2  A    between atoms: C_1  and  C_22
REMARK    3  A    between atoms: C_1  and  C_34
REMARK    4  A    between atoms: C_5  and  C_8
REMARK    5  A    between atoms: C_8  and  O_9
REMARK    6  A    between atoms: O_9  and  C_11
REMARK    7  A    between atoms: C_11  and  C_12
REMARK    8  A    between atoms: N_21  and  C_25
REMARK    9  A    between atoms: C_34  and  N_35
REMARK                            x       y       z     vdW  Elec       q    Type
REMARK                         _______ _______ _______ _____ _____    ______ ____
ROOT
ATOM      1  C   UNL     1      31.353  -9.813 -20.867  0.00  0.00    +0.077 C 
ENDROOT
BRANCH   1   2
ATOM      2  C   UNL     1      32.113 -10.853 -21.675  0.00  0.00    -0.016 C 
ATOM      3  C   UNL     1      32.909 -10.457 -22.750  0.00  0.00    -0.004 C 
ATOM      4  C   UNL     1      32.014 -12.204 -21.341  0.00  0.00    -0.004 C 
ATOM      5  C   UNL     1      33.506 -12.761 -23.158  0.00  0.00    +0.021 C 
ATOM      6  C   UNL     1      33.604 -11.411 -23.492  0.00  0.00    -0.001 C 
ATOM      7  C   UNL     1      32.710 -13.158 -22.084  0.00  0.00    -0.001 C 
BRANCH   5   8
ATOM      8  C   UNL     1      34.251 -13.783 -23.951  0.00  0.00    +0.235 C 
BRANCH   8   9
ATOM      9  O   UNL     1      33.696 -15.069 -23.705  0.00  0.00    -0.440 OA
BRANCH   9  11
ATOM     10  O   UNL     1      34.677 -16.198 -25.454  0.00  0.00    -0.245 OA
ATOM     11  C   UNL     1      34.343 -16.118 -24.282  0.00  0.00    +0.341 C 
BRANCH  11  12
ATOM     12  C   UNL     1      34.602 -17.188 -23.285  0.00  0.00    +0.072 C 
ATOM     13  C   UNL     1      34.213 -18.505 -23.525  0.00  0.00    -0.016 C 
ATOM     14  C   UNL     1      35.110 -19.162 -21.380  0.00  0.00    -0.022 C 
ATOM     15  C   UNL     1      34.467 -19.492 -22.573  0.00  0.00    -0.008 C 
ATOM     16  C   UNL     1      35.245 -16.856 -22.093  0.00  0.00    +0.006 C 
ATOM     17  C   UNL     1      35.499 -17.843 -21.139  0.00  0.00    -0.004 C 
ATOM     18  C   UNL     1      33.524 -18.888 -24.794  0.00  0.00    +0.031 C 
ATOM     19  C   UNL     1      35.382 -20.215 -20.360  0.00  0.00    +0.031 C 
ENDBRANCH  11  12
ENDBRANCH   9  11
ENDBRANCH   8   9
ENDBRANCH   5   8
ENDBRANCH   1   2
BRANCH   1  22
ATOM     20  O   UNL     1      32.830  -7.923 -20.565  0.00  0.00    -0.275 OA
ATOM     21  N   UNL     1      31.151  -7.784 -22.205  0.00  0.00    -0.284 N 
ATOM     22  C   UNL     1      31.883  -8.406 -21.180  0.00  0.00    +0.228 C 
ATOM     23  H   UNL     1      30.411  -8.310 -22.585  0.00  0.00    +0.155 HD
BRANCH  21  25
ATOM     24  N   UNL     1      32.775  -2.505 -25.489  0.00  0.00    -0.242 NA
ATOM     25  C   UNL     1      31.341  -6.513 -22.753  0.00  0.00    +0.050 C 
ATOM     26  C   UNL     1      32.202  -6.346 -23.839  0.00  0.00    +0.015 C 
ATOM     27  C   UNL     1      32.405  -5.075 -24.400  0.00  0.00    +0.004 C 
ATOM     28  C   UNL     1      30.671  -5.418 -22.217  0.00  0.00    +0.015 C 
ATOM     29  C   UNL     1      31.725  -3.967 -23.854  0.00  0.00    +0.019 C 
ATOM     30  C   UNL     1      30.859  -4.148 -22.761  0.00  0.00    +0.003 C 
ATOM     31  C   UNL     1      33.263  -4.873 -25.489  0.00  0.00    +0.021 C 
ATOM     32  C   UNL     1      31.950  -2.719 -24.439  0.00  0.00    +0.099 C 
ATOM     33  C   UNL     1      33.409  -3.588 -25.986  0.00  0.00    +0.099 C 
ENDBRANCH  21  25
ENDBRANCH   1  22
BRANCH   1  34
ATOM     34  C   UNL     1      31.405 -10.079 -19.348  0.00  0.00    -0.072 C 
BRANCH  34  35
ATOM     35  N   UNL     1      32.689  -9.692 -18.772  0.00  0.00    +0.381 N 
ATOM     36  H   UNL     1      33.407  -9.710 -19.496  0.00  0.00    -0.089 HD
ATOM     37  H   UNL     1      32.939 -10.345 -18.030  0.00  0.00    -0.089 HD
ATOM     38  H   UNL     1      32.619  -8.750 -18.385  0.00  0.00    -0.089 HD
ENDBRANCH  34  35
ENDBRANCH   1  34
TORSDOF 9
ENDMDL
MODEL 3
REMARK VINA RESULT:     -11.8      3.509     10.668
REMARK  Name = 66599893
REMARK  9 active torsions:
REMARK  status: ('A' for Active; 'I' for Inactive)
REMARK    1  A    between atoms: C_1  and  C_2
REMARK    2  A    between atoms: C_1  and  C_22
REMARK    3  A    between atoms: C_1  and  C_34
REMARK    4  A    between atoms: C_5  and  C_8
REMARK    5  A    between atoms: C_8  and  O_9
REMARK    6  A    between atoms: O_9  and  C_11
REMARK    7  A    between atoms: C_11  and  C_12
REMARK    8  A    between atoms: N_21  and  C_25
REMARK    9  A    between atoms: C_34  and  N_35
REMARK                            x       y       z     vdW  Elec       q    Type
REMARK                         _______ _______ _______ _____ _____    ______ ____
ROOT
ATOM      1  C   UNL     1      36.055 -22.037 -18.381  0.00  0.00    +0.077 C 
ENDROOT
BRANCH   1   2
ATOM      2  C   UNL     1      35.752 -20.980 -19.432  0.00  0.00    -0.016 C 
ATOM      3  C   UNL     1      36.783 -20.193 -19.946  0.00  0.00    -0.004 C 
ATOM      4  C   UNL     1      34.444 -20.799 -19.882  0.00  0.00    -0.004 C 
ATOM      5  C   UNL     1      35.198 -19.042 -21.359  0.00  0.00    +0.021 C 
ATOM      6  C   UNL     1      36.505 -19.223 -20.909  0.00  0.00    -0.001 C 
ATOM      7  C   UNL     1      34.167 -19.829 -20.845  0.00  0.00    -0.001 C 
BRANCH   5   8
ATOM      8  C   UNL     1      34.901 -18.005 -22.391  0.00  0.00    +0.235 C 
BRANCH   8   9
ATOM      9  O   UNL     1      34.903 -16.719 -21.783  0.00  0.00    -0.440 OA
BRANCH   9  11
ATOM     10  O   UNL     1      35.498 -15.543 -23.670  0.00  0.00    -0.245 OA
ATOM     11  C   UNL     1      34.862 -15.658 -22.634  0.00  0.00    +0.341 C 
BRANCH  11  12
ATOM     12  C   UNL     1      33.923 -14.621 -22.135  0.00  0.00    +0.072 C 
ATOM     13  C   UNL     1      33.207 -13.813 -23.017  0.00  0.00    -0.016 C 
ATOM     14  C   UNL     1      32.172 -12.686 -21.147  0.00  0.00    -0.022 C 
ATOM     15  C   UNL     1      32.332 -12.846 -22.524  0.00  0.00    -0.008 C 
ATOM     16  C   UNL     1      33.764 -14.462 -20.758  0.00  0.00    +0.006 C 
ATOM     17  C   UNL     1      32.889 -13.495 -20.264  0.00  0.00    -0.004 C 
ATOM     18  C   UNL     1      33.357 -13.962 -24.496  0.00  0.00    +0.031 C 
ATOM     19  C   UNL     1      31.238 -11.652 -20.617  0.00  0.00    +0.031 C 
ENDBRANCH  11  12
ENDBRANCH   9  11
ENDBRANCH   8   9
ENDBRANCH   5   8
ENDBRANCH   1   2
BRANCH   1  22
ATOM     20  O   UNL     1      34.118 -23.414 -18.826  0.00  0.00    -0.275 OA
ATOM     21  N   UNL     1      34.463 -22.638 -16.633  0.00  0.00    -0.284 N 
ATOM     22  C   UNL     1      34.770 -22.786 -17.996  0.00  0.00    +0.228 C 
ATOM     23  H   UNL     1      35.089 -22.090 -16.108  0.00  0.00    +0.155 HD
BRANCH  21  25
ATOM     24  N   UNL     1      28.814 -24.551 -14.241  0.00  0.00    -0.242 NA
ATOM     25  C   UNL     1      33.381 -23.171 -15.929  0.00  0.00    +0.050 C 
ATOM     26  C   UNL     1      32.079 -22.941 -16.375  0.00  0.00    +0.015 C 
ATOM     27  C   UNL     1      30.980 -23.468 -15.677  0.00  0.00    +0.004 C 
ATOM     28  C   UNL     1      33.603 -23.931 -14.784  0.00  0.00    +0.015 C 
ATOM     29  C   UNL     1      31.210 -24.238 -14.517  0.00  0.00    +0.019 C 
ATOM     30  C   UNL     1      32.526 -24.464 -14.078  0.00  0.00    +0.003 C 
ATOM     31  C   UNL     1      29.662 -23.255 -16.098  0.00  0.00    +0.021 C 
ATOM     32  C   UNL     1      30.094 -24.747 -13.850  0.00  0.00    +0.099 C 
ATOM     33  C   UNL     1      28.632 -23.811 -15.355  0.00  0.00    +0.099 C 
ENDBRANCH  21  25
ENDBRANCH   1  22
BRANCH   1  34
ATOM     34  C   UNL     1      36.732 -21.456 -17.124  0.00  0.00    -0.072 C 
BRANCH  34  35
ATOM     35  N   UNL     1      37.669 -22.402 -16.523  0.00  0.00    +0.381 N 
ATOM     36  H   UNL     1      38.175 -21.945 -15.764  0.00  0.00    -0.089 HD
ATOM     37  H   UNL     1      38.332 -22.718 -17.231  0.00  0.00    -0.089 HD
ATOM     38  H   UNL     1      37.155 -23.203 -16.157  0.00  0.00    -0.089 HD
ENDBRANCH  34  35
ENDBRANCH   1  34
TORSDOF 9
ENDMDL
MODEL 4
REMARK VINA RESULT:     -11.6      1.703      2.818
REMARK  Name = 66599893
REMARK  9 active torsions:
REMARK  status: ('A' for Active; 'I' for Inactive)
REMARK    1  A    between atoms: C_1  and  C_2
REMARK    2  A    between atoms: C_1  and  C_22
REMARK    3  A    between atoms: C_1  and  C_34
REMARK    4  A    between atoms: C_5  and  C_8
REMARK    5  A    between atoms: C_8  and  O_9
REMARK    6  A    between atoms: O_9  and  C_11
REMARK    7  A    between atoms: C_11  and  C_12
REMARK    8  A    between atoms: N_21  and  C_25
REMARK    9  A    between atoms: C_34  and  N_35
REMARK                            x       y       z     vdW  Elec       q    Type
REMARK                         _______ _______ _______ _____ _____    ______ ____
ROOT
ATOM      1  C   UNL     1      35.434 -18.525 -21.996  0.00  0.00    +0.077 C 
ENDROOT
BRANCH   1   2
ATOM      2  C   UNL     1      34.944 -19.581 -21.017  0.00  0.00    -0.016 C 
ATOM      3  C   UNL     1      35.862 -20.325 -20.275  0.00  0.00    -0.004 C 
ATOM      4  C   UNL     1      33.575 -19.805 -20.860  0.00  0.00    -0.004 C 
ATOM      5  C   UNL     1      34.044 -21.517 -19.222  0.00  0.00    +0.021 C 
ATOM      6  C   UNL     1      35.411 -21.294 -19.379  0.00  0.00    -0.001 C 
ATOM      7  C   UNL     1      33.126 -20.774 -19.963  0.00  0.00    -0.001 C 
BRANCH   5   8
ATOM      8  C   UNL     1      33.563 -22.553 -18.262  0.00  0.00    +0.235 C 
BRANCH   8   9
ATOM      9  O   UNL     1      34.649 -22.994 -17.457  0.00  0.00    -0.440 OA
BRANCH   9  11
ATOM     10  O   UNL     1      33.349 -22.843 -15.565  0.00  0.00    -0.245 OA
ATOM     11  C   UNL     1      34.384 -23.155 -16.133  0.00  0.00    +0.341 C 
BRANCH  11  12
ATOM     12  C   UNL     1      35.541 -23.773 -15.437  0.00  0.00    +0.072 C 
ATOM     13  C   UNL     1      36.777 -23.130 -15.381  0.00  0.00    -0.016 C 
ATOM     14  C   UNL     1      37.684 -24.979 -14.118  0.00  0.00    -0.022 C 
ATOM     15  C   UNL     1      37.848 -23.732 -14.721  0.00  0.00    -0.008 C 
ATOM     16  C   UNL     1      35.376 -25.020 -14.834  0.00  0.00    +0.006 C 
ATOM     17  C   UNL     1      36.447 -25.624 -14.175  0.00  0.00    -0.004 C 
ATOM     18  C   UNL     1      36.981 -21.794 -16.017  0.00  0.00    +0.031 C 
ATOM     19  C   UNL     1      38.828 -25.626 -13.414  0.00  0.00    +0.031 C 
ENDBRANCH  11  12
ENDBRANCH   9  11
ENDBRANCH   8   9
ENDBRANCH   5   8
ENDBRANCH   1   2
BRANCH   1  22
ATOM     20  O   UNL     1      35.033 -16.799 -20.351  0.00  0.00    -0.275 OA
ATOM     21  N   UNL     1      34.550 -16.335 -22.605  0.00  0.00    -0.284 N 
ATOM     22  C   UNL     1      34.994 -17.128 -21.534  0.00  0.00    +0.228 C 
ATOM     23  H   UNL     1      34.574 -16.759 -23.493  0.00  0.00    +0.155 HD
BRANCH  21  25
ATOM     24  N   UNL     1      31.891 -10.614 -21.386  0.00  0.00    -0.242 NA
ATOM     25  C   UNL     1      34.078 -15.021 -22.570  0.00  0.00    +0.050 C 
ATOM     26  C   UNL     1      33.316 -14.584 -21.485  0.00  0.00    +0.015 C 
ATOM     27  C   UNL     1      32.833 -13.266 -21.436  0.00  0.00    +0.004 C 
ATOM     28  C   UNL     1      34.369 -14.150 -23.616  0.00  0.00    +0.015 C 
ATOM     29  C   UNL     1      33.130 -12.387 -22.498  0.00  0.00    +0.019 C 
ATOM     30  C   UNL     1      33.898 -12.838 -23.585  0.00  0.00    +0.003 C 
ATOM     31  C   UNL     1      32.066 -12.798 -20.362  0.00  0.00    +0.021 C 
ATOM     32  C   UNL     1      32.634 -11.084 -22.413  0.00  0.00    +0.099 C 
ATOM     33  C   UNL     1      31.628 -11.483 -20.387  0.00  0.00    +0.099 C 
ENDBRANCH  21  25
ENDBRANCH   1  22
BRANCH   1  34
ATOM     34  C   UNL     1      34.964 -18.784 -23.442  0.00  0.00    -0.072 C 
BRANCH  34  35
ATOM     35  N   UNL     1      35.165 -20.175 -23.839  0.00  0.00    +0.381 N 
ATOM     36  H   UNL     1      34.716 -20.340 -24.739  0.00  0.00    -0.089 HD
ATOM     37  H   UNL     1      34.755 -20.791 -23.137  0.00  0.00    -0.089 HD
ATOM     38  H   UNL     1      36.164 -20.365 -23.915  0.00  0.00    -0.089 HD
ENDBRANCH  34  35
ENDBRANCH   1  34
TORSDOF 9
ENDMDL
MODEL 5
REMARK VINA RESULT:     -11.6      0.943      2.179
REMARK  Name = 66599893
REMARK  9 active torsions:
REMARK  status: ('A' for Active; 'I' for Inactive)
REMARK    1  A    between atoms: C_1  and  C_2
REMARK    2  A    between atoms: C_1  and  C_22
REMARK    3  A    between atoms: C_1  and  C_34
REMARK    4  A    between atoms: C_5  and  C_8
REMARK    5  A    between atoms: C_8  and  O_9
REMARK    6  A    between atoms: O_9  and  C_11
REMARK    7  A    between atoms: C_11  and  C_12
REMARK    8  A    between atoms: N_21  and  C_25
REMARK    9  A    between atoms: C_34  and  N_35
REMARK                            x       y       z     vdW  Elec       q    Type
REMARK                         _______ _______ _______ _____ _____    ______ ____
ROOT
ATOM      1  C   UNL     1      35.214 -16.919 -22.677  0.00  0.00    +0.077 C 
ENDROOT
BRANCH   1   2
ATOM      2  C   UNL     1      35.377 -18.153 -21.805  0.00  0.00    -0.016 C 
ATOM      3  C   UNL     1      34.289 -18.997 -21.579  0.00  0.00    -0.004 C 
ATOM      4  C   UNL     1      36.615 -18.442 -21.229  0.00  0.00    -0.004 C 
ATOM      5  C   UNL     1      35.676 -20.418 -20.203  0.00  0.00    +0.021 C 
ATOM      6  C   UNL     1      34.439 -20.129 -20.778  0.00  0.00    -0.001 C 
ATOM      7  C   UNL     1      36.764 -19.574 -20.428  0.00  0.00    -0.001 C 
BRANCH   5   8
ATOM      8  C   UNL     1      35.836 -21.629 -19.347  0.00  0.00    +0.235 C 
BRANCH   8   9
ATOM      9  O   UNL     1      34.873 -21.600 -18.301  0.00  0.00    -0.440 OA
BRANCH   9  11
ATOM     10  O   UNL     1      33.655 -23.460 -18.896  0.00  0.00    -0.245 OA
ATOM     11  C   UNL     1      34.217 -22.767 -18.061  0.00  0.00    +0.341 C 
BRANCH  11  12
ATOM     12  C   UNL     1      34.266 -23.110 -16.616  0.00  0.00    +0.072 C 
ATOM     13  C   UNL     1      33.097 -23.239 -15.867  0.00  0.00    -0.016 C 
ATOM     14  C   UNL     1      34.411 -23.753 -13.906  0.00  0.00    -0.022 C 
ATOM     15  C   UNL     1      33.170 -23.561 -14.512  0.00  0.00    -0.008 C 
ATOM     16  C   UNL     1      35.508 -23.302 -16.011  0.00  0.00    +0.006 C 
ATOM     17  C   UNL     1      35.581 -23.624 -14.656  0.00  0.00    -0.004 C 
ATOM     18  C   UNL     1      31.754 -23.039 -16.490  0.00  0.00    +0.031 C 
ATOM     19  C   UNL     1      34.491 -24.096 -12.457  0.00  0.00    +0.031 C 
ENDBRANCH  11  12
ENDBRANCH   9  11
ENDBRANCH   8   9
ENDBRANCH   5   8
ENDBRANCH   1   2
BRANCH   1  22
ATOM     20  O   UNL     1      34.701 -15.735 -20.633  0.00  0.00    -0.275 OA
ATOM     21  N   UNL     1      33.990 -14.809 -22.674  0.00  0.00    -0.284 N 
ATOM     22  C   UNL     1      34.620 -15.764 -21.858  0.00  0.00    +0.228 C 
ATOM     23  H   UNL     1      34.007 -14.991 -23.641  0.00  0.00    +0.155 HD
BRANCH  21  25
ATOM     24  N   UNL     1      31.604  -8.904 -21.826  0.00  0.00    -0.242 NA
ATOM     25  C   UNL     1      33.344 -13.633 -22.287  0.00  0.00    +0.050 C 
ATOM     26  C   UNL     1      33.556 -12.454 -23.003  0.00  0.00    +0.015 C 
ATOM     27  C   UNL     1      32.915 -11.263 -22.625  0.00  0.00    +0.004 C 
ATOM     28  C   UNL     1      32.491 -13.639 -21.187  0.00  0.00    +0.015 C 
ATOM     29  C   UNL     1      32.051 -11.273 -21.511  0.00  0.00    +0.019 C 
ATOM     30  C   UNL     1      31.845 -12.466 -20.797  0.00  0.00    +0.003 C 
ATOM     31  C   UNL     1      33.107 -10.064 -23.323  0.00  0.00    +0.021 C 
ATOM     32  C   UNL     1      31.431 -10.071 -21.165  0.00  0.00    +0.099 C 
ATOM     33  C   UNL     1      32.437  -8.931 -22.888  0.00  0.00    +0.099 C 
ENDBRANCH  21  25
ENDBRANCH   1  22
BRANCH   1  34
ATOM     34  C   UNL     1      34.358 -17.181 -23.933  0.00  0.00    -0.072 C 
BRANCH  34  35
ATOM     35  N   UNL     1      34.862 -16.456 -25.096  0.00  0.00    +0.381 N 
ATOM     36  H   UNL     1      34.276 -15.638 -25.267  0.00  0.00    -0.089 HD
ATOM     37  H   UNL     1      34.839 -17.066 -25.913  0.00  0.00    -0.089 HD
ATOM     38  H   UNL     1      35.821 -16.157 -24.922  0.00  0.00    -0.089 HD
ENDBRANCH  34  35
ENDBRANCH   1  34
TORSDOF 9
ENDMDL
MODEL 6
REMARK VINA RESULT:     -11.6      2.990     11.535
REMARK  Name = 66599893
REMARK  9 active torsions:
REMARK  status: ('A' for Active; 'I' for Inactive)
REMARK    1  A    between atoms: C_1  and  C_2
REMARK    2  A    between atoms: C_1  and  C_22
REMARK    3  A    between atoms: C_1  and  C_34
REMARK    4  A    between atoms: C_5  and  C_8
REMARK    5  A    between atoms: C_8  and  O_9
REMARK    6  A    between atoms: O_9  and  C_11
REMARK    7  A    between atoms: C_11  and  C_12
REMARK    8  A    between atoms: N_21  and  C_25
REMARK    9  A    between atoms: C_34  and  N_35
REMARK                            x       y       z     vdW  Elec       q    Type
REMARK                         _______ _______ _______ _____ _____    ______ ____
ROOT
ATOM      1  C   UNL     1      35.847 -18.846 -21.784  0.00  0.00    +0.077 C 
ENDROOT
BRANCH   1   2
ATOM      2  C   UNL     1      35.201 -17.499 -22.067  0.00  0.00    -0.016 C 
ATOM      3  C   UNL     1      34.829 -17.163 -23.370  0.00  0.00    -0.004 C 
ATOM      4  C   UNL     1      34.979 -16.598 -21.025  0.00  0.00    -0.004 C 
ATOM      5  C   UNL     1      34.015 -15.028 -22.587  0.00  0.00    +0.021 C 
ATOM      6  C   UNL     1      34.237 -15.927 -23.629  0.00  0.00    -0.001 C 
ATOM      7  C   UNL     1      34.387 -15.363 -21.285  0.00  0.00    -0.001 C 
BRANCH   5   8
ATOM      8  C   UNL     1      33.380 -13.706 -22.864  0.00  0.00    +0.235 C 
BRANCH   8   9
ATOM      9  O   UNL     1      34.353 -12.818 -23.401  0.00  0.00    -0.440 OA
BRANCH   9  11
ATOM     10  O   UNL     1      33.615 -12.241 -25.503  0.00  0.00    -0.245 OA
ATOM     11  C   UNL     1      33.910 -11.953 -24.353  0.00  0.00    +0.341 C 
BRANCH  11  12
ATOM     12  C   UNL     1      33.826 -10.573 -23.812  0.00  0.00    +0.072 C 
ATOM     13  C   UNL     1      34.758  -9.600 -24.170  0.00  0.00    -0.016 C 
ATOM     14  C   UNL     1      33.624  -7.995 -22.765  0.00  0.00    -0.022 C 
ATOM     15  C   UNL     1      34.658  -8.311 -23.646  0.00  0.00    -0.008 C 
ATOM     16  C   UNL     1      32.792 -10.257 -22.930  0.00  0.00    +0.006 C 
ATOM     17  C   UNL     1      32.691  -8.968 -22.406  0.00  0.00    -0.004 C 
ATOM     18  C   UNL     1      35.875  -9.911 -25.112  0.00  0.00    +0.031 C 
ATOM     19  C   UNL     1      33.515  -6.618 -22.203  0.00  0.00    +0.031 C 
ENDBRANCH  11  12
ENDBRANCH   9  11
ENDBRANCH   8   9
ENDBRANCH   5   8
ENDBRANCH   1   2
BRANCH   1  22
ATOM     20  O   UNL     1      33.711 -19.720 -21.067  0.00  0.00    -0.275 OA
ATOM     21  N   UNL     1      35.645 -20.404 -19.918  0.00  0.00    -0.284 N 
ATOM     22  C   UNL     1      34.927 -19.701 -20.900  0.00  0.00    +0.228 C 
ATOM     23  H   UNL     1      36.620 -20.266 -19.917  0.00  0.00    +0.155 HD
BRANCH  21  25
ATOM     24  N   UNL     1      34.475 -24.307 -14.950  0.00  0.00    -0.242 NA
ATOM     25  C   UNL     1      35.151 -21.273 -18.944  0.00  0.00    +0.050 C 
ATOM     26  C   UNL     1      35.973 -21.677 -17.890  0.00  0.00    +0.015 C 
ATOM     27  C   UNL     1      35.491 -22.552 -16.903  0.00  0.00    +0.004 C 
ATOM     28  C   UNL     1      33.841 -21.736 -19.025  0.00  0.00    +0.015 C 
ATOM     29  C   UNL     1      34.163 -23.019 -16.989  0.00  0.00    +0.019 C 
ATOM     30  C   UNL     1      33.345 -22.605 -18.054  0.00  0.00    +0.003 C 
ATOM     31  C   UNL     1      36.290 -22.975 -15.834  0.00  0.00    +0.021 C 
ATOM     32  C   UNL     1      33.719 -23.887 -15.990  0.00  0.00    +0.099 C 
ATOM     33  C   UNL     1      35.741 -23.840 -14.900  0.00  0.00    +0.099 C 
ENDBRANCH  21  25
ENDBRANCH   1  22
BRANCH   1  34
ATOM     34  C   UNL     1      37.242 -18.717 -21.139  0.00  0.00    -0.072 C 
BRANCH  34  35
ATOM     35  N   UNL     1      38.299 -18.621 -22.141  0.00  0.00    +0.381 N 
ATOM     36  H   UNL     1      37.983 -19.049 -23.011  0.00  0.00    -0.089 HD
ATOM     37  H   UNL     1      39.130 -19.107 -21.806  0.00  0.00    -0.089 HD
ATOM     38  H   UNL     1      38.523 -17.640 -22.306  0.00  0.00    -0.089 HD
ENDBRANCH  34  35
ENDBRANCH   1  34
TORSDOF 9
ENDMDL
MODEL 7
REMARK VINA RESULT:     -11.5      3.534     12.551
REMARK  Name = 66599893
REMARK  9 active torsions:
REMARK  status: ('A' for Active; 'I' for Inactive)
REMARK    1  A    between atoms: C_1  and  C_2
REMARK    2  A    between atoms: C_1  and  C_22
REMARK    3  A    between atoms: C_1  and  C_34
REMARK    4  A    between atoms: C_5  and  C_8
REMARK    5  A    between atoms: C_8  and  O_9
REMARK    6  A    between atoms: O_9  and  C_11
REMARK    7  A    between atoms: C_11  and  C_12
REMARK    8  A    between atoms: N_21  and  C_25
REMARK    9  A    between atoms: C_34  and  N_35
REMARK                            x       y       z     vdW  Elec       q    Type
REMARK                         _______ _______ _______ _____ _____    ______ ____
ROOT
ATOM      1  C   UNL     1      33.936 -15.292 -23.341  0.00  0.00    +0.077 C 
ENDROOT
BRANCH   1   2
ATOM      2  C   UNL     1      33.465 -13.910 -22.917  0.00  0.00    -0.016 C 
ATOM      3  C   UNL     1      32.592 -13.770 -21.837  0.00  0.00    -0.004 C 
ATOM      4  C   UNL     1      33.907 -12.780 -23.607  0.00  0.00    -0.004 C 
ATOM      5  C   UNL     1      32.601 -11.374 -22.139  0.00  0.00    +0.021 C 
ATOM      6  C   UNL     1      32.160 -12.502 -21.450  0.00  0.00    -0.001 C 
ATOM      7  C   UNL     1      33.474 -11.513 -23.218  0.00  0.00    -0.001 C 
BRANCH   5   8
ATOM      8  C   UNL     1      32.140 -10.017 -21.724  0.00  0.00    +0.235 C 
BRANCH   8   9
ATOM      9  O   UNL     1      32.625  -9.050 -22.647  0.00  0.00    -0.440 OA
BRANCH   9  11
ATOM     10  O   UNL     1      33.227  -7.658 -20.915  0.00  0.00    -0.245 OA
ATOM     11  C   UNL     1      33.091  -7.891 -22.107  0.00  0.00    +0.341 C 
BRANCH  11  12
ATOM     12  C   UNL     1      33.424  -6.912 -23.172  0.00  0.00    +0.072 C 
ATOM     13  C   UNL     1      32.499  -5.955 -23.587  0.00  0.00    -0.016 C 
ATOM     14  C   UNL     1      34.100  -5.096 -25.180  0.00  0.00    -0.022 C 
ATOM     15  C   UNL     1      32.836  -5.047 -24.591  0.00  0.00    -0.008 C 
ATOM     16  C   UNL     1      34.688  -6.961 -23.760  0.00  0.00    +0.006 C 
ATOM     17  C   UNL     1      35.026  -6.053 -24.764  0.00  0.00    -0.004 C 
ATOM     18  C   UNL     1      31.139  -5.880 -22.974  0.00  0.00    +0.031 C 
ATOM     19  C   UNL     1      34.463  -4.127 -26.253  0.00  0.00    +0.031 C 
ENDBRANCH  11  12
ENDBRANCH   9  11
ENDBRANCH   8   9
ENDBRANCH   5   8
ENDBRANCH   1   2
BRANCH   1  22
ATOM     20  O   UNL     1      34.731 -15.504 -21.068  0.00  0.00    -0.275 OA
ATOM     21  N   UNL     1      34.614 -17.438 -22.400  0.00  0.00    -0.284 N 
ATOM     22  C   UNL     1      34.467 -16.068 -22.126  0.00  0.00    +0.228 C 
ATOM     23  H   UNL     1      34.366 -17.724 -23.309  0.00  0.00    +0.155 HD
BRANCH  21  25
ATOM     24  N   UNL     1      35.531 -22.389 -18.408  0.00  0.00    -0.242 NA
ATOM     25  C   UNL     1      35.067 -18.446 -21.546  0.00  0.00    +0.050 C 
ATOM     26  C   UNL     1      34.158 -19.349 -20.992  0.00  0.00    +0.015 C 
ATOM     27  C   UNL     1      34.597 -20.366 -20.129  0.00  0.00    +0.004 C 
ATOM     28  C   UNL     1      36.423 -18.548 -21.249  0.00  0.00    +0.015 C 
ATOM     29  C   UNL     1      35.972 -20.467 -19.831  0.00  0.00    +0.019 C 
ATOM     30  C   UNL     1      36.878 -19.552 -20.395  0.00  0.00    +0.003 C 
ATOM     31  C   UNL     1      33.711 -21.287 -19.557  0.00  0.00    +0.021 C 
ATOM     32  C   UNL     1      36.372 -21.491 -18.971  0.00  0.00    +0.099 C 
ATOM     33  C   UNL     1      34.223 -22.264 -18.717  0.00  0.00    +0.099 C 
ENDBRANCH  21  25
ENDBRANCH   1  22
BRANCH   1  34
ATOM     34  C   UNL     1      35.001 -15.247 -24.455  0.00  0.00    -0.072 C 
BRANCH  34  35
ATOM     35  N   UNL     1      34.856 -16.357 -25.393  0.00  0.00    +0.381 N 
ATOM     36  H   UNL     1      35.234 -17.207 -24.975  0.00  0.00    -0.089 HD
ATOM     37  H   UNL     1      35.365 -16.146 -26.251  0.00  0.00    -0.089 HD
ATOM     38  H   UNL     1      33.869 -16.493 -25.608  0.00  0.00    -0.089 HD
ENDBRANCH  34  35
ENDBRANCH   1  34
TORSDOF 9
ENDMDL
MODEL 8
REMARK VINA RESULT:     -11.4      3.708      7.243
REMARK  Name = 66599893
REMARK  9 active torsions:
REMARK  status: ('A' for Active; 'I' for Inactive)
REMARK    1  A    between atoms: C_1  and  C_2
REMARK    2  A    between atoms: C_1  and  C_22
REMARK    3  A    between atoms: C_1  and  C_34
REMARK    4  A    between atoms: C_5  and  C_8
REMARK    5  A    between atoms: C_8  and  O_9
REMARK    6  A    between atoms: O_9  and  C_11
REMARK    7  A    between atoms: C_11  and  C_12
REMARK    8  A    between atoms: N_21  and  C_25
REMARK    9  A    between atoms: C_34  and  N_35
REMARK                            x       y       z     vdW  Elec       q    Type
REMARK                         _______ _______ _______ _____ _____    ______ ____
ROOT
ATOM      1  C   UNL     1      31.508 -11.031 -21.478  0.00  0.00    +0.077 C 
ENDROOT
BRANCH   1   2
ATOM      2  C   UNL     1      32.417 -12.190 -21.856  0.00  0.00    -0.016 C 
ATOM      3  C   UNL     1      32.941 -12.274 -23.146  0.00  0.00    -0.004 C 
ATOM      4  C   UNL     1      32.727 -13.170 -20.912  0.00  0.00    -0.004 C 
ATOM      5  C   UNL     1      34.083 -14.318 -22.549  0.00  0.00    +0.021 C 
ATOM      6  C   UNL     1      33.773 -13.339 -23.493  0.00  0.00    -0.001 C 
ATOM      7  C   UNL     1      33.559 -14.234 -21.260  0.00  0.00    -0.001 C 
BRANCH   5   8
ATOM      8  C   UNL     1      34.974 -15.455 -22.919  0.00  0.00    +0.235 C 
BRANCH   8   9
ATOM      9  O   UNL     1      34.693 -16.569 -22.080  0.00  0.00    -0.440 OA
BRANCH   9  11
ATOM     10  O   UNL     1      34.657 -18.011 -23.873  0.00  0.00    -0.245 OA
ATOM     11  C   UNL     1      34.744 -17.791 -22.675  0.00  0.00    +0.341 C 
BRANCH  11  12
ATOM     12  C   UNL     1      34.921 -18.862 -21.660  0.00  0.00    +0.072 C 
ATOM     13  C   UNL     1      36.188 -19.213 -21.197  0.00  0.00    -0.016 C 
ATOM     14  C   UNL     1      35.199 -20.881 -19.756  0.00  0.00    -0.022 C 
ATOM     15  C   UNL     1      36.328 -20.222 -20.244  0.00  0.00    -0.008 C 
ATOM     16  C   UNL     1      33.792 -19.520 -21.172  0.00  0.00    +0.006 C 
ATOM     17  C   UNL     1      33.931 -20.530 -20.220  0.00  0.00    -0.004 C 
ATOM     18  C   UNL     1      37.413 -18.523 -21.702  0.00  0.00    +0.031 C 
ATOM     19  C   UNL     1      35.346 -21.961 -18.738  0.00  0.00    +0.031 C 
ENDBRANCH  11  12
ENDBRANCH   9  11
ENDBRANCH   8   9
ENDBRANCH   5   8
ENDBRANCH   1   2
BRANCH   1  22
ATOM     20  O   UNL     1      33.287  -9.591 -22.256  0.00  0.00    -0.275 OA
ATOM     21  N   UNL     1      31.114  -8.705 -22.100  0.00  0.00    -0.284 N 
ATOM     22  C   UNL     1      32.093  -9.708 -21.995  0.00  0.00    +0.228 C 
ATOM     23  H   UNL     1      30.202  -8.966 -21.838  0.00  0.00    +0.155 HD
BRANCH  21  25
ATOM     24  N   UNL     1      32.551  -3.118 -24.930  0.00  0.00    -0.242 NA
ATOM     25  C   UNL     1      31.272  -7.386 -22.530  0.00  0.00    +0.050 C 
ATOM     26  C   UNL     1      32.075  -7.106 -23.637  0.00  0.00    +0.015 C 
ATOM     27  C   UNL     1      32.245  -5.785 -24.081  0.00  0.00    +0.004 C 
ATOM     28  C   UNL     1      30.629  -6.353 -21.854  0.00  0.00    +0.015 C 
ATOM     29  C   UNL     1      31.591  -4.741 -23.394  0.00  0.00    +0.019 C 
ATOM     30  C   UNL     1      30.785  -5.035 -22.281  0.00  0.00    +0.003 C 
ATOM     31  C   UNL     1      33.043  -5.472 -25.188  0.00  0.00    +0.021 C 
ATOM     32  C   UNL     1      31.783  -3.441 -23.864  0.00  0.00    +0.099 C 
ATOM     33  C   UNL     1      33.160  -4.142 -25.564  0.00  0.00    +0.099 C 
ENDBRANCH  21  25
ENDBRANCH   1  22
BRANCH   1  34
ATOM     34  C   UNL     1      31.247 -10.944 -19.961  0.00  0.00    -0.072 C 
BRANCH  34  35
ATOM     35  N   UNL     1      32.042  -9.894 -19.330  0.00  0.00    +0.381 N 
ATOM     36  H   UNL     1      31.996  -9.995 -18.316  0.00  0.00    -0.089 HD
ATOM     37  H   UNL     1      31.674  -8.982 -19.598  0.00  0.00    -0.089 HD
ATOM     38  H   UNL     1      33.012  -9.973 -19.636  0.00  0.00    -0.089 HD
ENDBRANCH  34  35
ENDBRANCH   1  34
TORSDOF 9
ENDMDL
MODEL 9
REMARK VINA RESULT:     -11.3      2.363      4.143
REMARK  Name = 66599893
REMARK  9 active torsions:
REMARK  status: ('A' for Active; 'I' for Inactive)
REMARK    1  A    between atoms: C_1  and  C_2
REMARK    2  A    between atoms: C_1  and  C_22
REMARK    3  A    between atoms: C_1  and  C_34
REMARK    4  A    between atoms: C_5  and  C_8
REMARK    5  A    between atoms: C_8  and  O_9
REMARK    6  A    between atoms: O_9  and  C_11
REMARK    7  A    between atoms: C_11  and  C_12
REMARK    8  A    between atoms: N_21  and  C_25
REMARK    9  A    between atoms: C_34  and  N_35
REMARK                            x       y       z     vdW  Elec       q    Type
REMARK                         _______ _______ _______ _____ _____    ______ ____
ROOT
ATOM      1  C   UNL     1      33.813 -13.925 -24.664  0.00  0.00    +0.077 C 
ENDROOT
BRANCH   1   2
ATOM      2  C   UNL     1      34.100 -15.361 -24.255  0.00  0.00    -0.016 C 
ATOM      3  C   UNL     1      34.930 -15.623 -23.164  0.00  0.00    -0.004 C 
ATOM      4  C   UNL     1      33.533 -16.417 -24.970  0.00  0.00    -0.004 C 
ATOM      5  C   UNL     1      34.628 -17.995 -23.504  0.00  0.00    +0.021 C 
ATOM      6  C   UNL     1      35.194 -16.940 -22.790  0.00  0.00    -0.001 C 
ATOM      7  C   UNL     1      33.798 -17.734 -24.595  0.00  0.00    -0.001 C 
BRANCH   5   8
ATOM      8  C   UNL     1      34.909 -19.404 -23.103  0.00  0.00    +0.235 C 
BRANCH   8   9
ATOM      9  O   UNL     1      34.260 -19.683 -21.869  0.00  0.00    -0.440 OA
BRANCH   9  11
ATOM     10  O   UNL     1      36.145 -19.254 -20.620  0.00  0.00    -0.245 OA
ATOM     11  C   UNL     1      35.071 -19.813 -20.784  0.00  0.00    +0.341 C 
BRANCH  11  12
ATOM     12  C   UNL     1      34.477 -20.744 -19.792  0.00  0.00    +0.072 C 
ATOM     13  C   UNL     1      35.282 -21.549 -18.987  0.00  0.00    -0.016 C 
ATOM     14  C   UNL     1      33.311 -22.480 -17.944  0.00  0.00    -0.022 C 
ATOM     15  C   UNL     1      34.700 -22.416 -18.063  0.00  0.00    -0.008 C 
ATOM     16  C   UNL     1      33.089 -20.807 -19.674  0.00  0.00    +0.006 C 
ATOM     17  C   UNL     1      32.505 -21.675 -18.751  0.00  0.00    -0.004 C 
ATOM     18  C   UNL     1      36.772 -21.501 -19.092  0.00  0.00    +0.031 C 
ATOM     19  C   UNL     1      32.686 -23.407 -16.958  0.00  0.00    +0.031 C 
ENDBRANCH  11  12
ENDBRANCH   9  11
ENDBRANCH   8   9
ENDBRANCH   5   8
ENDBRANCH   1   2
BRANCH   1  22
ATOM     20  O   UNL     1      32.754 -13.711 -22.501  0.00  0.00    -0.275 OA
ATOM     21  N   UNL     1      33.309 -11.752 -23.677  0.00  0.00    -0.284 N 
ATOM     22  C   UNL     1      33.232 -13.140 -23.478  0.00  0.00    +0.228 C 
ATOM     23  H   UNL     1      33.714 -11.461 -24.525  0.00  0.00    +0.155 HD
BRANCH  21  25
ATOM     24  N   UNL     1      31.943  -6.330 -20.510  0.00  0.00    -0.242 NA
ATOM     25  C   UNL     1      32.885 -10.732 -22.822  0.00  0.00    +0.050 C 
ATOM     26  C   UNL     1      33.224  -9.407 -23.098  0.00  0.00    +0.015 C 
ATOM     27  C   UNL     1      32.807  -8.370 -22.248  0.00  0.00    +0.004 C 
ATOM     28  C   UNL     1      32.126 -11.039 -21.697  0.00  0.00    +0.015 C 
ATOM     29  C   UNL     1      32.037  -8.686 -21.108  0.00  0.00    +0.019 C 
ATOM     30  C   UNL     1      31.702 -10.024 -20.841  0.00  0.00    +0.003 C 
ATOM     31  C   UNL     1      33.130  -7.031 -22.497  0.00  0.00    +0.021 C 
ATOM     32  C   UNL     1      31.640  -7.629 -20.286  0.00  0.00    +0.099 C 
ATOM     33  C   UNL     1      32.680  -6.065 -21.610  0.00  0.00    +0.099 C 
ENDBRANCH  21  25
ENDBRANCH   1  22
BRANCH   1  34
ATOM     34  C   UNL     1      32.873 -13.825 -25.883  0.00  0.00    -0.072 C 
BRANCH  34  35
ATOM     35  N   UNL     1      33.486 -13.088 -26.985  0.00  0.00    +0.381 N 
ATOM     36  H   UNL     1      33.742 -13.738 -27.728  0.00  0.00    -0.089 HD
ATOM     37  H   UNL     1      34.323 -12.610 -26.649  0.00  0.00    -0.089 HD
ATOM     38  H   UNL     1      32.824 -12.401 -27.344  0.00  0.00    -0.089 HD
ENDBRANCH  34  35
ENDBRANCH   1  34
TORSDOF 9
ENDMDL
