MODEL 1
REMARK VINA RESULT:     -12.2      0.000      0.000
REMARK  Name = 46911863
REMARK  3 active torsions:
REMARK  status: ('A' for Active; 'I' for Inactive)
REMARK    1  A    between atoms: C_5  and  C_18
REMARK    2  A    between atoms: C_7  and  C_12
REMARK    3  A    between atoms: C_18  and  C_20
REMARK                            x       y       z     vdW  Elec       q    Type
REMARK                         _______ _______ _______ _____ _____    ______ ____
ROOT
ATOM      1  N   UNL     1      34.310 -22.195 -17.959  0.00  0.00    -0.190 N 
ATOM      2  N   UNL     1      35.346 -22.612 -17.190  0.00  0.00    -0.162 NA
ATOM      3  N   UNL     1      33.173 -21.265 -19.586  0.00  0.00    -0.126 NA
ATOM      4  N   UNL     1      32.276 -21.821 -18.697  0.00  0.00    -0.127 NA
ATOM      5  C   UNL     1      34.383 -21.499 -19.129  0.00  0.00    +0.228 A 
ATOM      6  C   UNL     1      32.967 -22.377 -17.724  0.00  0.00    +0.187 A 
ATOM      7  C   UNL     1      34.981 -23.252 -16.115  0.00  0.00    +0.104 C 
ATOM      8  C   UNL     1      32.602 -23.086 -16.563  0.00  0.00    +0.042 C 
ATOM      9  C   UNL     1      33.558 -23.539 -15.742  0.00  0.00    +0.024 C 
ENDROOT
BRANCH   7  12
ATOM     10  N   UNL     1      37.163 -25.011 -13.807  0.00  0.00    -0.208 N 
ATOM     11  N   UNL     1      37.916 -23.903 -13.914  0.00  0.00    -0.176 NA
ATOM     12  C   UNL     1      36.026 -23.757 -15.187  0.00  0.00    +0.056 C 
ATOM     13  C   UNL     1      36.020 -24.974 -14.550  0.00  0.00    +0.087 C 
ATOM     14  C   UNL     1      37.216 -23.140 -14.757  0.00  0.00    +0.121 C 
ATOM     15  C   UNL     1      37.600 -26.096 -12.961  0.00  0.00    +0.140 C 
ENDBRANCH   7  12
BRANCH   5  18
ATOM     16  F   UNL     1      36.278 -22.163 -20.405  0.00  0.00    -0.191 F 
ATOM     17  F   UNL     1      36.630 -20.802 -18.778  0.00  0.00    -0.191 F 
ATOM     18  C   UNL     1      35.706 -21.077 -19.769  0.00  0.00    +0.335 C 
BRANCH  18  20
ATOM     19  N   UNL     1      35.068 -16.674 -23.266  0.00  0.00    -0.244 NA
ATOM     20  C   UNL     1      35.533 -19.923 -20.697  0.00  0.00    +0.045 C 
ATOM     21  C   UNL     1      34.798 -20.072 -21.870  0.00  0.00    +0.003 C 
ATOM     22  C   UNL     1      34.632 -18.986 -22.747  0.00  0.00    +0.018 C 
ATOM     23  C   UNL     1      36.103 -18.692 -20.396  0.00  0.00    +0.003 C 
ATOM     24  C   UNL     1      35.208 -17.734 -22.448  0.00  0.00    +0.081 C 
ATOM     25  C   UNL     1      35.938 -17.614 -21.269  0.00  0.00    +0.019 C 
ATOM     26  C   UNL     1      33.897 -19.108 -23.934  0.00  0.00    +0.003 C 
ATOM     27  C   UNL     1      33.751 -18.017 -24.779  0.00  0.00    +0.021 C 
ATOM     28  C   UNL     1      34.351 -16.833 -24.402  0.00  0.00    +0.099 C 
ENDBRANCH  18  20
ENDBRANCH   5  18
TORSDOF 3
ENDMDL
MODEL 2
REMARK VINA RESULT:     -11.7      2.047      2.999
REMARK  Name = 46911863
REMARK  3 active torsions:
REMARK  status: ('A' for Active; 'I' for Inactive)
REMARK    1  A    between atoms: C_5  and  C_18
REMARK    2  A    between atoms: C_7  and  C_12
REMARK    3  A    between atoms: C_18  and  C_20
REMARK                            x       y       z     vdW  Elec       q    Type
REMARK                         _______ _______ _______ _____ _____    ______ ____
ROOT
ATOM      1  N   UNL     1      32.855 -23.169 -15.959  0.00  0.00    -0.190 N 
ATOM      2  N   UNL     1      33.889 -23.655 -15.227  0.00  0.00    -0.162 NA
ATOM      3  N   UNL     1      31.690 -22.380 -17.639  0.00  0.00    -0.126 NA
ATOM      4  N   UNL     1      30.862 -22.451 -16.537  0.00  0.00    -0.127 NA
ATOM      5  C   UNL     1      32.876 -22.814 -17.275  0.00  0.00    +0.228 A 
ATOM      6  C   UNL     1      31.570 -22.926 -15.533  0.00  0.00    +0.187 A 
ATOM      7  C   UNL     1      33.585 -23.903 -13.985  0.00  0.00    +0.104 C 
ATOM      8  C   UNL     1      31.265 -23.218 -14.190  0.00  0.00    +0.042 C 
ATOM      9  C   UNL     1      32.223 -23.704 -13.390  0.00  0.00    +0.024 C 
ENDROOT
BRANCH   7  12
ATOM     10  N   UNL     1      36.456 -25.368 -12.314  0.00  0.00    -0.208 N 
ATOM     11  N   UNL     1      35.798 -25.008 -11.198  0.00  0.00    -0.176 NA
ATOM     12  C   UNL     1      34.635 -24.435 -13.078  0.00  0.00    +0.056 C 
ATOM     13  C   UNL     1      35.802 -25.047 -13.467  0.00  0.00    +0.087 C 
ATOM     14  C   UNL     1      34.686 -24.439 -11.672  0.00  0.00    +0.121 C 
ATOM     15  C   UNL     1      37.735 -26.029 -12.210  0.00  0.00    +0.140 C 
ENDBRANCH   7  12
BRANCH   5  18
ATOM     16  F   UNL     1      34.123 -24.139 -18.807  0.00  0.00    -0.191 F 
ATOM     17  F   UNL     1      35.244 -23.030 -17.346  0.00  0.00    -0.191 F 
ATOM     18  C   UNL     1      34.124 -22.923 -18.151  0.00  0.00    +0.335 C 
BRANCH  18  20
ATOM     19  N   UNL     1      34.515 -18.593 -21.773  0.00  0.00    -0.244 NA
ATOM     20  C   UNL     1      34.237 -21.782 -19.104  0.00  0.00    +0.045 C 
ATOM     21  C   UNL     1      35.486 -21.256 -19.421  0.00  0.00    +0.003 C 
ATOM     22  C   UNL     1      35.597 -20.180 -20.319  0.00  0.00    +0.018 C 
ATOM     23  C   UNL     1      33.097 -21.237 -19.681  0.00  0.00    +0.003 C 
ATOM     24  C   UNL     1      34.444 -19.623 -20.909  0.00  0.00    +0.081 C 
ATOM     25  C   UNL     1      33.208 -20.168 -20.573  0.00  0.00    +0.019 C 
ATOM     26  C   UNL     1      36.842 -19.632 -20.656  0.00  0.00    +0.003 C 
ATOM     27  C   UNL     1      36.918 -18.570 -21.547  0.00  0.00    +0.021 C 
ATOM     28  C   UNL     1      35.735 -18.092 -22.073  0.00  0.00    +0.099 C 
ENDBRANCH  18  20
ENDBRANCH   5  18
TORSDOF 3
ENDMDL
MODEL 3
REMARK VINA RESULT:     -11.7      2.883      9.469
REMARK  Name = 46911863
REMARK  3 active torsions:
REMARK  status: ('A' for Active; 'I' for Inactive)
REMARK    1  A    between atoms: C_5  and  C_18
REMARK    2  A    between atoms: C_7  and  C_12
REMARK    3  A    between atoms: C_18  and  C_20
REMARK                            x       y       z     vdW  Elec       q    Type
REMARK                         _______ _______ _______ _____ _____    ______ ____
ROOT
ATOM      1  N   UNL     1      34.414 -17.482 -23.534  0.00  0.00    -0.190 N 
ATOM      2  N   UNL     1      34.374 -16.198 -23.101  0.00  0.00    -0.162 NA
ATOM      3  N   UNL     1      34.888 -19.618 -23.660  0.00  0.00    -0.126 NA
ATOM      4  N   UNL     1      34.084 -19.292 -24.733  0.00  0.00    -0.127 NA
ATOM      5  C   UNL     1      35.074 -18.525 -22.954  0.00  0.00    +0.228 A 
ATOM      6  C   UNL     1      33.804 -18.008 -24.650  0.00  0.00    +0.187 A 
ATOM      7  C   UNL     1      33.670 -15.407 -23.859  0.00  0.00    +0.104 C 
ATOM      8  C   UNL     1      33.036 -17.134 -25.442  0.00  0.00    +0.042 C 
ATOM      9  C   UNL     1      32.938 -15.845 -25.092  0.00  0.00    +0.024 C 
ENDROOT
BRANCH   7  12
ATOM     10  N   UNL     1      33.728 -11.794 -23.502  0.00  0.00    -0.208 N 
ATOM     11  N   UNL     1      33.017 -12.046 -22.389  0.00  0.00    -0.176 NA
ATOM     12  C   UNL     1      33.554 -13.971 -23.493  0.00  0.00    +0.056 C 
ATOM     13  C   UNL     1      34.075 -12.913 -24.199  0.00  0.00    +0.087 C 
ATOM     14  C   UNL     1      32.915 -13.377 -22.388  0.00  0.00    +0.121 C 
ATOM     15  C   UNL     1      34.051 -10.432 -23.854  0.00  0.00    +0.140 C 
ENDBRANCH   7  12
BRANCH   5  18
ATOM     16  F   UNL     1      35.629 -17.163 -21.085  0.00  0.00    -0.191 F 
ATOM     17  F   UNL     1      37.235 -18.266 -21.995  0.00  0.00    -0.191 F 
ATOM     18  C   UNL     1      35.896 -18.386 -21.672  0.00  0.00    +0.335 C 
BRANCH  18  20
ATOM     19  N   UNL     1      35.018 -22.679 -18.093  0.00  0.00    -0.244 NA
ATOM     20  C   UNL     1      35.654 -19.515 -20.730  0.00  0.00    +0.045 C 
ATOM     21  C   UNL     1      34.354 -19.872 -20.384  0.00  0.00    +0.003 C 
ATOM     22  C   UNL     1      34.123 -20.937 -19.496  0.00  0.00    +0.018 C 
ATOM     23  C   UNL     1      36.725 -20.218 -20.192  0.00  0.00    +0.003 C 
ATOM     24  C   UNL     1      35.205 -21.654 -18.946  0.00  0.00    +0.081 C 
ATOM     25  C   UNL     1      36.494 -21.275 -19.309  0.00  0.00    +0.019 C 
ATOM     26  C   UNL     1      32.824 -21.318 -19.130  0.00  0.00    +0.003 C 
ATOM     27  C   UNL     1      32.629 -22.374 -18.252  0.00  0.00    +0.021 C 
ATOM     28  C   UNL     1      33.749 -23.016 -17.766  0.00  0.00    +0.099 C 
ENDBRANCH  18  20
ENDBRANCH   5  18
TORSDOF 3
ENDMDL
MODEL 4
REMARK VINA RESULT:     -11.6      3.052      5.482
REMARK  Name = 46911863
REMARK  3 active torsions:
REMARK  status: ('A' for Active; 'I' for Inactive)
REMARK    1  A    between atoms: C_5  and  C_18
REMARK    2  A    between atoms: C_7  and  C_12
REMARK    3  A    between atoms: C_18  and  C_20
REMARK                            x       y       z     vdW  Elec       q    Type
REMARK                         _______ _______ _______ _____ _____    ______ ____
ROOT
ATOM      1  N   UNL     1      32.801 -22.979 -16.343  0.00  0.00    -0.190 N 
ATOM      2  N   UNL     1      31.484 -22.898 -16.657  0.00  0.00    -0.162 NA
ATOM      3  N   UNL     1      34.983 -23.028 -16.539  0.00  0.00    -0.126 NA
ATOM      4  N   UNL     1      34.667 -23.192 -15.206  0.00  0.00    -0.127 NA
ATOM      5  C   UNL     1      33.856 -22.901 -17.203  0.00  0.00    +0.228 A 
ATOM      6  C   UNL     1      33.355 -23.161 -15.097  0.00  0.00    +0.187 A 
ATOM      7  C   UNL     1      30.689 -23.015 -15.630  0.00  0.00    +0.104 C 
ATOM      8  C   UNL     1      32.473 -23.267 -14.004  0.00  0.00    +0.042 C 
ATOM      9  C   UNL     1      31.153 -23.198 -14.216  0.00  0.00    +0.024 C 
ENDROOT
BRANCH   7  12
ATOM     10  N   UNL     1      27.094 -22.507 -15.608  0.00  0.00    -0.208 N 
ATOM     11  N   UNL     1      27.140 -23.226 -16.744  0.00  0.00    -0.176 NA
ATOM     12  C   UNL     1      29.220 -22.948 -15.845  0.00  0.00    +0.056 C 
ATOM     13  C   UNL     1      28.314 -22.313 -15.030  0.00  0.00    +0.087 C 
ATOM     14  C   UNL     1      28.441 -23.493 -16.882  0.00  0.00    +0.121 C 
ATOM     15  C   UNL     1      25.826 -22.023 -15.117  0.00  0.00    +0.140 C 
ENDBRANCH   7  12
BRANCH   5  18
ATOM     16  F   UNL     1      32.394 -22.318 -18.986  0.00  0.00    -0.191 F 
ATOM     17  F   UNL     1      33.781 -23.920 -19.351  0.00  0.00    -0.191 F 
ATOM     18  C   UNL     1      33.694 -22.698 -18.710  0.00  0.00    +0.335 C 
BRANCH  18  20
ATOM     19  N   UNL     1      37.469 -19.002 -20.735  0.00  0.00    -0.244 NA
ATOM     20  C   UNL     1      34.681 -21.721 -19.250  0.00  0.00    +0.045 C 
ATOM     21  C   UNL     1      34.294 -20.795 -20.214  0.00  0.00    +0.003 C 
ATOM     22  C   UNL     1      35.222 -19.871 -20.725  0.00  0.00    +0.018 C 
ATOM     23  C   UNL     1      35.993 -21.728 -18.794  0.00  0.00    +0.003 C 
ATOM     24  C   UNL     1      36.555 -19.873 -20.266  0.00  0.00    +0.081 C 
ATOM     25  C   UNL     1      36.915 -20.810 -19.303  0.00  0.00    +0.019 C 
ATOM     26  C   UNL     1      34.859 -18.928 -21.696  0.00  0.00    +0.003 C 
ATOM     27  C   UNL     1      35.798 -18.029 -22.180  0.00  0.00    +0.021 C 
ATOM     28  C   UNL     1      37.078 -18.107 -21.671  0.00  0.00    +0.099 C 
ENDBRANCH  18  20
ENDBRANCH   5  18
TORSDOF 3
ENDMDL
MODEL 5
REMARK VINA RESULT:     -11.1      6.914     12.565
REMARK  Name = 46911863
REMARK  3 active torsions:
REMARK  status: ('A' for Active; 'I' for Inactive)
REMARK    1  A    between atoms: C_5  and  C_18
REMARK    2  A    between atoms: C_7  and  C_12
REMARK    3  A    between atoms: C_18  and  C_20
REMARK                            x       y       z     vdW  Elec       q    Type
REMARK                         _______ _______ _______ _____ _____    ______ ____
ROOT
ATOM      1  N   UNL     1      32.559 -11.429 -22.139  0.00  0.00    -0.190 N 
ATOM      2  N   UNL     1      32.965 -10.314 -22.796  0.00  0.00    -0.162 NA
ATOM      3  N   UNL     1      32.263 -13.535 -21.607  0.00  0.00    -0.126 NA
ATOM      4  N   UNL     1      31.604 -12.759 -20.676  0.00  0.00    -0.127 NA
ATOM      5  C   UNL     1      32.829 -12.724 -22.473  0.00  0.00    +0.228 A 
ATOM      6  C   UNL     1      31.787 -11.497 -21.002  0.00  0.00    +0.187 A 
ATOM      7  C   UNL     1      32.551  -9.204 -22.254  0.00  0.00    +0.104 C 
ATOM      8  C   UNL     1      31.367 -10.281 -20.430  0.00  0.00    +0.042 C 
ATOM      9  C   UNL     1      31.721  -9.126 -21.008  0.00  0.00    +0.024 C 
ENDROOT
BRANCH   7  12
ATOM     10  N   UNL     1      32.839  -5.904 -23.742  0.00  0.00    -0.208 N 
ATOM     11  N   UNL     1      34.140  -6.228 -23.837  0.00  0.00    -0.176 NA
ATOM     12  C   UNL     1      32.925  -7.911 -22.885  0.00  0.00    +0.056 C 
ATOM     13  C   UNL     1      32.068  -6.878 -23.178  0.00  0.00    +0.087 C 
ATOM     14  C   UNL     1      34.186  -7.456 -23.313  0.00  0.00    +0.121 C 
ATOM     15  C   UNL     1      32.384  -4.619 -24.215  0.00  0.00    +0.140 C 
ENDBRANCH   7  12
BRANCH   5  18
ATOM     16  F   UNL     1      34.886 -12.462 -23.638  0.00  0.00    -0.191 F 
ATOM     17  F   UNL     1      33.102 -12.582 -24.832  0.00  0.00    -0.191 F 
ATOM     18  C   UNL     1      33.669 -13.115 -23.689  0.00  0.00    +0.335 C 
BRANCH  18  20
ATOM     19  N   UNL     1      34.293 -18.722 -24.128  0.00  0.00    -0.244 NA
ATOM     20  C   UNL     1      33.839 -14.592 -23.796  0.00  0.00    +0.045 C 
ATOM     21  C   UNL     1      34.555 -15.286 -22.825  0.00  0.00    +0.003 C 
ATOM     22  C   UNL     1      34.717 -16.680 -22.922  0.00  0.00    +0.018 C 
ATOM     23  C   UNL     1      33.284 -15.284 -24.865  0.00  0.00    +0.003 C 
ATOM     24  C   UNL     1      34.156 -17.388 -24.004  0.00  0.00    +0.081 C 
ATOM     25  C   UNL     1      33.446 -16.668 -24.961  0.00  0.00    +0.019 C 
ATOM     26  C   UNL     1      35.433 -17.403 -21.959  0.00  0.00    +0.003 C 
ATOM     27  C   UNL     1      35.575 -18.778 -22.083  0.00  0.00    +0.021 C 
ATOM     28  C   UNL     1      34.991 -19.384 -23.176  0.00  0.00    +0.099 C 
ENDBRANCH  18  20
ENDBRANCH   5  18
TORSDOF 3
ENDMDL
MODEL 6
REMARK VINA RESULT:     -11.0      2.433      8.734
REMARK  Name = 46911863
REMARK  3 active torsions:
REMARK  status: ('A' for Active; 'I' for Inactive)
REMARK    1  A    between atoms: C_5  and  C_18
REMARK    2  A    between atoms: C_7  and  C_12
REMARK    3  A    between atoms: C_18  and  C_20
REMARK                            x       y       z     vdW  Elec       q    Type
REMARK                         _______ _______ _______ _____ _____    ______ ____
ROOT
ATOM      1  N   UNL     1      35.515 -20.529 -19.946  0.00  0.00    -0.190 N 
ATOM      2  N   UNL     1      34.748 -20.144 -20.996  0.00  0.00    -0.162 NA
ATOM      3  N   UNL     1      36.193 -21.569 -18.141  0.00  0.00    -0.126 NA
ATOM      4  N   UNL     1      37.173 -20.671 -18.514  0.00  0.00    -0.127 NA
ATOM      5  C   UNL     1      35.211 -21.471 -19.008  0.00  0.00    +0.228 A 
ATOM      6  C   UNL     1      36.758 -20.051 -19.598  0.00  0.00    +0.187 A 
ATOM      7  C   UNL     1      35.287 -19.212 -21.730  0.00  0.00    +0.104 C 
ATOM      8  C   UNL     1      37.323 -19.056 -20.419  0.00  0.00    +0.042 C 
ATOM      9  C   UNL     1      36.639 -18.613 -21.481  0.00  0.00    +0.024 C 
ENDROOT
BRANCH   7  12
ATOM     10  N   UNL     1      33.716 -17.391 -24.451  0.00  0.00    -0.208 N 
ATOM     11  N   UNL     1      33.208 -18.597 -24.761  0.00  0.00    -0.176 NA
ATOM     12  C   UNL     1      34.541 -18.701 -22.909  0.00  0.00    +0.056 C 
ATOM     13  C   UNL     1      34.521 -17.399 -23.350  0.00  0.00    +0.087 C 
ATOM     14  C   UNL     1      33.715 -19.392 -23.815  0.00  0.00    +0.121 C 
ATOM     15  C   UNL     1      33.389 -16.245 -25.264  0.00  0.00    +0.140 C 
ENDBRANCH   7  12
BRANCH   5  18
ATOM     16  F   UNL     1      34.036 -23.365 -19.838  0.00  0.00    -0.191 F 
ATOM     17  F   UNL     1      32.925 -21.534 -19.660  0.00  0.00    -0.191 F 
ATOM     18  C   UNL     1      33.904 -22.264 -19.013  0.00  0.00    +0.335 C 
BRANCH  18  20
ATOM     19  N   UNL     1      32.346 -23.747 -13.779  0.00  0.00    -0.244 NA
ATOM     20  C   UNL     1      33.484 -22.653 -17.636  0.00  0.00    +0.045 C 
ATOM     21  C   UNL     1      32.136 -22.658 -17.292  0.00  0.00    +0.003 C 
ATOM     22  C   UNL     1      31.735 -23.025 -15.995  0.00  0.00    +0.018 C 
ATOM     23  C   UNL     1      34.436 -23.012 -16.690  0.00  0.00    +0.003 C 
ATOM     24  C   UNL     1      32.696 -23.391 -15.030  0.00  0.00    +0.081 C 
ATOM     25  C   UNL     1      34.037 -23.375 -15.402  0.00  0.00    +0.019 C 
ATOM     26  C   UNL     1      30.385 -23.039 -15.621  0.00  0.00    +0.003 C 
ATOM     27  C   UNL     1      30.022 -23.406 -14.333  0.00  0.00    +0.021 C 
ATOM     28  C   UNL     1      31.032 -23.748 -13.458  0.00  0.00    +0.099 C 
ENDBRANCH  18  20
ENDBRANCH   5  18
TORSDOF 3
ENDMDL
MODEL 7
REMARK VINA RESULT:     -10.8      2.426      3.811
REMARK  Name = 46911863
REMARK  3 active torsions:
REMARK  status: ('A' for Active; 'I' for Inactive)
REMARK    1  A    between atoms: C_5  and  C_18
REMARK    2  A    between atoms: C_7  and  C_12
REMARK    3  A    between atoms: C_18  and  C_20
REMARK                            x       y       z     vdW  Elec       q    Type
REMARK                         _______ _______ _______ _____ _____    ______ ____
ROOT
ATOM      1  N   UNL     1      35.124 -22.727 -16.357  0.00  0.00    -0.190 N 
ATOM      2  N   UNL     1      33.883 -23.178 -16.049  0.00  0.00    -0.162 NA
ATOM      3  N   UNL     1      36.810 -21.886 -17.476  0.00  0.00    -0.126 NA
ATOM      4  N   UNL     1      37.249 -22.195 -16.204  0.00  0.00    -0.127 NA
ATOM      5  C   UNL     1      35.539 -22.210 -17.548  0.00  0.00    +0.228 A 
ATOM      6  C   UNL     1      36.231 -22.700 -15.539  0.00  0.00    +0.187 A 
ATOM      7  C   UNL     1      33.772 -23.629 -14.832  0.00  0.00    +0.104 C 
ATOM      8  C   UNL     1      36.077 -23.179 -14.224  0.00  0.00    +0.042 C 
ATOM      9  C   UNL     1      34.886 -23.643 -13.829  0.00  0.00    +0.024 C 
ENDROOT
BRANCH   7  12
ATOM     10  N   UNL     1      30.344 -24.694 -14.281  0.00  0.00    -0.208 N 
ATOM     11  N   UNL     1      30.835 -25.151 -13.115  0.00  0.00    -0.176 NA
ATOM     12  C   UNL     1      32.459 -24.157 -14.376  0.00  0.00    +0.056 C 
ATOM     13  C   UNL     1      31.276 -24.090 -15.071  0.00  0.00    +0.087 C 
ATOM     14  C   UNL     1      32.127 -24.820 -13.179  0.00  0.00    +0.121 C 
ATOM     15  C   UNL     1      28.945 -24.870 -14.587  0.00  0.00    +0.140 C 
ENDBRANCH   7  12
BRANCH   5  18
ATOM     16  F   UNL     1      33.327 -21.809 -18.326  0.00  0.00    -0.191 F 
ATOM     17  F   UNL     1      34.482 -23.274 -19.394  0.00  0.00    -0.191 F 
ATOM     18  C   UNL     1      34.617 -22.054 -18.758  0.00  0.00    +0.335 C 
BRANCH  18  20
ATOM     19  N   UNL     1      36.473 -18.034 -22.282  0.00  0.00    -0.244 NA
ATOM     20  C   UNL     1      35.097 -20.996 -19.691  0.00  0.00    +0.045 C 
ATOM     21  C   UNL     1      34.269 -20.533 -20.710  0.00  0.00    +0.003 C 
ATOM     22  C   UNL     1      34.718 -19.534 -21.592  0.00  0.00    +0.018 C 
ATOM     23  C   UNL     1      36.373 -20.466 -19.550  0.00  0.00    +0.003 C 
ATOM     24  C   UNL     1      36.012 -18.991 -21.454  0.00  0.00    +0.081 C 
ATOM     25  C   UNL     1      36.819 -19.474 -20.427  0.00  0.00    +0.019 C 
ATOM     26  C   UNL     1      33.905 -19.049 -22.625  0.00  0.00    +0.003 C 
ATOM     27  C   UNL     1      34.377 -18.063 -23.479  0.00  0.00    +0.021 C 
ATOM     28  C   UNL     1      35.658 -17.593 -23.266  0.00  0.00    +0.099 C 
ENDBRANCH  18  20
ENDBRANCH   5  18
TORSDOF 3
ENDMDL
MODEL 8
REMARK VINA RESULT:     -10.6      5.355      8.871
REMARK  Name = 46911863
REMARK  3 active torsions:
REMARK  status: ('A' for Active; 'I' for Inactive)
REMARK    1  A    between atoms: C_5  and  C_18
REMARK    2  A    between atoms: C_7  and  C_12
REMARK    3  A    between atoms: C_18  and  C_20
REMARK                            x       y       z     vdW  Elec       q    Type
REMARK                         _______ _______ _______ _____ _____    ______ ____
ROOT
ATOM      1  N   UNL     1      33.941 -15.772 -23.557  0.00  0.00    -0.190 N 
ATOM      2  N   UNL     1      34.460 -16.482 -22.525  0.00  0.00    -0.162 NA
ATOM      3  N   UNL     1      33.079 -14.127 -24.722  0.00  0.00    -0.126 NA
ATOM      4  N   UNL     1      33.195 -15.226 -25.549  0.00  0.00    -0.127 NA
ATOM      5  C   UNL     1      33.531 -14.472 -23.536  0.00  0.00    +0.228 A 
ATOM      6  C   UNL     1      33.713 -16.209 -24.842  0.00  0.00    +0.187 A 
ATOM      7  C   UNL     1      34.759 -17.713 -22.829  0.00  0.00    +0.104 C 
ATOM      8  C   UNL     1      34.061 -17.539 -25.147  0.00  0.00    +0.042 C 
ATOM      9  C   UNL     1      34.582 -18.317 -24.190  0.00  0.00    +0.024 C 
ENDROOT
BRANCH   7  12
ATOM     10  N   UNL     1      35.601 -20.195 -20.315  0.00  0.00    -0.208 N 
ATOM     11  N   UNL     1      36.750 -19.501 -20.236  0.00  0.00    -0.176 NA
ATOM     12  C   UNL     1      35.331 -18.597 -21.780  0.00  0.00    +0.056 C 
ATOM     13  C   UNL     1      34.717 -19.694 -21.225  0.00  0.00    +0.087 C 
ATOM     14  C   UNL     1      36.579 -18.526 -21.132  0.00  0.00    +0.121 C 
ATOM     15  C   UNL     1      35.403 -21.353 -19.478  0.00  0.00    +0.140 C 
ENDBRANCH   7  12
BRANCH   5  18
ATOM     16  F   UNL     1      34.790 -13.839 -21.620  0.00  0.00    -0.191 F 
ATOM     17  F   UNL     1      32.662 -14.014 -21.370  0.00  0.00    -0.191 F 
ATOM     18  C   UNL     1      33.606 -13.592 -22.289  0.00  0.00    +0.335 C 
BRANCH  18  20
ATOM     19  N   UNL     1      33.037  -8.107 -23.559  0.00  0.00    -0.244 NA
ATOM     20  C   UNL     1      33.448 -12.146 -22.616  0.00  0.00    +0.045 C 
ATOM     21  C   UNL     1      32.499 -11.377 -21.950  0.00  0.00    +0.003 C 
ATOM     22  C   UNL     1      32.347 -10.013 -22.256  0.00  0.00    +0.018 C 
ATOM     23  C   UNL     1      34.248 -11.559 -23.588  0.00  0.00    +0.003 C 
ATOM     24  C   UNL     1      33.156  -9.411 -23.241  0.00  0.00    +0.081 C 
ATOM     25  C   UNL     1      34.096 -10.204 -23.892  0.00  0.00    +0.019 C 
ATOM     26  C   UNL     1      31.400  -9.215 -21.600  0.00  0.00    +0.003 C 
ATOM     27  C   UNL     1      31.275  -7.872 -21.924  0.00  0.00    +0.021 C 
ATOM     28  C   UNL     1      32.111  -7.371 -22.902  0.00  0.00    +0.099 C 
ENDBRANCH  18  20
ENDBRANCH   5  18
TORSDOF 3
ENDMDL
MODEL 9
REMARK VINA RESULT:     -10.4      7.048     12.703
REMARK  Name = 46911863
REMARK  3 active torsions:
REMARK  status: ('A' for Active; 'I' for Inactive)
REMARK    1  A    between atoms: C_5  and  C_18
REMARK    2  A    between atoms: C_7  and  C_12
REMARK    3  A    between atoms: C_18  and  C_20
REMARK                            x       y       z     vdW  Elec       q    Type
REMARK                         _______ _______ _______ _____ _____    ______ ____
ROOT
ATOM      1  N   UNL     1      32.540 -11.049 -22.122  0.00  0.00    -0.190 N 
ATOM      2  N   UNL     1      33.102 -10.055 -22.854  0.00  0.00    -0.162 NA
ATOM      3  N   UNL     1      31.982 -13.047 -21.415  0.00  0.00    -0.126 NA
ATOM      4  N   UNL     1      31.368 -12.116 -20.603  0.00  0.00    -0.127 NA
ATOM      5  C   UNL     1      32.679 -12.391 -22.316  0.00  0.00    +0.228 A 
ATOM      6  C   UNL     1      31.707 -10.919 -21.034  0.00  0.00    +0.187 A 
ATOM      7  C   UNL     1      32.788  -8.858 -22.446  0.00  0.00    +0.104 C 
ATOM      8  C   UNL     1      31.399  -9.614 -20.605  0.00  0.00    +0.042 C 
ATOM      9  C   UNL     1      31.909  -8.567 -21.266  0.00  0.00    +0.024 C 
ENDROOT
BRANCH   7  12
ATOM     10  N   UNL     1      33.512  -5.822 -24.303  0.00  0.00    -0.208 N 
ATOM     11  N   UNL     1      34.790  -6.188 -24.103  0.00  0.00    -0.176 NA
ATOM     12  C   UNL     1      33.337  -7.682 -23.170  0.00  0.00    +0.056 C 
ATOM     13  C   UNL     1      32.603  -6.684 -23.764  0.00  0.00    +0.087 C 
ATOM     14  C   UNL     1      34.677  -7.325 -23.412  0.00  0.00    +0.121 C 
ATOM     15  C   UNL     1      33.218  -4.612 -25.031  0.00  0.00    +0.140 C 
ENDBRANCH   7  12
BRANCH   5  18
ATOM     16  F   UNL     1      34.619 -12.171 -23.675  0.00  0.00    -0.191 F 
ATOM     17  F   UNL     1      32.842 -12.912 -24.631  0.00  0.00    -0.191 F 
ATOM     18  C   UNL     1      33.531 -12.990 -23.435  0.00  0.00    +0.335 C 
BRANCH  18  20
ATOM     19  N   UNL     1      35.134 -18.284 -22.241  0.00  0.00    -0.244 NA
ATOM     20  C   UNL     1      33.950 -14.388 -23.130  0.00  0.00    +0.045 C 
ATOM     21  C   UNL     1      33.732 -15.402 -24.058  0.00  0.00    +0.003 C 
ATOM     22  C   UNL     1      34.126 -16.721 -23.774  0.00  0.00    +0.018 C 
ATOM     23  C   UNL     1      34.559 -14.686 -21.917  0.00  0.00    +0.003 C 
ATOM     24  C   UNL     1      34.745 -17.031 -22.545  0.00  0.00    +0.081 C 
ATOM     25  C   UNL     1      34.949 -15.997 -21.636  0.00  0.00    +0.019 C 
ATOM     26  C   UNL     1      33.920 -17.762 -24.690  0.00  0.00    +0.003 C 
ATOM     27  C   UNL     1      34.320 -19.053 -24.380  0.00  0.00    +0.021 C 
ATOM     28  C   UNL     1      34.917 -19.260 -23.153  0.00  0.00    +0.099 C 
ENDBRANCH  18  20
ENDBRANCH   5  18
TORSDOF 3
ENDMDL
