MODEL 1
REMARK VINA RESULT:     -11.9      0.000      0.000
REMARK  Name = 6918314
REMARK  8 active torsions:
REMARK  status: ('A' for Active; 'I' for Inactive)
REMARK    1  A    between atoms: N_1  and  C_22
REMARK    2  A    between atoms: N_2  and  C_9
REMARK    3  A    between atoms: C_16  and  C_19
REMARK    4  A    between atoms: C_22  and  C_23
REMARK    5  A    between atoms: C_23  and  C_24
REMARK    6  A    between atoms: C_24  and  C_25
REMARK    7  A    between atoms: C_25  and  C_27
REMARK    8  A    between atoms: C_33  and  C_37
REMARK                            x       y       z     vdW  Elec       q    Type
REMARK                         _______ _______ _______ _____ _____    ______ ____
ROOT
ATOM      1  N   UNL     1      36.011 -20.616 -19.254  0.00  0.00    +0.389 N 
ATOM      2  N   UNL     1      35.201 -19.032 -21.487  0.00  0.00    -0.312 N 
ATOM      3  C   UNL     1      37.014 -19.985 -20.118  0.00  0.00    -0.055 C 
ATOM      4  C   UNL     1      34.836 -20.996 -20.046  0.00  0.00    -0.055 C 
ATOM      5  C   UNL     1      36.453 -18.727 -20.784  0.00  0.00    +0.068 C 
ATOM      6  C   UNL     1      34.202 -19.773 -20.711  0.00  0.00    +0.068 C 
ATOM      7  H   UNL     1      35.722 -19.947 -18.540  0.00  0.00    -0.080 HD
ENDROOT
BRANCH   2   9
ATOM      8  O   UNL     1      33.597 -15.471 -25.398  0.00  0.00    -0.449 OA
ATOM      9  C   UNL     1      34.786 -18.160 -22.501  0.00  0.00    +0.048 C 
ATOM     10  C   UNL     1      34.829 -16.757 -22.304  0.00  0.00    +0.018 C 
ATOM     11  C   UNL     1      34.318 -18.662 -23.735  0.00  0.00    +0.018 C 
ATOM     12  C   UNL     1      34.409 -15.895 -23.332  0.00  0.00    +0.039 C 
ATOM     13  C   UNL     1      33.959 -16.453 -24.525  0.00  0.00    +0.146 C 
ATOM     14  C   UNL     1      33.896 -17.823 -24.772  0.00  0.00    +0.039 C 
ATOM     15  C   UNL     1      34.310 -14.489 -23.502  0.00  0.00    +0.045 C 
ATOM     16  C   UNL     1      33.814 -14.285 -24.769  0.00  0.00    +0.198 C 
BRANCH  16  19
ATOM     17  O   UNL     1      32.967 -13.048 -26.613  0.00  0.00    -0.267 OA
ATOM     18  N   UNL     1      33.854 -11.861 -24.894  0.00  0.00    -0.323 N 
ATOM     19  C   UNL     1      33.509 -13.090 -25.479  0.00  0.00    +0.277 C 
ATOM     20  H   UNL     1      33.655 -11.019 -25.364  0.00  0.00    +0.145 HD
ATOM     21  H   UNL     1      34.295 -11.842 -24.014  0.00  0.00    +0.145 HD
ENDBRANCH  16  19
ENDBRANCH   2   9
BRANCH   1  22
ATOM     22  C   UNL     1      36.576 -21.785 -18.580  0.00  0.00    -0.077 C 
BRANCH  22  23
ATOM     23  C   UNL     1      36.941 -21.442 -17.137  0.00  0.00    -0.022 C 
BRANCH  23  24
ATOM     24  C   UNL     1      36.350 -22.460 -16.160  0.00  0.00    +0.003 C 
BRANCH  24  25
ATOM     25  C   UNL     1      34.904 -22.808 -16.524  0.00  0.00    +0.028 C 
BRANCH  25  27
ATOM     26  N   UNL     1      33.817 -24.729 -13.615  0.00  0.00    -0.312 N 
ATOM     27  C   UNL     1      34.193 -23.522 -15.413  0.00  0.00    -0.006 C 
ATOM     28  C   UNL     1      32.797 -23.559 -15.218  0.00  0.00    +0.011 C 
ATOM     29  C   UNL     1      34.803 -24.238 -14.428  0.00  0.00    +0.058 C 
ATOM     30  C   UNL     1      32.581 -24.329 -14.073  0.00  0.00    +0.048 C 
ATOM     31  C   UNL     1      31.683 -23.020 -15.892  0.00  0.00    +0.011 C 
ATOM     32  C   UNL     1      31.303 -24.589 -13.567  0.00  0.00    +0.015 C 
ATOM     33  C   UNL     1      30.398 -23.271 -15.398  0.00  0.00    +0.069 C 
ATOM     34  C   UNL     1      30.213 -24.043 -14.253  0.00  0.00    +0.012 C 
ATOM     35  H   UNL     1      33.968 -25.286 -12.817  0.00  0.00    +0.152 HD
BRANCH  33  37
ATOM     36  N   UNL     1      28.342 -22.288 -16.630  0.00  0.00    -0.191 NA
ATOM     37  C   UNL     1      29.263 -22.728 -16.078  0.00  0.00    +0.100 C 
ENDBRANCH  33  37
ENDBRANCH  25  27
ENDBRANCH  24  25
ENDBRANCH  23  24
ENDBRANCH  22  23
ENDBRANCH   1  22
TORSDOF 8
ENDMDL
MODEL 2
REMARK VINA RESULT:     -11.7      4.209     11.527
REMARK  Name = 6918314
REMARK  8 active torsions:
REMARK  status: ('A' for Active; 'I' for Inactive)
REMARK    1  A    between atoms: N_1  and  C_22
REMARK    2  A    between atoms: N_2  and  C_9
REMARK    3  A    between atoms: C_16  and  C_19
REMARK    4  A    between atoms: C_22  and  C_23
REMARK    5  A    between atoms: C_23  and  C_24
REMARK    6  A    between atoms: C_24  and  C_25
REMARK    7  A    between atoms: C_25  and  C_27
REMARK    8  A    between atoms: C_33  and  C_37
REMARK                            x       y       z     vdW  Elec       q    Type
REMARK                         _______ _______ _______ _____ _____    ______ ____
ROOT
ATOM      1  N   UNL     1      34.875 -17.118 -24.221  0.00  0.00    +0.389 N 
ATOM      2  N   UNL     1      34.841 -18.940 -22.023  0.00  0.00    -0.312 N 
ATOM      3  C   UNL     1      34.920 -16.618 -22.842  0.00  0.00    -0.055 C 
ATOM      4  C   UNL     1      34.066 -18.340 -24.283  0.00  0.00    -0.055 C 
ATOM      5  C   UNL     1      35.539 -17.655 -21.902  0.00  0.00    +0.068 C 
ATOM      6  C   UNL     1      34.655 -19.435 -23.391  0.00  0.00    +0.068 C 
ATOM      7  H   UNL     1      35.824 -17.336 -24.524  0.00  0.00    -0.080 HD
ENDROOT
BRANCH   2   9
ATOM      8  O   UNL     1      35.113 -22.533 -17.832  0.00  0.00    -0.449 OA
ATOM      9  C   UNL     1      34.948 -19.850 -20.964  0.00  0.00    +0.048 C 
ATOM     10  C   UNL     1      33.787 -20.355 -20.330  0.00  0.00    +0.018 C 
ATOM     11  C   UNL     1      36.215 -20.277 -20.508  0.00  0.00    +0.018 C 
ATOM     12  C   UNL     1      33.911 -21.268 -19.268  0.00  0.00    +0.039 C 
ATOM     13  C   UNL     1      35.188 -21.649 -18.867  0.00  0.00    +0.146 C 
ATOM     14  C   UNL     1      36.364 -21.184 -19.454  0.00  0.00    +0.039 C 
ATOM     15  C   UNL     1      33.015 -21.968 -18.419  0.00  0.00    +0.045 C 
ATOM     16  C   UNL     1      33.793 -22.719 -17.568  0.00  0.00    +0.198 C 
BRANCH  16  19
ATOM     17  O   UNL     1      34.251 -24.371 -15.923  0.00  0.00    -0.267 OA
ATOM     18  N   UNL     1      32.101 -23.669 -16.110  0.00  0.00    -0.323 N 
ATOM     19  C   UNL     1      33.444 -23.610 -16.515  0.00  0.00    +0.277 C 
ATOM     20  H   UNL     1      31.832 -24.277 -15.383  0.00  0.00    +0.145 HD
ATOM     21  H   UNL     1      31.428 -23.104 -16.552  0.00  0.00    +0.145 HD
ENDBRANCH  16  19
ENDBRANCH   2   9
BRANCH   1  22
ATOM     22  C   UNL     1      34.333 -16.098 -25.119  0.00  0.00    -0.077 C 
BRANCH  22  23
ATOM     23  C   UNL     1      33.217 -15.318 -24.425  0.00  0.00    -0.022 C 
BRANCH  23  24
ATOM     24  C   UNL     1      33.323 -13.821 -24.720  0.00  0.00    +0.003 C 
BRANCH  24  25
ATOM     25  C   UNL     1      34.011 -13.073 -23.574  0.00  0.00    +0.028 C 
BRANCH  25  27
ATOM     26  N   UNL     1      31.564 -12.495 -20.927  0.00  0.00    -0.312 N 
ATOM     27  C   UNL     1      33.033 -12.559 -22.560  0.00  0.00    -0.006 C 
ATOM     28  C   UNL     1      32.677 -11.208 -22.370  0.00  0.00    +0.011 C 
ATOM     29  C   UNL     1      32.347 -13.334 -21.673  0.00  0.00    +0.058 C 
ATOM     30  C   UNL     1      31.745 -11.191 -21.330  0.00  0.00    +0.048 C 
ATOM     31  C   UNL     1      33.046  -9.988 -22.970  0.00  0.00    +0.011 C 
ATOM     32  C   UNL     1      31.160 -10.010 -20.860  0.00  0.00    +0.015 C 
ATOM     33  C   UNL     1      32.469  -8.799 -22.509  0.00  0.00    +0.069 C 
ATOM     34  C   UNL     1      31.541  -8.811 -21.470  0.00  0.00    +0.012 C 
ATOM     35  H   UNL     1      30.958 -12.783 -20.206  0.00  0.00    +0.152 HD
BRANCH  33  37
ATOM     36  N   UNL     1      33.138  -6.548 -23.606  0.00  0.00    -0.191 NA
ATOM     37  C   UNL     1      32.838  -7.556 -23.115  0.00  0.00    +0.100 C 
ENDBRANCH  33  37
ENDBRANCH  25  27
ENDBRANCH  24  25
ENDBRANCH  23  24
ENDBRANCH  22  23
ENDBRANCH   1  22
TORSDOF 8
ENDMDL
MODEL 3
REMARK VINA RESULT:     -11.5      3.891      6.607
REMARK  Name = 6918314
REMARK  8 active torsions:
REMARK  status: ('A' for Active; 'I' for Inactive)
REMARK    1  A    between atoms: N_1  and  C_22
REMARK    2  A    between atoms: N_2  and  C_9
REMARK    3  A    between atoms: C_16  and  C_19
REMARK    4  A    between atoms: C_22  and  C_23
REMARK    5  A    between atoms: C_23  and  C_24
REMARK    6  A    between atoms: C_24  and  C_25
REMARK    7  A    between atoms: C_25  and  C_27
REMARK    8  A    between atoms: C_33  and  C_37
REMARK                            x       y       z     vdW  Elec       q    Type
REMARK                         _______ _______ _______ _____ _____    ______ ____
ROOT
ATOM      1  N   UNL     1      34.753 -15.963 -23.353  0.00  0.00    +0.389 N 
ATOM      2  N   UNL     1      33.397 -13.589 -22.528  0.00  0.00    -0.312 N 
ATOM      3  C   UNL     1      33.608 -15.459 -24.119  0.00  0.00    -0.055 C 
ATOM      4  C   UNL     1      34.568 -15.671 -21.927  0.00  0.00    -0.055 C 
ATOM      5  C   UNL     1      33.458 -13.945 -23.951  0.00  0.00    +0.068 C 
ATOM      6  C   UNL     1      34.448 -14.165 -21.684  0.00  0.00    +0.068 C 
ATOM      7  H   UNL     1      35.599 -15.494 -23.677  0.00  0.00    -0.080 HD
ENDROOT
BRANCH   2   9
ATOM      8  O   UNL     1      31.217  -8.669 -21.268  0.00  0.00    -0.449 OA
ATOM      9  C   UNL     1      32.823 -12.360 -22.182  0.00  0.00    +0.048 C 
ATOM     10  C   UNL     1      33.199 -11.175 -22.861  0.00  0.00    +0.018 C 
ATOM     11  C   UNL     1      31.863 -12.279 -21.149  0.00  0.00    +0.018 C 
ATOM     12  C   UNL     1      32.613  -9.948 -22.501  0.00  0.00    +0.039 C 
ATOM     13  C   UNL     1      31.673  -9.936 -21.476  0.00  0.00    +0.146 C 
ATOM     14  C   UNL     1      31.267 -11.070 -20.774  0.00  0.00    +0.039 C 
ATOM     15  C   UNL     1      32.728  -8.601 -22.935  0.00  0.00    +0.045 C 
ATOM     16  C   UNL     1      31.863  -7.868 -22.157  0.00  0.00    +0.198 C 
BRANCH  16  19
ATOM     17  O   UNL     1      31.035  -5.847 -23.096  0.00  0.00    -0.267 OA
ATOM     18  N   UNL     1      31.881  -5.738 -20.993  0.00  0.00    -0.323 N 
ATOM     19  C   UNL     1      31.559  -6.478 -22.142  0.00  0.00    +0.277 C 
ATOM     20  H   UNL     1      31.682  -4.774 -20.956  0.00  0.00    +0.145 HD
ATOM     21  H   UNL     1      32.307  -6.182 -20.225  0.00  0.00    +0.145 HD
ENDBRANCH  16  19
ENDBRANCH   2   9
BRANCH   1  22
ATOM     22  C   UNL     1      34.920 -17.400 -23.565  0.00  0.00    -0.077 C 
BRANCH  22  23
ATOM     23  C   UNL     1      35.638 -18.033 -22.374  0.00  0.00    -0.022 C 
BRANCH  23  24
ATOM     24  C   UNL     1      35.030 -19.392 -22.020  0.00  0.00    +0.003 C 
BRANCH  24  25
ATOM     25  C   UNL     1      35.585 -19.923 -20.695  0.00  0.00    +0.028 C 
BRANCH  25  27
ATOM     26  N   UNL     1      32.673 -21.660 -19.339  0.00  0.00    -0.312 N 
ATOM     27  C   UNL     1      34.572 -20.726 -19.935  0.00  0.00    -0.006 C 
ATOM     28  C   UNL     1      34.820 -21.468 -18.762  0.00  0.00    +0.011 C 
ATOM     29  C   UNL     1      33.259 -20.853 -20.277  0.00  0.00    +0.058 C 
ATOM     30  C   UNL     1      33.603 -22.052 -18.402  0.00  0.00    +0.048 C 
ATOM     31  C   UNL     1      35.952 -21.711 -17.959  0.00  0.00    +0.011 C 
ATOM     32  C   UNL     1      33.462 -22.868 -17.274  0.00  0.00    +0.015 C 
ATOM     33  C   UNL     1      35.826 -22.526 -16.828  0.00  0.00    +0.069 C 
ATOM     34  C   UNL     1      34.599 -23.095 -16.493  0.00  0.00    +0.012 C 
ATOM     35  H   UNL     1      31.725 -21.924 -19.335  0.00  0.00    +0.152 HD
BRANCH  33  37
ATOM     36  N   UNL     1      37.900 -22.978 -15.343  0.00  0.00    -0.191 NA
ATOM     37  C   UNL     1      36.971 -22.775 -16.008  0.00  0.00    +0.100 C 
ENDBRANCH  33  37
ENDBRANCH  25  27
ENDBRANCH  24  25
ENDBRANCH  23  24
ENDBRANCH  22  23
ENDBRANCH   1  22
TORSDOF 8
ENDMDL
MODEL 4
REMARK VINA RESULT:     -11.4      3.984      7.180
REMARK  Name = 6918314
REMARK  8 active torsions:
REMARK  status: ('A' for Active; 'I' for Inactive)
REMARK    1  A    between atoms: N_1  and  C_22
REMARK    2  A    between atoms: N_2  and  C_9
REMARK    3  A    between atoms: C_16  and  C_19
REMARK    4  A    between atoms: C_22  and  C_23
REMARK    5  A    between atoms: C_23  and  C_24
REMARK    6  A    between atoms: C_24  and  C_25
REMARK    7  A    between atoms: C_25  and  C_27
REMARK    8  A    between atoms: C_33  and  C_37
REMARK                            x       y       z     vdW  Elec       q    Type
REMARK                         _______ _______ _______ _____ _____    ______ ____
ROOT
ATOM      1  N   UNL     1      34.020 -15.837 -23.457  0.00  0.00    +0.389 N 
ATOM      2  N   UNL     1      33.252 -13.175 -22.762  0.00  0.00    -0.312 N 
ATOM      3  C   UNL     1      34.551 -15.204 -22.244  0.00  0.00    -0.055 C 
ATOM      4  C   UNL     1      33.818 -14.826 -24.501  0.00  0.00    -0.055 C 
ATOM      5  C   UNL     1      33.587 -14.143 -21.710  0.00  0.00    +0.068 C 
ATOM      6  C   UNL     1      32.830 -13.751 -24.043  0.00  0.00    +0.068 C 
ATOM      7  H   UNL     1      33.121 -16.267 -23.237  0.00  0.00    -0.080 HD
ENDROOT
BRANCH   2   9
ATOM      8  O   UNL     1      31.438  -8.155 -21.330  0.00  0.00    -0.449 OA
ATOM      9  C   UNL     1      32.770 -11.920 -22.373  0.00  0.00    +0.048 C 
ATOM     10  C   UNL     1      33.231 -10.743 -23.012  0.00  0.00    +0.018 C 
ATOM     11  C   UNL     1      31.818 -11.805 -21.335  0.00  0.00    +0.018 C 
ATOM     12  C   UNL     1      32.737  -9.490 -22.609  0.00  0.00    +0.039 C 
ATOM     13  C   UNL     1      31.800  -9.445 -21.582  0.00  0.00    +0.146 C 
ATOM     14  C   UNL     1      31.312 -10.569 -20.919  0.00  0.00    +0.039 C 
ATOM     15  C   UNL     1      32.950  -8.141 -22.997  0.00  0.00    +0.045 C 
ATOM     16  C   UNL     1      32.140  -7.374 -22.192  0.00  0.00    +0.198 C 
BRANCH  16  19
ATOM     17  O   UNL     1      31.728  -5.226 -23.123  0.00  0.00    -0.267 OA
ATOM     18  N   UNL     1      31.998  -5.341 -20.873  0.00  0.00    -0.323 N 
ATOM     19  C   UNL     1      31.939  -5.966 -22.129  0.00  0.00    +0.277 C 
ATOM     20  H   UNL     1      31.862  -4.368 -20.800  0.00  0.00    +0.145 HD
ATOM     21  H   UNL     1      32.175  -5.874 -20.065  0.00  0.00    +0.145 HD
ENDBRANCH  16  19
ENDBRANCH   2   9
BRANCH   1  22
ATOM     22  C   UNL     1      34.924 -16.886 -23.926  0.00  0.00    -0.077 C 
BRANCH  22  23
ATOM     23  C   UNL     1      34.129 -18.114 -24.366  0.00  0.00    -0.022 C 
BRANCH  23  24
ATOM     24  C   UNL     1      34.594 -19.369 -23.625  0.00  0.00    +0.003 C 
BRANCH  24  25
ATOM     25  C   UNL     1      34.124 -19.363 -22.167  0.00  0.00    +0.028 C 
BRANCH  25  27
ATOM     26  N   UNL     1      37.207 -19.594 -20.224  0.00  0.00    -0.312 N 
ATOM     27  C   UNL     1      35.241 -19.642 -21.206  0.00  0.00    -0.006 C 
ATOM     28  C   UNL     1      35.177 -20.512 -20.098  0.00  0.00    +0.011 C 
ATOM     29  C   UNL     1      36.485 -19.089 -21.271  0.00  0.00    +0.058 C 
ATOM     30  C   UNL     1      36.434 -20.466 -19.490  0.00  0.00    +0.048 C 
ATOM     31  C   UNL     1      34.183 -21.340 -19.539  0.00  0.00    +0.011 C 
ATOM     32  C   UNL     1      36.747 -21.210 -18.348  0.00  0.00    +0.015 C 
ATOM     33  C   UNL     1      34.483 -22.090 -18.396  0.00  0.00    +0.069 C 
ATOM     34  C   UNL     1      35.745 -22.024 -17.811  0.00  0.00    +0.012 C 
ATOM     35  H   UNL     1      38.144 -19.368 -20.024  0.00  0.00    +0.152 HD
BRANCH  33  37
ATOM     36  N   UNL     1      32.665 -23.617 -17.359  0.00  0.00    -0.191 NA
ATOM     37  C   UNL     1      33.479 -22.933 -17.824  0.00  0.00    +0.100 C 
ENDBRANCH  33  37
ENDBRANCH  25  27
ENDBRANCH  24  25
ENDBRANCH  23  24
ENDBRANCH  22  23
ENDBRANCH   1  22
TORSDOF 8
ENDMDL
MODEL 5
REMARK VINA RESULT:     -11.4      4.318     12.324
REMARK  Name = 6918314
REMARK  8 active torsions:
REMARK  status: ('A' for Active; 'I' for Inactive)
REMARK    1  A    between atoms: N_1  and  C_22
REMARK    2  A    between atoms: N_2  and  C_9
REMARK    3  A    between atoms: C_16  and  C_19
REMARK    4  A    between atoms: C_22  and  C_23
REMARK    5  A    between atoms: C_23  and  C_24
REMARK    6  A    between atoms: C_24  and  C_25
REMARK    7  A    between atoms: C_25  and  C_27
REMARK    8  A    between atoms: C_33  and  C_37
REMARK                            x       y       z     vdW  Elec       q    Type
REMARK                         _______ _______ _______ _____ _____    ______ ____
ROOT
ATOM      1  N   UNL     1      34.730 -16.774 -24.352  0.00  0.00    +0.389 N 
ATOM      2  N   UNL     1      34.758 -18.635 -22.186  0.00  0.00    -0.312 N 
ATOM      3  C   UNL     1      34.868 -16.301 -22.970  0.00  0.00    -0.055 C 
ATOM      4  C   UNL     1      33.879 -17.969 -24.388  0.00  0.00    -0.055 C 
ATOM      5  C   UNL     1      35.504 -17.375 -22.083  0.00  0.00    +0.068 C 
ATOM      6  C   UNL     1      34.480 -19.098 -23.549  0.00  0.00    +0.068 C 
ATOM      7  H   UNL     1      35.653 -17.017 -24.712  0.00  0.00    -0.080 HD
ENDROOT
BRANCH   2   9
ATOM      8  O   UNL     1      35.146 -22.322 -18.087  0.00  0.00    -0.449 OA
ATOM      9  C   UNL     1      34.895 -19.566 -21.150  0.00  0.00    +0.048 C 
ATOM     10  C   UNL     1      33.750 -20.131 -20.535  0.00  0.00    +0.018 C 
ATOM     11  C   UNL     1      36.175 -19.958 -20.698  0.00  0.00    +0.018 C 
ATOM     12  C   UNL     1      33.904 -21.065 -19.496  0.00  0.00    +0.039 C 
ATOM     13  C   UNL     1      35.192 -21.409 -19.098  0.00  0.00    +0.146 C 
ATOM     14  C   UNL     1      36.352 -20.886 -19.666  0.00  0.00    +0.039 C 
ATOM     15  C   UNL     1      33.031 -21.820 -18.670  0.00  0.00    +0.045 C 
ATOM     16  C   UNL     1      33.832 -22.563 -17.835  0.00  0.00    +0.198 C 
BRANCH  16  19
ATOM     17  O   UNL     1      34.329 -24.292 -16.282  0.00  0.00    -0.267 OA
ATOM     18  N   UNL     1      32.186 -23.549 -16.347  0.00  0.00    -0.323 N 
ATOM     19  C   UNL     1      33.512 -23.493 -16.806  0.00  0.00    +0.277 C 
ATOM     20  H   UNL     1      31.938 -24.183 -15.636  0.00  0.00    +0.145 HD
ATOM     21  H   UNL     1      31.505 -22.954 -16.736  0.00  0.00    +0.145 HD
ENDBRANCH  16  19
ENDBRANCH   2   9
BRANCH   1  22
ATOM     22  C   UNL     1      34.172 -15.721 -25.201  0.00  0.00    -0.077 C 
BRANCH  22  23
ATOM     23  C   UNL     1      33.288 -14.788 -24.376  0.00  0.00    -0.022 C 
BRANCH  23  24
ATOM     24  C   UNL     1      33.351 -13.354 -24.907  0.00  0.00    +0.003 C 
BRANCH  24  25
ATOM     25  C   UNL     1      33.251 -12.333 -23.770  0.00  0.00    +0.028 C 
BRANCH  25  27
ATOM     26  N   UNL     1      35.533  -9.719 -24.907  0.00  0.00    -0.312 N 
ATOM     27  C   UNL     1      34.052 -11.095 -24.044  0.00  0.00    -0.006 C 
ATOM     28  C   UNL     1      33.888  -9.849 -23.406  0.00  0.00    +0.011 C 
ATOM     29  C   UNL     1      35.059 -11.002 -24.958  0.00  0.00    +0.058 C 
ATOM     30  C   UNL     1      34.836  -8.992 -23.968  0.00  0.00    +0.048 C 
ATOM     31  C   UNL     1      33.031  -9.349 -22.405  0.00  0.00    +0.011 C 
ATOM     32  C   UNL     1      34.973  -7.656 -23.576  0.00  0.00    +0.015 C 
ATOM     33  C   UNL     1      33.156  -8.014 -22.003  0.00  0.00    +0.069 C 
ATOM     34  C   UNL     1      34.112  -7.182 -22.582  0.00  0.00    +0.012 C 
ATOM     35  H   UNL     1      36.267  -9.367 -25.462  0.00  0.00    +0.152 HD
BRANCH  33  37
ATOM     36  N   UNL     1      31.588  -7.083 -20.162  0.00  0.00    -0.191 NA
ATOM     37  C   UNL     1      32.291  -7.500 -20.987  0.00  0.00    +0.100 C 
ENDBRANCH  33  37
ENDBRANCH  25  27
ENDBRANCH  24  25
ENDBRANCH  23  24
ENDBRANCH  22  23
ENDBRANCH   1  22
TORSDOF 8
ENDMDL
MODEL 6
REMARK VINA RESULT:     -11.3      3.877      7.585
REMARK  Name = 6918314
REMARK  8 active torsions:
REMARK  status: ('A' for Active; 'I' for Inactive)
REMARK    1  A    between atoms: N_1  and  C_22
REMARK    2  A    between atoms: N_2  and  C_9
REMARK    3  A    between atoms: C_16  and  C_19
REMARK    4  A    between atoms: C_22  and  C_23
REMARK    5  A    between atoms: C_23  and  C_24
REMARK    6  A    between atoms: C_24  and  C_25
REMARK    7  A    between atoms: C_25  and  C_27
REMARK    8  A    between atoms: C_33  and  C_37
REMARK                            x       y       z     vdW  Elec       q    Type
REMARK                         _______ _______ _______ _____ _____    ______ ____
ROOT
ATOM      1  N   UNL     1      33.885 -15.508 -24.626  0.00  0.00    +0.389 N 
ATOM      2  N   UNL     1      33.846 -12.717 -24.024  0.00  0.00    -0.312 N 
ATOM      3  C   UNL     1      34.632 -14.987 -23.475  0.00  0.00    -0.055 C 
ATOM      4  C   UNL     1      33.876 -14.515 -25.707  0.00  0.00    -0.055 C 
ATOM      5  C   UNL     1      33.996 -13.700 -22.944  0.00  0.00    +0.068 C 
ATOM      6  C   UNL     1      33.215 -13.212 -25.251  0.00  0.00    +0.068 C 
ATOM      7  H   UNL     1      32.923 -15.691 -24.340  0.00  0.00    -0.080 HD
ENDROOT
BRANCH   2   9
ATOM      8  O   UNL     1      33.197  -7.426 -22.564  0.00  0.00    -0.449 OA
ATOM      9  C   UNL     1      33.715 -11.368 -23.671  0.00  0.00    +0.048 C 
ATOM     10  C   UNL     1      32.580 -10.920 -22.951  0.00  0.00    +0.018 C 
ATOM     11  C   UNL     1      34.710 -10.431 -24.028  0.00  0.00    +0.018 C 
ATOM     12  C   UNL     1      32.464  -9.563 -22.604  0.00  0.00    +0.039 C 
ATOM     13  C   UNL     1      33.479  -8.691 -22.985  0.00  0.00    +0.146 C 
ATOM     14  C   UNL     1      34.616  -9.076 -23.693  0.00  0.00    +0.039 C 
ATOM     15  C   UNL     1      31.513  -8.768 -21.912  0.00  0.00    +0.045 C 
ATOM     16  C   UNL     1      32.004  -7.483 -21.916  0.00  0.00    +0.198 C 
BRANCH  16  19
ATOM     17  O   UNL     1      30.324  -5.834 -21.592  0.00  0.00    -0.267 OA
ATOM     18  N   UNL     1      32.315  -5.496 -20.557  0.00  0.00    -0.323 N 
ATOM     19  C   UNL     1      31.481  -6.275 -21.376  0.00  0.00    +0.277 C 
ATOM     20  H   UNL     1      31.979  -4.655 -20.171  0.00  0.00    +0.145 HD
ATOM     21  H   UNL     1      33.235  -5.790 -20.370  0.00  0.00    +0.145 HD
ENDBRANCH  16  19
ENDBRANCH   2   9
BRANCH   1  22
ATOM     22  C   UNL     1      34.470 -16.766 -25.090  0.00  0.00    -0.077 C 
BRANCH  22  23
ATOM     23  C   UNL     1      33.561 -17.939 -24.730  0.00  0.00    -0.022 C 
BRANCH  23  24
ATOM     24  C   UNL     1      34.287 -18.947 -23.838  0.00  0.00    +0.003 C 
BRANCH  24  25
ATOM     25  C   UNL     1      34.187 -18.558 -22.359  0.00  0.00    +0.028 C 
BRANCH  25  27
ATOM     26  N   UNL     1      37.323 -19.542 -20.768  0.00  0.00    -0.312 N 
ATOM     27  C   UNL     1      35.307 -19.130 -21.543  0.00  0.00    -0.006 C 
ATOM     28  C   UNL     1      35.171 -20.072 -20.502  0.00  0.00    +0.011 C 
ATOM     29  C   UNL     1      36.624 -18.815 -21.694  0.00  0.00    +0.058 C 
ATOM     30  C   UNL     1      36.460 -20.318 -20.025  0.00  0.00    +0.048 C 
ATOM     31  C   UNL     1      34.087 -20.748 -19.907  0.00  0.00    +0.011 C 
ATOM     32  C   UNL     1      36.721 -21.211 -18.980  0.00  0.00    +0.015 C 
ATOM     33  C   UNL     1      34.333 -21.643 -18.860  0.00  0.00    +0.069 C 
ATOM     34  C   UNL     1      35.630 -21.870 -18.405  0.00  0.00    +0.012 C 
ATOM     35  H   UNL     1      38.299 -19.515 -20.648  0.00  0.00    +0.152 HD
BRANCH  33  37
ATOM     36  N   UNL     1      32.348 -22.894 -17.760  0.00  0.00    -0.191 NA
ATOM     37  C   UNL     1      33.237 -22.334 -18.252  0.00  0.00    +0.100 C 
ENDBRANCH  33  37
ENDBRANCH  25  27
ENDBRANCH  24  25
ENDBRANCH  23  24
ENDBRANCH  22  23
ENDBRANCH   1  22
TORSDOF 8
ENDMDL
MODEL 7
REMARK VINA RESULT:     -11.3      2.212      4.254
REMARK  Name = 6918314
REMARK  8 active torsions:
REMARK  status: ('A' for Active; 'I' for Inactive)
REMARK    1  A    between atoms: N_1  and  C_22
REMARK    2  A    between atoms: N_2  and  C_9
REMARK    3  A    between atoms: C_16  and  C_19
REMARK    4  A    between atoms: C_22  and  C_23
REMARK    5  A    between atoms: C_23  and  C_24
REMARK    6  A    between atoms: C_24  and  C_25
REMARK    7  A    between atoms: C_25  and  C_27
REMARK    8  A    between atoms: C_33  and  C_37
REMARK                            x       y       z     vdW  Elec       q    Type
REMARK                         _______ _______ _______ _____ _____    ______ ____
ROOT
ATOM      1  N   UNL     1      35.573 -21.019 -19.915  0.00  0.00    +0.389 N 
ATOM      2  N   UNL     1      35.040 -18.705 -21.503  0.00  0.00    -0.312 N 
ATOM      3  C   UNL     1      34.197 -20.540 -20.091  0.00  0.00    -0.055 C 
ATOM      4  C   UNL     1      36.500 -19.881 -19.905  0.00  0.00    -0.055 C 
ATOM      5  C   UNL     1      34.044 -19.779 -21.410  0.00  0.00    +0.068 C 
ATOM      6  C   UNL     1      36.424 -19.097 -21.216  0.00  0.00    +0.068 C 
ATOM      7  H   UNL     1      35.812 -21.630 -20.696  0.00  0.00    -0.080 HD
ENDROOT
BRANCH   2   9
ATOM      8  O   UNL     1      34.050 -14.429 -24.860  0.00  0.00    -0.449 OA
ATOM      9  C   UNL     1      34.786 -17.647 -22.383  0.00  0.00    +0.048 C 
ATOM     10  C   UNL     1      34.748 -16.312 -21.910  0.00  0.00    +0.018 C 
ATOM     11  C   UNL     1      34.563 -17.890 -23.757  0.00  0.00    +0.018 C 
ATOM     12  C   UNL     1      34.492 -15.260 -22.806  0.00  0.00    +0.039 C 
ATOM     13  C   UNL     1      34.281 -15.566 -24.147  0.00  0.00    +0.146 C 
ATOM     14  C   UNL     1      34.307 -16.860 -24.667  0.00  0.00    +0.039 C 
ATOM     15  C   UNL     1      34.380 -13.848 -22.711  0.00  0.00    +0.045 C 
ATOM     16  C   UNL     1      34.112 -13.393 -23.982  0.00  0.00    +0.198 C 
BRANCH  16  19
ATOM     17  O   UNL     1      33.530 -11.811 -25.657  0.00  0.00    -0.267 OA
ATOM     18  N   UNL     1      34.143 -10.991 -23.631  0.00  0.00    -0.323 N 
ATOM     19  C   UNL     1      33.901 -12.079 -24.486  0.00  0.00    +0.277 C 
ATOM     20  H   UNL     1      34.006 -10.072 -23.954  0.00  0.00    +0.145 HD
ATOM     21  H   UNL     1      34.450 -11.148 -22.709  0.00  0.00    +0.145 HD
ENDBRANCH  16  19
ENDBRANCH   2   9
BRANCH   1  22
ATOM     22  C   UNL     1      35.693 -21.791 -18.679  0.00  0.00    -0.077 C 
BRANCH  22  23
ATOM     23  C   UNL     1      34.445 -22.644 -18.462  0.00  0.00    -0.022 C 
BRANCH  23  24
ATOM     24  C   UNL     1      34.138 -22.807 -16.972  0.00  0.00    +0.003 C 
BRANCH  24  25
ATOM     25  C   UNL     1      35.416 -22.750 -16.130  0.00  0.00    +0.028 C 
BRANCH  25  27
ATOM     26  N   UNL     1      34.491 -24.531 -13.080  0.00  0.00    -0.312 N 
ATOM     27  C   UNL     1      35.311 -23.567 -14.878  0.00  0.00    -0.006 C 
ATOM     28  C   UNL     1      36.356 -24.303 -14.283  0.00  0.00    +0.011 C 
ATOM     29  C   UNL     1      34.178 -23.716 -14.134  0.00  0.00    +0.058 C 
ATOM     30  C   UNL     1      35.815 -24.906 -13.146  0.00  0.00    +0.048 C 
ATOM     31  C   UNL     1      37.714 -24.526 -14.587  0.00  0.00    +0.011 C 
ATOM     32  C   UNL     1      36.566 -25.722 -12.293  0.00  0.00    +0.015 C 
ATOM     33  C   UNL     1      38.478 -25.341 -13.744  0.00  0.00    +0.069 C 
ATOM     34  C   UNL     1      37.911 -25.929 -12.615  0.00  0.00    +0.012 C 
ATOM     35  H   UNL     1      33.861 -24.810 -12.376  0.00  0.00    +0.152 HD
BRANCH  33  37
ATOM     36  N   UNL     1      40.976 -25.757 -14.291  0.00  0.00    -0.191 NA
ATOM     37  C   UNL     1      39.857 -25.571 -14.046  0.00  0.00    +0.100 C 
ENDBRANCH  33  37
ENDBRANCH  25  27
ENDBRANCH  24  25
ENDBRANCH  23  24
ENDBRANCH  22  23
ENDBRANCH   1  22
TORSDOF 8
ENDMDL
MODEL 8
REMARK VINA RESULT:     -11.2      4.659     12.210
REMARK  Name = 6918314
REMARK  8 active torsions:
REMARK  status: ('A' for Active; 'I' for Inactive)
REMARK    1  A    between atoms: N_1  and  C_22
REMARK    2  A    between atoms: N_2  and  C_9
REMARK    3  A    between atoms: C_16  and  C_19
REMARK    4  A    between atoms: C_22  and  C_23
REMARK    5  A    between atoms: C_23  and  C_24
REMARK    6  A    between atoms: C_24  and  C_25
REMARK    7  A    between atoms: C_25  and  C_27
REMARK    8  A    between atoms: C_33  and  C_37
REMARK                            x       y       z     vdW  Elec       q    Type
REMARK                         _______ _______ _______ _____ _____    ______ ____
ROOT
ATOM      1  N   UNL     1      34.659 -20.802 -20.633  0.00  0.00    +0.389 N 
ATOM      2  N   UNL     1      34.756 -21.974 -18.031  0.00  0.00    -0.312 N 
ATOM      3  C   UNL     1      35.813 -20.570 -19.758  0.00  0.00    -0.055 C 
ATOM      4  C   UNL     1      33.438 -20.926 -19.829  0.00  0.00    -0.055 C 
ATOM      5  C   UNL     1      35.998 -21.727 -18.774  0.00  0.00    +0.068 C 
ATOM      6  C   UNL     1      33.543 -22.094 -18.846  0.00  0.00    +0.068 C 
ATOM      7  H   UNL     1      34.804 -21.672 -21.146  0.00  0.00    -0.080 HD
ENDROOT
BRANCH   2   9
ATOM      8  O   UNL     1      35.250 -24.629 -13.209  0.00  0.00    -0.449 OA
ATOM      9  C   UNL     1      34.843 -22.656 -16.811  0.00  0.00    +0.048 C 
ATOM     10  C   UNL     1      36.078 -22.739 -16.121  0.00  0.00    +0.018 C 
ATOM     11  C   UNL     1      33.704 -23.273 -16.248  0.00  0.00    +0.018 C 
ATOM     12  C   UNL     1      36.149 -23.426 -14.897  0.00  0.00    +0.039 C 
ATOM     13  C   UNL     1      34.991 -24.011 -14.396  0.00  0.00    +0.146 C 
ATOM     14  C   UNL     1      33.751 -23.961 -15.032  0.00  0.00    +0.039 C 
ATOM     15  C   UNL     1      37.167 -23.712 -13.950  0.00  0.00    +0.045 C 
ATOM     16  C   UNL     1      36.570 -24.442 -12.948  0.00  0.00    +0.198 C 
BRANCH  16  19
ATOM     17  O   UNL     1      36.779 -26.121 -11.279  0.00  0.00    -0.267 OA
ATOM     18  N   UNL     1      38.024 -24.242 -11.013  0.00  0.00    -0.323 N 
ATOM     19  C   UNL     1      37.097 -24.999 -11.748  0.00  0.00    +0.277 C 
ATOM     20  H   UNL     1      38.404 -24.604 -10.180  0.00  0.00    +0.145 HD
ATOM     21  H   UNL     1      38.294 -23.351 -11.331  0.00  0.00    +0.145 HD
ENDBRANCH  16  19
ENDBRANCH   2   9
BRANCH   1  22
ATOM     22  C   UNL     1      34.525 -19.717 -21.605  0.00  0.00    -0.077 C 
BRANCH  22  23
ATOM     23  C   UNL     1      35.206 -18.452 -21.085  0.00  0.00    -0.022 C 
BRANCH  23  24
ATOM     24  C   UNL     1      35.686 -17.569 -22.238  0.00  0.00    +0.003 C 
BRANCH  24  25
ATOM     25  C   UNL     1      34.964 -16.218 -22.244  0.00  0.00    +0.028 C 
BRANCH  25  27
ATOM     26  N   UNL     1      33.476 -16.150 -25.578  0.00  0.00    -0.312 N 
ATOM     27  C   UNL     1      34.352 -15.905 -23.576  0.00  0.00    -0.006 C 
ATOM     28  C   UNL     1      34.055 -14.616 -24.065  0.00  0.00    +0.011 C 
ATOM     29  C   UNL     1      33.993 -16.831 -24.509  0.00  0.00    +0.058 C 
ATOM     30  C   UNL     1      33.500 -14.794 -25.334  0.00  0.00    +0.048 C 
ATOM     31  C   UNL     1      34.197 -13.306 -23.565  0.00  0.00    +0.011 C 
ATOM     32  C   UNL     1      33.081 -13.725 -26.132  0.00  0.00    +0.015 C 
ATOM     33  C   UNL     1      33.780 -12.226 -24.352  0.00  0.00    +0.069 C 
ATOM     34  C   UNL     1      33.230 -12.434 -25.615  0.00  0.00    +0.012 C 
ATOM     35  H   UNL     1      33.135 -16.567 -26.401  0.00  0.00    +0.152 HD
BRANCH  33  37
ATOM     36  N   UNL     1      34.037  -9.812 -23.446  0.00  0.00    -0.191 NA
ATOM     37  C   UNL     1      33.922 -10.893 -23.852  0.00  0.00    +0.100 C 
ENDBRANCH  33  37
ENDBRANCH  25  27
ENDBRANCH  24  25
ENDBRANCH  23  24
ENDBRANCH  22  23
ENDBRANCH   1  22
TORSDOF 8
ENDMDL
MODEL 9
REMARK VINA RESULT:     -11.1      3.344      5.933
REMARK  Name = 6918314
REMARK  8 active torsions:
REMARK  status: ('A' for Active; 'I' for Inactive)
REMARK    1  A    between atoms: N_1  and  C_22
REMARK    2  A    between atoms: N_2  and  C_9
REMARK    3  A    between atoms: C_16  and  C_19
REMARK    4  A    between atoms: C_22  and  C_23
REMARK    5  A    between atoms: C_23  and  C_24
REMARK    6  A    between atoms: C_24  and  C_25
REMARK    7  A    between atoms: C_25  and  C_27
REMARK    8  A    between atoms: C_33  and  C_37
REMARK                            x       y       z     vdW  Elec       q    Type
REMARK                         _______ _______ _______ _____ _____    ______ ____
ROOT
ATOM      1  N   UNL     1      34.552 -17.072 -23.091  0.00  0.00    +0.389 N 
ATOM      2  N   UNL     1      34.099 -14.256 -23.240  0.00  0.00    -0.312 N 
ATOM      3  C   UNL     1      35.064 -16.181 -22.043  0.00  0.00    -0.055 C 
ATOM      4  C   UNL     1      34.575 -16.383 -24.386  0.00  0.00    -0.055 C 
ATOM      5  C   UNL     1      34.213 -14.915 -21.933  0.00  0.00    +0.068 C 
ATOM      6  C   UNL     1      33.709 -15.123 -24.356  0.00  0.00    +0.068 C 
ATOM      7  H   UNL     1      33.589 -17.322 -22.869  0.00  0.00    -0.080 HD
ENDROOT
BRANCH   2   9
ATOM      8  O   UNL     1      32.690  -8.912 -23.207  0.00  0.00    -0.449 OA
ATOM      9  C   UNL     1      33.762 -12.897 -23.264  0.00  0.00    +0.048 C 
ATOM     10  C   UNL     1      32.956 -12.338 -22.242  0.00  0.00    +0.018 C 
ATOM     11  C   UNL     1      34.218 -12.061 -24.308  0.00  0.00    +0.018 C 
ATOM     12  C   UNL     1      32.626 -10.972 -22.281  0.00  0.00    +0.039 C 
ATOM     13  C   UNL     1      33.108 -10.203 -23.336  0.00  0.00    +0.146 C 
ATOM     14  C   UNL     1      33.903 -10.700 -24.367  0.00  0.00    +0.039 C 
ATOM     15  C   UNL     1      31.872 -10.085 -21.470  0.00  0.00    +0.045 C 
ATOM     16  C   UNL     1      31.942  -8.851 -22.074  0.00  0.00    +0.198 C 
BRANCH  16  19
ATOM     17  O   UNL     1      30.716  -6.858 -22.484  0.00  0.00    -0.267 OA
ATOM     18  N   UNL     1      31.599  -7.117 -20.410  0.00  0.00    -0.323 N 
ATOM     19  C   UNL     1      31.382  -7.594 -21.713  0.00  0.00    +0.277 C 
ATOM     20  H   UNL     1      31.223  -6.250 -20.134  0.00  0.00    +0.145 HD
ATOM     21  H   UNL     1      32.128  -7.649 -19.773  0.00  0.00    +0.145 HD
ENDBRANCH  16  19
ENDBRANCH   2   9
BRANCH   1  22
ATOM     22  C   UNL     1      35.341 -18.302 -23.149  0.00  0.00    -0.077 C 
BRANCH  22  23
ATOM     23  C   UNL     1      34.675 -19.399 -22.319  0.00  0.00    -0.022 C 
BRANCH  23  24
ATOM     24  C   UNL     1      35.032 -19.264 -20.838  0.00  0.00    +0.003 C 
BRANCH  24  25
ATOM     25  C   UNL     1      35.563 -20.584 -20.269  0.00  0.00    +0.028 C 
BRANCH  25  27
ATOM     26  N   UNL     1      32.627 -22.139 -18.752  0.00  0.00    -0.312 N 
ATOM     27  C   UNL     1      34.540 -21.298 -19.437  0.00  0.00    -0.006 C 
ATOM     28  C   UNL     1      34.782 -21.941 -18.206  0.00  0.00    +0.011 C 
ATOM     29  C   UNL     1      33.222 -21.427 -19.759  0.00  0.00    +0.058 C 
ATOM     30  C   UNL     1      33.557 -22.467 -17.790  0.00  0.00    +0.048 C 
ATOM     31  C   UNL     1      35.915 -22.137 -17.391  0.00  0.00    +0.011 C 
ATOM     32  C   UNL     1      33.408 -23.180 -16.596  0.00  0.00    +0.015 C 
ATOM     33  C   UNL     1      35.781 -22.849 -16.194  0.00  0.00    +0.069 C 
ATOM     34  C   UNL     1      34.546 -23.362 -15.804  0.00  0.00    +0.012 C 
ATOM     35  H   UNL     1      31.674 -22.382 -18.720  0.00  0.00    +0.152 HD
BRANCH  33  37
ATOM     36  N   UNL     1      37.857 -23.215 -14.687  0.00  0.00    -0.191 NA
ATOM     37  C   UNL     1      36.927 -23.050 -15.362  0.00  0.00    +0.100 C 
ENDBRANCH  33  37
ENDBRANCH  25  27
ENDBRANCH  24  25
ENDBRANCH  23  24
ENDBRANCH  22  23
ENDBRANCH   1  22
TORSDOF 8
ENDMDL
