MODEL 1
REMARK VINA RESULT:     -12.9      0.000      0.000
REMARK  Name = 5288641
REMARK  1 active torsions:
REMARK  status: ('A' for Active; 'I' for Inactive)
REMARK    1  A    between atoms: C_14  and  S_23
REMARK                            x       y       z     vdW  Elec       q    Type
REMARK                         _______ _______ _______ _____ _____    ______ ____
ROOT
ATOM      1  O   UNL     1      35.416 -24.281 -14.250  0.00  0.00    -0.270 OA
ATOM      2  O   UNL     1      31.872 -22.365 -17.643  0.00  0.00    -0.285 OA
ATOM      3  N   UNL     1      35.240 -22.780 -16.806  0.00  0.00    -0.310 N 
ATOM      4  N   UNL     1      33.247 -24.796 -13.464  0.00  0.00    -0.280 N 
ATOM      5  C   UNL     1      33.388 -23.634 -15.431  0.00  0.00    +0.071 C 
ATOM      6  C   UNL     1      31.976 -23.845 -15.128  0.00  0.00    +0.020 C 
ATOM      7  C   UNL     1      33.928 -23.005 -16.476  0.00  0.00    +0.092 C 
ATOM      8  C   UNL     1      31.949 -24.555 -13.923  0.00  0.00    +0.051 C 
ATOM      9  C   UNL     1      34.201 -24.260 -14.336  0.00  0.00    +0.251 C 
ATOM     10  C   UNL     1      34.044 -21.806 -18.509  0.00  0.00    +0.054 C 
ATOM     11  C   UNL     1      35.322 -22.075 -18.001  0.00  0.00    +0.051 C 
ATOM     12  C   UNL     1      33.081 -22.388 -17.557  0.00  0.00    +0.210 C 
ATOM     13  C   UNL     1      30.802 -23.496 -15.767  0.00  0.00    +0.020 C 
ATOM     14  C   UNL     1      29.594 -23.875 -15.172  0.00  0.00    +0.112 C 
ATOM     15  C   UNL     1      30.768 -24.939 -13.319  0.00  0.00    +0.016 C 
ATOM     16  C   UNL     1      29.577 -24.590 -13.960  0.00  0.00    +0.020 C 
ATOM     17  C   UNL     1      33.826 -21.119 -19.684  0.00  0.00    +0.004 C 
ATOM     18  C   UNL     1      36.440 -21.646 -18.684  0.00  0.00    +0.015 C 
ATOM     19  C   UNL     1      34.957 -20.684 -20.375  0.00  0.00    +0.000 C 
ATOM     20  C   UNL     1      36.251 -20.945 -19.881  0.00  0.00    +0.001 C 
ATOM     21  H   UNL     1      36.014 -23.075 -16.274  0.00  0.00    +0.152 HD
ATOM     22  H   UNL     1      33.463 -25.280 -12.633  0.00  0.00    +0.155 HD
ENDROOT
BRANCH  14  23
ATOM     23  S   UNL     1      28.083 -23.455 -15.944  0.00  0.00    +0.042 S 
ATOM     24  O   UNL     1      28.413 -22.126 -16.837  0.00  0.00    -0.065 OA
ATOM     25  O   UNL     1      27.745 -24.520 -16.875  0.00  0.00    -0.065 OA
ATOM     26  O   UNL     1      27.161 -23.072 -14.886  0.00  0.00    -0.065 OA
ENDBRANCH  14  23
TORSDOF 1
ENDMDL
MODEL 2
REMARK VINA RESULT:     -11.6      2.850      5.326
REMARK  Name = 5288641
REMARK  1 active torsions:
REMARK  status: ('A' for Active; 'I' for Inactive)
REMARK    1  A    between atoms: C_14  and  S_23
REMARK                            x       y       z     vdW  Elec       q    Type
REMARK                         _______ _______ _______ _____ _____    ______ ____
ROOT
ATOM      1  O   UNL     1      30.672 -22.858 -16.629  0.00  0.00    -0.270 OA
ATOM      2  O   UNL     1      35.826 -22.325 -17.574  0.00  0.00    -0.285 OA
ATOM      3  N   UNL     1      32.550 -21.654 -18.590  0.00  0.00    -0.310 N 
ATOM      4  N   UNL     1      31.881 -23.942 -14.912  0.00  0.00    -0.280 N 
ATOM      5  C   UNL     1      33.104 -22.927 -16.559  0.00  0.00    +0.071 C 
ATOM      6  C   UNL     1      34.033 -23.531 -15.610  0.00  0.00    +0.020 C 
ATOM      7  C   UNL     1      33.380 -22.239 -17.668  0.00  0.00    +0.092 C 
ATOM      8  C   UNL     1      33.237 -24.134 -14.631  0.00  0.00    +0.051 C 
ATOM      9  C   UNL     1      31.706 -23.206 -16.089  0.00  0.00    +0.251 C 
ATOM     10  C   UNL     1      34.668 -21.199 -19.354  0.00  0.00    +0.054 C 
ATOM     11  C   UNL     1      33.295 -21.038 -19.587  0.00  0.00    +0.051 C 
ATOM     12  C   UNL     1      34.796 -21.978 -18.110  0.00  0.00    +0.210 C 
ATOM     13  C   UNL     1      35.411 -23.593 -15.534  0.00  0.00    +0.020 C 
ATOM     14  C   UNL     1      35.978 -24.275 -14.452  0.00  0.00    +0.112 C 
ATOM     15  C   UNL     1      33.776 -24.811 -13.555  0.00  0.00    +0.016 C 
ATOM     16  C   UNL     1      35.168 -24.878 -13.472  0.00  0.00    +0.020 C 
ATOM     17  C   UNL     1      35.641 -20.689 -20.187  0.00  0.00    +0.004 C 
ATOM     18  C   UNL     1      32.860 -20.342 -20.696  0.00  0.00    +0.015 C 
ATOM     19  C   UNL     1      35.201 -19.985 -21.308  0.00  0.00    +0.000 C 
ATOM     20  C   UNL     1      33.825 -19.813 -21.560  0.00  0.00    +0.001 C 
ATOM     21  H   UNL     1      31.566 -21.668 -18.551  0.00  0.00    +0.152 HD
ATOM     22  H   UNL     1      31.143 -24.282 -14.355  0.00  0.00    +0.155 HD
ENDROOT
BRANCH  14  23
ATOM     23  S   UNL     1      37.718 -24.381 -14.314  0.00  0.00    +0.042 S 
ATOM     24  O   UNL     1      38.054 -23.936 -12.778  0.00  0.00    -0.065 OA
ATOM     25  O   UNL     1      38.092 -25.781 -14.444  0.00  0.00    -0.065 OA
ATOM     26  O   UNL     1      38.273 -23.377 -15.208  0.00  0.00    -0.065 OA
ENDBRANCH  14  23
TORSDOF 1
ENDMDL
MODEL 3
REMARK VINA RESULT:     -10.8      3.522      6.815
REMARK  Name = 5288641
REMARK  1 active torsions:
REMARK  status: ('A' for Active; 'I' for Inactive)
REMARK    1  A    between atoms: C_14  and  S_23
REMARK                            x       y       z     vdW  Elec       q    Type
REMARK                         _______ _______ _______ _____ _____    ______ ____
ROOT
ATOM      1  O   UNL     1      34.393 -22.087 -17.965  0.00  0.00    -0.270 OA
ATOM      2  O   UNL     1      32.919 -24.401 -13.469  0.00  0.00    -0.285 OA
ATOM      3  N   UNL     1      31.958 -22.960 -16.505  0.00  0.00    -0.310 N 
ATOM      4  N   UNL     1      36.321 -22.595 -16.698  0.00  0.00    -0.280 N 
ATOM      5  C   UNL     1      34.302 -23.170 -15.787  0.00  0.00    +0.071 C 
ATOM      6  C   UNL     1      35.351 -23.566 -14.853  0.00  0.00    +0.020 C 
ATOM      7  C   UNL     1      32.982 -23.313 -15.663  0.00  0.00    +0.092 C 
ATOM      8  C   UNL     1      36.556 -23.194 -15.456  0.00  0.00    +0.051 C 
ATOM      9  C   UNL     1      34.953 -22.538 -16.983  0.00  0.00    +0.251 C 
ATOM     10  C   UNL     1      30.911 -23.919 -14.699  0.00  0.00    +0.054 C 
ATOM     11  C   UNL     1      30.734 -23.311 -15.950  0.00  0.00    +0.051 C 
ATOM     12  C   UNL     1      32.363 -23.952 -14.448  0.00  0.00    +0.210 C 
ATOM     13  C   UNL     1      35.342 -24.180 -13.616  0.00  0.00    +0.020 C 
ATOM     14  C   UNL     1      36.572 -24.413 -12.991  0.00  0.00    +0.112 C 
ATOM     15  C   UNL     1      37.781 -23.415 -14.858  0.00  0.00    +0.016 C 
ATOM     16  C   UNL     1      37.779 -24.034 -13.606  0.00  0.00    +0.020 C 
ATOM     17  C   UNL     1      29.864 -24.368 -13.922  0.00  0.00    +0.004 C 
ATOM     18  C   UNL     1      29.465 -23.136 -16.460  0.00  0.00    +0.015 C 
ATOM     19  C   UNL     1      28.580 -24.191 -14.438  0.00  0.00    +0.000 C 
ATOM     20  C   UNL     1      28.381 -23.582 -15.693  0.00  0.00    +0.001 C 
ATOM     21  H   UNL     1      32.073 -22.520 -17.378  0.00  0.00    +0.152 HD
ATOM     22  H   UNL     1      37.028 -22.255 -17.295  0.00  0.00    +0.155 HD
ENDROOT
BRANCH  14  23
ATOM     23  S   UNL     1      36.610 -25.185 -11.423  0.00  0.00    +0.042 S 
ATOM     24  O   UNL     1      35.076 -25.102 -10.867  0.00  0.00    -0.065 OA
ATOM     25  O   UNL     1      36.915 -26.593 -11.625  0.00  0.00    -0.065 OA
ATOM     26  O   UNL     1      37.448 -24.360 -10.567  0.00  0.00    -0.065 OA
ENDBRANCH  14  23
TORSDOF 1
ENDMDL
MODEL 4
REMARK VINA RESULT:     -10.5      3.268      7.069
REMARK  Name = 5288641
REMARK  1 active torsions:
REMARK  status: ('A' for Active; 'I' for Inactive)
REMARK    1  A    between atoms: C_14  and  S_23
REMARK                            x       y       z     vdW  Elec       q    Type
REMARK                         _______ _______ _______ _____ _____    ______ ____
ROOT
ATOM      1  O   UNL     1      32.765 -21.790 -19.154  0.00  0.00    -0.270 OA
ATOM      2  O   UNL     1      33.282 -24.018 -14.409  0.00  0.00    -0.285 OA
ATOM      3  N   UNL     1      31.152 -23.066 -17.012  0.00  0.00    -0.310 N 
ATOM      4  N   UNL     1      35.046 -21.757 -18.538  0.00  0.00    -0.280 N 
ATOM      5  C   UNL     1      33.584 -22.694 -17.047  0.00  0.00    +0.071 C 
ATOM      6  C   UNL     1      34.925 -22.774 -16.478  0.00  0.00    +0.020 C 
ATOM      7  C   UNL     1      32.432 -23.117 -16.522  0.00  0.00    +0.092 C 
ATOM      8  C   UNL     1      35.773 -22.191 -17.425  0.00  0.00    +0.051 C 
ATOM      9  C   UNL     1      33.682 -22.028 -18.389  0.00  0.00    +0.251 C 
ATOM     10  C   UNL     1      30.945 -24.090 -14.966  0.00  0.00    +0.054 C 
ATOM     11  C   UNL     1      30.267 -23.636 -16.105  0.00  0.00    +0.051 C 
ATOM     12  C   UNL     1      32.371 -23.781 -15.173  0.00  0.00    +0.210 C 
ATOM     13  C   UNL     1      35.429 -23.276 -15.294  0.00  0.00    +0.020 C 
ATOM     14  C   UNL     1      36.808 -23.181 -15.076  0.00  0.00    +0.112 C 
ATOM     15  C   UNL     1      37.137 -22.087 -17.230  0.00  0.00    +0.016 C 
ATOM     16  C   UNL     1      37.653 -22.593 -16.035  0.00  0.00    +0.020 C 
ATOM     17  C   UNL     1      30.313 -24.699 -13.902  0.00  0.00    +0.004 C 
ATOM     18  C   UNL     1      28.899 -23.788 -16.201  0.00  0.00    +0.015 C 
ATOM     19  C   UNL     1      28.930 -24.852 -13.999  0.00  0.00    +0.000 C 
ATOM     20  C   UNL     1      28.230 -24.402 -15.137  0.00  0.00    +0.001 C 
ATOM     21  H   UNL     1      30.896 -22.681 -17.880  0.00  0.00    +0.152 HD
ATOM     22  H   UNL     1      35.443 -21.317 -19.325  0.00  0.00    +0.155 HD
ENDROOT
BRANCH  14  23
ATOM     23  S   UNL     1      37.491 -23.801 -13.591  0.00  0.00    +0.042 S 
ATOM     24  O   UNL     1      36.463 -24.974 -13.104  0.00  0.00    -0.065 OA
ATOM     25  O   UNL     1      38.753 -24.448 -13.916  0.00  0.00    -0.065 OA
ATOM     26  O   UNL     1      37.439 -22.720 -12.619  0.00  0.00    -0.065 OA
ENDBRANCH  14  23
TORSDOF 1
ENDMDL
MODEL 5
REMARK VINA RESULT:     -10.5      1.937      2.545
REMARK  Name = 5288641
REMARK  1 active torsions:
REMARK  status: ('A' for Active; 'I' for Inactive)
REMARK    1  A    between atoms: C_14  and  S_23
REMARK                            x       y       z     vdW  Elec       q    Type
REMARK                         _______ _______ _______ _____ _____    ______ ____
ROOT
ATOM      1  O   UNL     1      37.644 -22.635 -16.255  0.00  0.00    -0.270 OA
ATOM      2  O   UNL     1      32.610 -22.204 -17.747  0.00  0.00    -0.285 OA
ATOM      3  N   UNL     1      35.967 -21.511 -18.433  0.00  0.00    -0.310 N 
ATOM      4  N   UNL     1      36.275 -23.694 -14.646  0.00  0.00    -0.280 N 
ATOM      5  C   UNL     1      35.218 -22.741 -16.438  0.00  0.00    +0.071 C 
ATOM      6  C   UNL     1      34.202 -23.333 -15.574  0.00  0.00    +0.020 C 
ATOM      7  C   UNL     1      35.052 -22.085 -17.588  0.00  0.00    +0.092 C 
ATOM      8  C   UNL     1      34.899 -23.898 -14.502  0.00  0.00    +0.051 C 
ATOM      9  C   UNL     1      36.563 -22.985 -15.817  0.00  0.00    +0.251 C 
ATOM     10  C   UNL     1      33.935 -21.110 -19.428  0.00  0.00    +0.054 C 
ATOM     11  C   UNL     1      35.323 -20.934 -19.521  0.00  0.00    +0.051 C 
ATOM     12  C   UNL     1      33.687 -21.857 -18.182  0.00  0.00    +0.210 C 
ATOM     13  C   UNL     1      32.825 -23.414 -15.642  0.00  0.00    +0.020 C 
ATOM     14  C   UNL     1      32.156 -24.077 -14.607  0.00  0.00    +0.112 C 
ATOM     15  C   UNL     1      34.259 -24.556 -13.470  0.00  0.00    +0.016 C 
ATOM     16  C   UNL     1      32.866 -24.642 -13.532  0.00  0.00    +0.020 C 
ATOM     17  C   UNL     1      33.049 -20.636 -20.372  0.00  0.00    +0.004 C 
ATOM     18  C   UNL     1      35.863 -20.259 -20.595  0.00  0.00    +0.015 C 
ATOM     19  C   UNL     1      33.595 -19.954 -21.459  0.00  0.00    +0.000 C 
ATOM     20  C   UNL     1      34.988 -19.767 -21.570  0.00  0.00    +0.001 C 
ATOM     21  H   UNL     1      36.941 -21.508 -18.291  0.00  0.00    +0.152 HD
ATOM     22  H   UNL     1      36.954 -24.008 -14.005  0.00  0.00    +0.155 HD
ENDROOT
BRANCH  14  23
ATOM     23  S   UNL     1      30.413 -24.204 -14.649  0.00  0.00    +0.042 S 
ATOM     24  O   UNL     1      29.865 -22.716 -14.253  0.00  0.00    -0.065 OA
ATOM     25  O   UNL     1      30.015 -24.452 -16.026  0.00  0.00    -0.065 OA
ATOM     26  O   UNL     1      30.032 -25.124 -13.589  0.00  0.00    -0.065 OA
ENDBRANCH  14  23
TORSDOF 1
ENDMDL
MODEL 6
REMARK VINA RESULT:     -10.3      2.954      5.600
REMARK  Name = 5288641
REMARK  1 active torsions:
REMARK  status: ('A' for Active; 'I' for Inactive)
REMARK    1  A    between atoms: C_14  and  S_23
REMARK                            x       y       z     vdW  Elec       q    Type
REMARK                         _______ _______ _______ _____ _____    ______ ____
ROOT
ATOM      1  O   UNL     1      31.128 -23.395 -15.188  0.00  0.00    -0.270 OA
ATOM      2  O   UNL     1      36.267 -22.936 -16.249  0.00  0.00    -0.285 OA
ATOM      3  N   UNL     1      32.974 -22.398 -17.290  0.00  0.00    -0.310 N 
ATOM      4  N   UNL     1      32.365 -24.281 -13.379  0.00  0.00    -0.280 N 
ATOM      5  C   UNL     1      33.561 -23.442 -15.141  0.00  0.00    +0.071 C 
ATOM      6  C   UNL     1      34.506 -23.934 -14.143  0.00  0.00    +0.020 C 
ATOM      7  C   UNL     1      33.819 -22.875 -16.321  0.00  0.00    +0.092 C 
ATOM      8  C   UNL     1      33.726 -24.432 -13.096  0.00  0.00    +0.051 C 
ATOM      9  C   UNL     1      32.171 -23.677 -14.626  0.00  0.00    +0.251 C 
ATOM     10  C   UNL     1      35.080 -22.015 -18.125  0.00  0.00    +0.054 C 
ATOM     11  C   UNL     1      33.703 -21.890 -18.357  0.00  0.00    +0.051 C 
ATOM     12  C   UNL     1      35.228 -22.655 -16.806  0.00  0.00    +0.210 C 
ATOM     13  C   UNL     1      35.885 -23.979 -14.079  0.00  0.00    +0.020 C 
ATOM     14  C   UNL     1      36.469 -24.536 -12.936  0.00  0.00    +0.112 C 
ATOM     15  C   UNL     1      34.282 -24.986 -11.959  0.00  0.00    +0.016 C 
ATOM     16  C   UNL     1      35.676 -25.035 -11.887  0.00  0.00    +0.020 C 
ATOM     17  C   UNL     1      36.039 -21.593 -19.020  0.00  0.00    +0.004 C 
ATOM     18  C   UNL     1      33.250 -21.320 -19.529  0.00  0.00    +0.015 C 
ATOM     19  C   UNL     1      35.581 -21.017 -20.205  0.00  0.00    +0.000 C 
ATOM     20  C   UNL     1      34.201 -20.881 -20.457  0.00  0.00    +0.001 C 
ATOM     21  H   UNL     1      31.991 -22.414 -17.238  0.00  0.00    +0.152 HD
ATOM     22  H   UNL     1      31.636 -24.563 -12.779  0.00  0.00    +0.155 HD
ENDROOT
BRANCH  14  23
ATOM     23  S   UNL     1      38.212 -24.616 -12.810  0.00  0.00    +0.042 S 
ATOM     24  O   UNL     1      38.771 -24.061 -14.241  0.00  0.00    -0.065 OA
ATOM     25  O   UNL     1      38.630 -23.665 -11.791  0.00  0.00    -0.065 OA
ATOM     26  O   UNL     1      38.563 -26.023 -12.701  0.00  0.00    -0.065 OA
ENDBRANCH  14  23
TORSDOF 1
ENDMDL
