MODEL 1
REMARK VINA RESULT:     -12.4      0.000      0.000
REMARK  Name = 448408
REMARK  8 active torsions:
REMARK  status: ('A' for Active; 'I' for Inactive)
REMARK    1  A    between atoms: N_2  and  C_25
REMARK    2  A    between atoms: C_3  and  C_6
REMARK    3  A    between atoms: C_5  and  N_12
REMARK    4  A    between atoms: C_25  and  C_26
REMARK    5  A    between atoms: C_27  and  S_32
REMARK    6  A    between atoms: S_32  and  C_33
REMARK    7  A    between atoms: C_34  and  C_39
REMARK    8  A    between atoms: C_39  and  O_40
REMARK                            x       y       z     vdW  Elec       q    Type
REMARK                         _______ _______ _______ _____ _____    ______ ____
ROOT
ATOM      1  O   UNL     1      32.614 -21.742 -19.872  0.00  0.00    -0.270 OA
ATOM      2  N   UNL     1      33.891 -22.677 -18.178  0.00  0.00    -0.297 N 
ATOM      3  C   UNL     1      33.694 -21.810 -19.259  0.00  0.00    +0.246 C 
ATOM      4  H   UNL     1      34.772 -22.679 -17.738  0.00  0.00    +0.150 HD
ENDROOT
BRANCH   3   6
ATOM      5  C   UNL     1      35.741 -19.192 -21.024  0.00  0.00    +0.090 C 
ATOM      6  C   UNL     1      34.826 -20.991 -19.664  0.00  0.00    +0.055 C 
ATOM      7  C   UNL     1      34.656 -19.991 -20.622  0.00  0.00    +0.023 C 
ATOM      8  C   UNL     1      36.998 -19.423 -20.441  0.00  0.00    +0.018 C 
ATOM      9  C   UNL     1      36.082 -21.207 -19.095  0.00  0.00    +0.005 C 
ATOM     10  C   UNL     1      37.167 -20.423 -19.483  0.00  0.00    +0.002 C 
BRANCH   5  12
ATOM     11  O   UNL     1      34.428 -14.204 -21.644  0.00  0.00    -0.207 OA
ATOM     12  N   UNL     1      35.572 -18.195 -21.978  0.00  0.00    -0.137 N 
ATOM     13  N   UNL     1      35.069 -18.392 -23.225  0.00  0.00    -0.215 N 
ATOM     14  N   UNL     1      35.348 -16.892 -21.540  0.00  0.00    -0.143 NA
ATOM     15  N   UNL     1      33.890 -16.807 -24.687  0.00  0.00    -0.309 NA
ATOM     16  N   UNL     1      33.589 -14.595 -23.770  0.00  0.00    -0.251 NA
ATOM     17  N   UNL     1      32.793 -15.098 -25.883  0.00  0.00    -0.283 N 
ATOM     18  C   UNL     1      34.502 -17.235 -23.647  0.00  0.00    +0.243 C 
ATOM     19  C   UNL     1      34.718 -16.318 -22.517  0.00  0.00    +0.241 C 
ATOM     20  C   UNL     1      34.231 -14.936 -22.603  0.00  0.00    +0.239 C 
ATOM     21  C   UNL     1      33.440 -15.484 -24.732  0.00  0.00    +0.208 C 
ATOM     22  H   UNL     1      35.109 -19.233 -23.735  0.00  0.00    +0.175 HD
ATOM     23  H   UNL     1      32.667 -15.740 -26.618  0.00  0.00    +0.156 HD
ATOM     24  H   UNL     1      32.454 -14.177 -25.971  0.00  0.00    +0.156 HD
ENDBRANCH   5  12
ENDBRANCH   3   6
BRANCH   2  25
ATOM     25  C   UNL     1      32.872 -23.570 -17.673  0.00  0.00    +0.117 C 
BRANCH  25  26
ATOM     26  C   UNL     1      32.614 -23.356 -16.210  0.00  0.00    +0.003 C 
ATOM     27  C   UNL     1      33.649 -23.326 -15.279  0.00  0.00    +0.027 C 
ATOM     28  C   UNL     1      31.295 -23.186 -15.801  0.00  0.00    -0.002 C 
ATOM     29  C   UNL     1      33.361 -23.125 -13.929  0.00  0.00    +0.006 C 
ATOM     30  C   UNL     1      31.007 -22.986 -14.452  0.00  0.00    -0.000 C 
ATOM     31  C   UNL     1      32.040 -22.954 -13.516  0.00  0.00    +0.000 C 
BRANCH  27  32
ATOM     32  S   UNL     1      35.358 -23.539 -15.759  0.00  0.00    -0.087 S 
BRANCH  32  33
ATOM     33  C   UNL     1      36.093 -24.025 -14.205  0.00  0.00    +0.028 C 
ATOM     34  C   UNL     1      36.337 -25.364 -13.895  0.00  0.00    +0.013 C 
ATOM     35  C   UNL     1      36.424 -23.027 -13.287  0.00  0.00    +0.006 C 
ATOM     36  C   UNL     1      36.913 -25.704 -12.670  0.00  0.00    -0.001 C 
ATOM     37  C   UNL     1      36.998 -23.367 -12.062  0.00  0.00    +0.000 C 
ATOM     38  C   UNL     1      37.243 -24.705 -11.754  0.00  0.00    -0.000 C 
BRANCH  34  39
ATOM     39  C   UNL     1      36.002 -26.470 -14.843  0.00  0.00    +0.164 C 
BRANCH  39  40
ATOM     40  O   UNL     1      37.179 -26.869 -15.532  0.00  0.00    -0.377 OA
ATOM     41  H   UNL     1      36.965 -27.587 -16.149  0.00  0.00    +0.211 HD
ENDBRANCH  39  40
ENDBRANCH  34  39
ENDBRANCH  32  33
ENDBRANCH  27  32
ENDBRANCH  25  26
ENDBRANCH   2  25
TORSDOF 8
ENDMDL
MODEL 2
REMARK VINA RESULT:     -12.4      2.232      3.305
REMARK  Name = 448408
REMARK  8 active torsions:
REMARK  status: ('A' for Active; 'I' for Inactive)
REMARK    1  A    between atoms: N_2  and  C_25
REMARK    2  A    between atoms: C_3  and  C_6
REMARK    3  A    between atoms: C_5  and  N_12
REMARK    4  A    between atoms: C_25  and  C_26
REMARK    5  A    between atoms: C_27  and  S_32
REMARK    6  A    between atoms: S_32  and  C_33
REMARK    7  A    between atoms: C_34  and  C_39
REMARK    8  A    between atoms: C_39  and  O_40
REMARK                            x       y       z     vdW  Elec       q    Type
REMARK                         _______ _______ _______ _____ _____    ______ ____
ROOT
ATOM      1  O   UNL     1      37.559 -19.484 -19.444  0.00  0.00    -0.270 OA
ATOM      2  N   UNL     1      35.829 -21.020 -19.297  0.00  0.00    -0.297 N 
ATOM      3  C   UNL     1      36.471 -19.914 -19.865  0.00  0.00    +0.246 C 
ATOM      4  H   UNL     1      34.968 -21.307 -19.681  0.00  0.00    +0.150 HD
ENDROOT
BRANCH   3   6
ATOM      5  C   UNL     1      35.004 -17.216 -22.039  0.00  0.00    +0.090 C 
ATOM      6  C   UNL     1      35.795 -19.255 -20.972  0.00  0.00    +0.055 C 
ATOM      7  C   UNL     1      35.655 -17.867 -20.977  0.00  0.00    +0.023 C 
ATOM      8  C   UNL     1      34.498 -17.992 -23.095  0.00  0.00    +0.018 C 
ATOM      9  C   UNL     1      35.287 -20.012 -22.029  0.00  0.00    +0.005 C 
ATOM     10  C   UNL     1      34.639 -19.380 -23.090  0.00  0.00    +0.002 C 
BRANCH   5  12
ATOM     11  O   UNL     1      32.148 -13.312 -20.142  0.00  0.00    -0.207 OA
ATOM     12  N   UNL     1      34.864 -15.833 -22.045  0.00  0.00    -0.137 N 
ATOM     13  N   UNL     1      35.077 -15.036 -23.125  0.00  0.00    -0.215 N 
ATOM     14  N   UNL     1      33.957 -15.255 -21.160  0.00  0.00    -0.143 NA
ATOM     15  N   UNL     1      34.101 -12.841 -23.648  0.00  0.00    -0.309 NA
ATOM     16  N   UNL     1      32.549 -11.992 -22.006  0.00  0.00    -0.251 NA
ATOM     17  N   UNL     1      33.025 -10.760 -23.905  0.00  0.00    -0.283 N 
ATOM     18  C   UNL     1      34.323 -13.917 -22.989  0.00  0.00    +0.243 C 
ATOM     19  C   UNL     1      33.632 -14.126 -21.708  0.00  0.00    +0.241 C 
ATOM     20  C   UNL     1      32.705 -13.102 -21.210  0.00  0.00    +0.239 C 
ATOM     21  C   UNL     1      33.211 -11.890 -23.142  0.00  0.00    +0.208 C 
ATOM     22  H   UNL     1      35.677 -15.237 -23.880  0.00  0.00    +0.175 HD
ATOM     23  H   UNL     1      33.506 -10.656 -24.757  0.00  0.00    +0.156 HD
ATOM     24  H   UNL     1      32.410 -10.055 -23.598  0.00  0.00    +0.156 HD
ENDBRANCH   5  12
ENDBRANCH   3   6
BRANCH   2  25
ATOM     25  C   UNL     1      36.360 -21.765 -18.178  0.00  0.00    +0.117 C 
BRANCH  25  26
ATOM     26  C   UNL     1      35.272 -22.379 -17.346  0.00  0.00    +0.003 C 
ATOM     27  C   UNL     1      35.505 -22.828 -16.049  0.00  0.00    +0.027 C 
ATOM     28  C   UNL     1      34.005 -22.490 -17.912  0.00  0.00    -0.002 C 
ATOM     29  C   UNL     1      34.464 -23.392 -15.313  0.00  0.00    +0.006 C 
ATOM     30  C   UNL     1      32.964 -23.055 -17.176  0.00  0.00    -0.000 C 
ATOM     31  C   UNL     1      33.193 -23.505 -15.877  0.00  0.00    +0.000 C 
BRANCH  27  32
ATOM     32  S   UNL     1      37.116 -22.705 -15.282  0.00  0.00    -0.087 S 
BRANCH  32  33
ATOM     33  C   UNL     1      37.124 -24.172 -14.264  0.00  0.00    +0.028 C 
ATOM     34  C   UNL     1      37.154 -24.099 -12.870  0.00  0.00    +0.013 C 
ATOM     35  C   UNL     1      37.100 -25.418 -14.894  0.00  0.00    +0.006 C 
ATOM     36  C   UNL     1      37.158 -25.268 -12.109  0.00  0.00    -0.001 C 
ATOM     37  C   UNL     1      37.106 -26.586 -14.133  0.00  0.00    +0.000 C 
ATOM     38  C   UNL     1      37.135 -26.512 -12.740  0.00  0.00    -0.000 C 
BRANCH  34  39
ATOM     39  C   UNL     1      37.180 -22.791 -12.147  0.00  0.00    +0.164 C 
BRANCH  39  40
ATOM     40  O   UNL     1      38.220 -22.812 -11.178  0.00  0.00    -0.377 OA
ATOM     41  H   UNL     1      37.857 -22.580 -10.309  0.00  0.00    +0.211 HD
ENDBRANCH  39  40
ENDBRANCH  34  39
ENDBRANCH  32  33
ENDBRANCH  27  32
ENDBRANCH  25  26
ENDBRANCH   2  25
TORSDOF 8
ENDMDL
MODEL 3
REMARK VINA RESULT:     -12.1      3.377     11.381
REMARK  Name = 448408
REMARK  8 active torsions:
REMARK  status: ('A' for Active; 'I' for Inactive)
REMARK    1  A    between atoms: N_2  and  C_25
REMARK    2  A    between atoms: C_3  and  C_6
REMARK    3  A    between atoms: C_5  and  N_12
REMARK    4  A    between atoms: C_25  and  C_26
REMARK    5  A    between atoms: C_27  and  S_32
REMARK    6  A    between atoms: S_32  and  C_33
REMARK    7  A    between atoms: C_34  and  C_39
REMARK    8  A    between atoms: C_39  and  O_40
REMARK                            x       y       z     vdW  Elec       q    Type
REMARK                         _______ _______ _______ _____ _____    ______ ____
ROOT
ATOM      1  O   UNL     1      36.906 -19.751 -20.626  0.00  0.00    -0.270 OA
ATOM      2  N   UNL     1      34.917 -18.999 -21.548  0.00  0.00    -0.297 N 
ATOM      3  C   UNL     1      35.664 -19.786 -20.664  0.00  0.00    +0.246 C 
ATOM      4  H   UNL     1      33.935 -19.077 -21.525  0.00  0.00    +0.150 HD
ENDROOT
BRANCH   3   6
ATOM      5  C   UNL     1      34.872 -22.204 -17.892  0.00  0.00    +0.090 C 
ATOM      6  C   UNL     1      34.923 -20.683 -19.791  0.00  0.00    +0.055 C 
ATOM      7  C   UNL     1      35.575 -21.334 -18.744  0.00  0.00    +0.023 C 
ATOM      8  C   UNL     1      33.500 -22.405 -18.119  0.00  0.00    +0.018 C 
ATOM      9  C   UNL     1      33.559 -20.894 -20.003  0.00  0.00    +0.005 C 
ATOM     10  C   UNL     1      32.849 -21.754 -19.167  0.00  0.00    +0.002 C 
BRANCH   5  12
ATOM     11  O   UNL     1      34.071 -25.020 -13.600  0.00  0.00    -0.207 OA
ATOM     12  N   UNL     1      35.521 -22.852 -16.847  0.00  0.00    -0.137 N 
ATOM     13  N   UNL     1      36.648 -22.399 -16.234  0.00  0.00    -0.215 N 
ATOM     14  N   UNL     1      34.766 -23.652 -15.993  0.00  0.00    -0.143 NA
ATOM     15  N   UNL     1      37.438 -22.814 -13.945  0.00  0.00    -0.309 NA
ATOM     16  N   UNL     1      36.007 -24.221 -12.605  0.00  0.00    -0.251 NA
ATOM     17  N   UNL     1      37.964 -23.368 -11.715  0.00  0.00    -0.283 N 
ATOM     18  C   UNL     1      36.671 -22.883 -14.968  0.00  0.00    +0.243 C 
ATOM     19  C   UNL     1      35.436 -23.677 -14.883  0.00  0.00    +0.241 C 
ATOM     20  C   UNL     1      35.107 -24.371 -13.633  0.00  0.00    +0.239 C 
ATOM     21  C   UNL     1      37.090 -23.489 -12.771  0.00  0.00    +0.208 C 
ATOM     22  H   UNL     1      37.330 -21.818 -16.642  0.00  0.00    +0.175 HD
ATOM     23  H   UNL     1      38.781 -22.828 -11.810  0.00  0.00    +0.156 HD
ATOM     24  H   UNL     1      37.771 -23.822 -10.863  0.00  0.00    +0.156 HD
ENDBRANCH   5  12
ENDBRANCH   3   6
BRANCH   2  25
ATOM     25  C   UNL     1      35.508 -18.078 -22.493  0.00  0.00    +0.117 C 
BRANCH  25  26
ATOM     26  C   UNL     1      34.526 -17.646 -23.543  0.00  0.00    +0.003 C 
ATOM     27  C   UNL     1      34.350 -16.305 -23.875  0.00  0.00    +0.027 C 
ATOM     28  C   UNL     1      33.786 -18.634 -24.186  0.00  0.00    -0.002 C 
ATOM     29  C   UNL     1      33.425 -15.951 -24.857  0.00  0.00    +0.006 C 
ATOM     30  C   UNL     1      32.862 -18.279 -25.168  0.00  0.00    -0.000 C 
ATOM     31  C   UNL     1      32.682 -16.938 -25.504  0.00  0.00    +0.000 C 
BRANCH  27  32
ATOM     32  S   UNL     1      35.278 -15.004 -23.074  0.00  0.00    -0.087 S 
BRANCH  32  33
ATOM     33  C   UNL     1      33.978 -14.140 -22.205  0.00  0.00    +0.028 C 
ATOM     34  C   UNL     1      33.350 -13.018 -22.750  0.00  0.00    +0.013 C 
ATOM     35  C   UNL     1      33.593 -14.611 -20.949  0.00  0.00    +0.006 C 
ATOM     36  C   UNL     1      32.338 -12.371 -22.040  0.00  0.00    -0.001 C 
ATOM     37  C   UNL     1      32.582 -13.963 -20.239  0.00  0.00    +0.000 C 
ATOM     38  C   UNL     1      31.955 -12.843 -20.785  0.00  0.00    -0.000 C 
BRANCH  34  39
ATOM     39  C   UNL     1      33.725 -12.475 -24.091  0.00  0.00    +0.164 C 
BRANCH  39  40
ATOM     40  O   UNL     1      34.484 -11.286 -23.918  0.00  0.00    -0.377 OA
ATOM     41  H   UNL     1      35.411 -11.516 -23.747  0.00  0.00    +0.211 HD
ENDBRANCH  39  40
ENDBRANCH  34  39
ENDBRANCH  32  33
ENDBRANCH  27  32
ENDBRANCH  25  26
ENDBRANCH   2  25
TORSDOF 8
ENDMDL
MODEL 4
REMARK VINA RESULT:     -11.9      2.290      3.547
REMARK  Name = 448408
REMARK  8 active torsions:
REMARK  status: ('A' for Active; 'I' for Inactive)
REMARK    1  A    between atoms: N_2  and  C_25
REMARK    2  A    between atoms: C_3  and  C_6
REMARK    3  A    between atoms: C_5  and  N_12
REMARK    4  A    between atoms: C_25  and  C_26
REMARK    5  A    between atoms: C_27  and  S_32
REMARK    6  A    between atoms: S_32  and  C_33
REMARK    7  A    between atoms: C_34  and  C_39
REMARK    8  A    between atoms: C_39  and  O_40
REMARK                            x       y       z     vdW  Elec       q    Type
REMARK                         _______ _______ _______ _____ _____    ______ ____
ROOT
ATOM      1  O   UNL     1      37.060 -18.700 -20.166  0.00  0.00    -0.270 OA
ATOM      2  N   UNL     1      35.812 -20.653 -20.123  0.00  0.00    -0.297 N 
ATOM      3  C   UNL     1      36.193 -19.428 -20.682  0.00  0.00    +0.246 C 
ATOM      4  H   UNL     1      35.118 -21.179 -20.584  0.00  0.00    +0.150 HD
ENDROOT
BRANCH   3   6
ATOM      5  C   UNL     1      34.380 -17.293 -23.195  0.00  0.00    +0.090 C 
ATOM      6  C   UNL     1      35.509 -19.015 -21.897  0.00  0.00    +0.055 C 
ATOM      7  C   UNL     1      35.043 -17.707 -22.026  0.00  0.00    +0.023 C 
ATOM      8  C   UNL     1      34.197 -18.225 -24.229  0.00  0.00    +0.018 C 
ATOM      9  C   UNL     1      35.319 -19.929 -22.935  0.00  0.00    +0.005 C 
ATOM     10  C   UNL     1      34.664 -19.534 -24.100  0.00  0.00    +0.002 C 
BRANCH   5  12
ATOM     11  O   UNL     1      33.015 -13.684 -26.673  0.00  0.00    -0.207 OA
ATOM     12  N   UNL     1      33.916 -15.989 -23.323  0.00  0.00    -0.137 N 
ATOM     13  N   UNL     1      34.282 -14.953 -22.522  0.00  0.00    -0.215 N 
ATOM     14  N   UNL     1      33.536 -15.543 -24.587  0.00  0.00    -0.143 NA
ATOM     15  N   UNL     1      34.339 -12.549 -23.029  0.00  0.00    -0.309 NA
ATOM     16  N   UNL     1      33.648 -11.955 -25.264  0.00  0.00    -0.251 NA
ATOM     17  N   UNL     1      34.300 -10.312 -23.772  0.00  0.00    -0.283 N 
ATOM     18  C   UNL     1      34.155 -13.801 -23.226  0.00  0.00    +0.243 C 
ATOM     19  C   UNL     1      33.674 -14.255 -24.540  0.00  0.00    +0.241 C 
ATOM     20  C   UNL     1      33.413 -13.269 -25.595  0.00  0.00    +0.239 C 
ATOM     21  C   UNL     1      34.080 -11.640 -24.059  0.00  0.00    +0.208 C 
ATOM     22  H   UNL     1      34.587 -15.028 -21.589  0.00  0.00    +0.175 HD
ATOM     23  H   UNL     1      34.623 -10.047 -22.881  0.00  0.00    +0.156 HD
ATOM     24  H   UNL     1      34.135  -9.627 -24.459  0.00  0.00    +0.156 HD
ENDBRANCH   5  12
ENDBRANCH   3   6
BRANCH   2  25
ATOM     25  C   UNL     1      36.380 -21.188 -18.906  0.00  0.00    +0.117 C 
BRANCH  25  26
ATOM     26  C   UNL     1      35.357 -21.915 -18.082  0.00  0.00    +0.003 C 
ATOM     27  C   UNL     1      35.648 -22.394 -16.808  0.00  0.00    +0.027 C 
ATOM     28  C   UNL     1      34.092 -22.101 -18.632  0.00  0.00    -0.002 C 
ATOM     29  C   UNL     1      34.666 -23.064 -16.079  0.00  0.00    +0.006 C 
ATOM     30  C   UNL     1      33.111 -22.771 -17.903  0.00  0.00    -0.000 C 
ATOM     31  C   UNL     1      33.397 -23.252 -16.627  0.00  0.00    +0.000 C 
BRANCH  27  32
ATOM     32  S   UNL     1      37.259 -22.178 -16.062  0.00  0.00    -0.087 S 
BRANCH  32  33
ATOM     33  C   UNL     1      37.125 -23.251 -14.640  0.00  0.00    +0.028 C 
ATOM     34  C   UNL     1      38.047 -24.272 -14.401  0.00  0.00    +0.013 C 
ATOM     35  C   UNL     1      36.064 -23.051 -13.755  0.00  0.00    +0.006 C 
ATOM     36  C   UNL     1      37.909 -25.089 -13.279  0.00  0.00    -0.001 C 
ATOM     37  C   UNL     1      35.926 -23.869 -12.634  0.00  0.00    +0.000 C 
ATOM     38  C   UNL     1      36.848 -24.888 -12.396  0.00  0.00    -0.000 C 
BRANCH  34  39
ATOM     39  C   UNL     1      39.201 -24.527 -15.317  0.00  0.00    +0.164 C 
BRANCH  39  40
ATOM     40  O   UNL     1      39.620 -25.878 -15.177  0.00  0.00    -0.377 OA
ATOM     41  H   UNL     1      40.584 -25.928 -15.268  0.00  0.00    +0.211 HD
ENDBRANCH  39  40
ENDBRANCH  34  39
ENDBRANCH  32  33
ENDBRANCH  27  32
ENDBRANCH  25  26
ENDBRANCH   2  25
TORSDOF 8
ENDMDL
MODEL 5
REMARK VINA RESULT:     -11.9      5.526     12.907
REMARK  Name = 448408
REMARK  8 active torsions:
REMARK  status: ('A' for Active; 'I' for Inactive)
REMARK    1  A    between atoms: N_2  and  C_25
REMARK    2  A    between atoms: C_3  and  C_6
REMARK    3  A    between atoms: C_5  and  N_12
REMARK    4  A    between atoms: C_25  and  C_26
REMARK    5  A    between atoms: C_27  and  S_32
REMARK    6  A    between atoms: S_32  and  C_33
REMARK    7  A    between atoms: C_34  and  C_39
REMARK    8  A    between atoms: C_39  and  O_40
REMARK                            x       y       z     vdW  Elec       q    Type
REMARK                         _______ _______ _______ _____ _____    ______ ____
ROOT
ATOM      1  O   UNL     1      34.982 -14.014 -21.901  0.00  0.00    -0.270 OA
ATOM      2  N   UNL     1      33.742 -13.233 -23.697  0.00  0.00    -0.297 N 
ATOM      3  C   UNL     1      34.348 -14.246 -22.946  0.00  0.00    +0.246 C 
ATOM      4  H   UNL     1      33.256 -13.487 -24.516  0.00  0.00    +0.150 HD
ENDROOT
BRANCH   3   6
ATOM      5  C   UNL     1      34.506 -18.000 -23.130  0.00  0.00    +0.090 C 
ATOM      6  C   UNL     1      34.231 -15.604 -23.452  0.00  0.00    +0.055 C 
ATOM      7  C   UNL     1      34.613 -16.682 -22.654  0.00  0.00    +0.023 C 
ATOM      8  C   UNL     1      34.007 -18.209 -24.426  0.00  0.00    +0.018 C 
ATOM      9  C   UNL     1      33.737 -15.828 -24.738  0.00  0.00    +0.005 C 
ATOM     10  C   UNL     1      33.625 -17.130 -25.225  0.00  0.00    +0.002 C 
BRANCH   5  12
ATOM     11  O   UNL     1      32.709 -21.529 -19.766  0.00  0.00    -0.207 OA
ATOM     12  N   UNL     1      34.885 -19.075 -22.333  0.00  0.00    -0.137 N 
ATOM     13  N   UNL     1      36.065 -19.166 -21.664  0.00  0.00    -0.215 N 
ATOM     14  N   UNL     1      33.888 -19.820 -21.708  0.00  0.00    -0.143 NA
ATOM     15  N   UNL     1      36.590 -20.415 -19.613  0.00  0.00    -0.309 NA
ATOM     16  N   UNL     1      34.745 -21.650 -18.664  0.00  0.00    -0.251 NA
ATOM     17  N   UNL     1      36.824 -21.697 -17.650  0.00  0.00    -0.283 N 
ATOM     18  C   UNL     1      35.885 -19.967 -20.584  0.00  0.00    +0.243 C 
ATOM     19  C   UNL     1      34.468 -20.349 -20.676  0.00  0.00    +0.241 C 
ATOM     20  C   UNL     1      33.890 -21.234 -19.657  0.00  0.00    +0.239 C 
ATOM     21  C   UNL     1      36.004 -21.255 -18.662  0.00  0.00    +0.208 C 
ATOM     22  H   UNL     1      36.907 -18.724 -21.920  0.00  0.00    +0.175 HD
ATOM     23  H   UNL     1      37.768 -21.420 -17.623  0.00  0.00    +0.156 HD
ATOM     24  H   UNL     1      36.465 -22.292 -16.951  0.00  0.00    +0.156 HD
ENDBRANCH   5  12
ENDBRANCH   3   6
BRANCH   2  25
ATOM     25  C   UNL     1      33.791 -11.833 -23.339  0.00  0.00    +0.117 C 
BRANCH  25  26
ATOM     26  C   UNL     1      32.766 -11.485 -22.298  0.00  0.00    +0.003 C 
ATOM     27  C   UNL     1      32.334 -10.176 -22.105  0.00  0.00    +0.027 C 
ATOM     28  C   UNL     1      32.253 -12.518 -21.521  0.00  0.00    -0.002 C 
ATOM     29  C   UNL     1      31.381  -9.899 -21.125  0.00  0.00    +0.006 C 
ATOM     30  C   UNL     1      31.300 -12.242 -20.541  0.00  0.00    -0.000 C 
ATOM     31  C   UNL     1      30.863 -10.932 -20.344  0.00  0.00    +0.000 C 
BRANCH  27  32
ATOM     32  S   UNL     1      32.966  -8.817 -23.080  0.00  0.00    -0.087 S 
BRANCH  32  33
ATOM     33  C   UNL     1      31.996  -7.458 -22.445  0.00  0.00    +0.028 C 
ATOM     34  C   UNL     1      32.372  -6.762 -21.295  0.00  0.00    +0.013 C 
ATOM     35  C   UNL     1      30.834  -7.096 -23.129  0.00  0.00    +0.006 C 
ATOM     36  C   UNL     1      31.587  -5.706 -20.830  0.00  0.00    -0.001 C 
ATOM     37  C   UNL     1      30.050  -6.041 -22.664  0.00  0.00    +0.000 C 
ATOM     38  C   UNL     1      30.426  -5.346 -21.514  0.00  0.00    -0.000 C 
BRANCH  34  39
ATOM     39  C   UNL     1      33.606  -7.110 -20.527  0.00  0.00    +0.164 C 
BRANCH  39  40
ATOM     40  O   UNL     1      33.313  -7.094 -19.136  0.00  0.00    -0.377 OA
ATOM     41  H   UNL     1      34.132  -6.959 -18.635  0.00  0.00    +0.211 HD
ENDBRANCH  39  40
ENDBRANCH  34  39
ENDBRANCH  32  33
ENDBRANCH  27  32
ENDBRANCH  25  26
ENDBRANCH   2  25
TORSDOF 8
ENDMDL
MODEL 6
REMARK VINA RESULT:     -11.9      1.861      4.067
REMARK  Name = 448408
REMARK  8 active torsions:
REMARK  status: ('A' for Active; 'I' for Inactive)
REMARK    1  A    between atoms: N_2  and  C_25
REMARK    2  A    between atoms: C_3  and  C_6
REMARK    3  A    between atoms: C_5  and  N_12
REMARK    4  A    between atoms: C_25  and  C_26
REMARK    5  A    between atoms: C_27  and  S_32
REMARK    6  A    between atoms: S_32  and  C_33
REMARK    7  A    between atoms: C_34  and  C_39
REMARK    8  A    between atoms: C_39  and  O_40
REMARK                            x       y       z     vdW  Elec       q    Type
REMARK                         _______ _______ _______ _____ _____    ______ ____
ROOT
ATOM      1  O   UNL     1      32.884 -22.281 -19.424  0.00  0.00    -0.270 OA
ATOM      2  N   UNL     1      34.217 -22.524 -17.542  0.00  0.00    -0.297 N 
ATOM      3  C   UNL     1      33.942 -22.026 -18.821  0.00  0.00    +0.246 C 
ATOM      4  H   UNL     1      35.075 -22.283 -17.124  0.00  0.00    +0.150 HD
ENDROOT
BRANCH   3   6
ATOM      5  C   UNL     1      35.654 -19.679 -21.212  0.00  0.00    +0.090 C 
ATOM      6  C   UNL     1      34.967 -21.204 -19.445  0.00  0.00    +0.055 C 
ATOM      7  C   UNL     1      34.673 -20.477 -20.598  0.00  0.00    +0.023 C 
ATOM      8  C   UNL     1      36.936 -19.629 -20.640  0.00  0.00    +0.018 C 
ATOM      9  C   UNL     1      36.246 -21.144 -18.889  0.00  0.00    +0.005 C 
ATOM     10  C   UNL     1      37.230 -20.357 -19.486  0.00  0.00    +0.002 C 
BRANCH   5  12
ATOM     11  O   UNL     1      35.056 -14.857 -23.052  0.00  0.00    -0.207 OA
ATOM     12  N   UNL     1      35.361 -18.953 -22.361  0.00  0.00    -0.137 N 
ATOM     13  N   UNL     1      34.465 -19.333 -23.311  0.00  0.00    -0.215 N 
ATOM     14  N   UNL     1      35.504 -17.568 -22.325  0.00  0.00    -0.143 NA
ATOM     15  N   UNL     1      33.164 -17.936 -24.860  0.00  0.00    -0.309 NA
ATOM     16  N   UNL     1      33.538 -15.560 -24.657  0.00  0.00    -0.251 NA
ATOM     17  N   UNL     1      32.045 -16.375 -26.225  0.00  0.00    -0.283 N 
ATOM     18  C   UNL     1      33.993 -18.220 -23.925  0.00  0.00    +0.243 C 
ATOM     19  C   UNL     1      34.703 -17.127 -23.243  0.00  0.00    +0.241 C 
ATOM     20  C   UNL     1      34.449 -15.738 -23.643  0.00  0.00    +0.239 C 
ATOM     21  C   UNL     1      32.949 -16.601 -25.212  0.00  0.00    +0.208 C 
ATOM     22  H   UNL     1      34.203 -20.259 -23.517  0.00  0.00    +0.175 HD
ATOM     23  H   UNL     1      31.590 -17.133 -26.658  0.00  0.00    +0.156 HD
ATOM     24  H   UNL     1      31.853 -15.454 -26.516  0.00  0.00    +0.156 HD
ENDBRANCH   5  12
ENDBRANCH   3   6
BRANCH   2  25
ATOM     25  C   UNL     1      33.310 -23.373 -16.803  0.00  0.00    +0.117 C 
BRANCH  25  26
ATOM     26  C   UNL     1      33.893 -23.806 -15.489  0.00  0.00    +0.003 C 
ATOM     27  C   UNL     1      33.304 -23.460 -14.276  0.00  0.00    +0.027 C 
ATOM     28  C   UNL     1      35.054 -24.573 -15.515  0.00  0.00    -0.002 C 
ATOM     29  C   UNL     1      33.882 -23.884 -13.080  0.00  0.00    +0.006 C 
ATOM     30  C   UNL     1      35.632 -24.997 -14.319  0.00  0.00    -0.000 C 
ATOM     31  C   UNL     1      35.046 -24.653 -13.101  0.00  0.00    +0.000 C 
BRANCH  27  32
ATOM     32  S   UNL     1      31.813 -22.477 -14.196  0.00  0.00    -0.087 S 
BRANCH  32  33
ATOM     33  C   UNL     1      30.561 -23.736 -14.396  0.00  0.00    +0.028 C 
ATOM     34  C   UNL     1      29.682 -23.732 -15.480  0.00  0.00    +0.013 C 
ATOM     35  C   UNL     1      30.473 -24.742 -13.433  0.00  0.00    +0.006 C 
ATOM     36  C   UNL     1      28.718 -24.732 -15.601  0.00  0.00    -0.001 C 
ATOM     37  C   UNL     1      29.508 -25.742 -13.554  0.00  0.00    +0.000 C 
ATOM     38  C   UNL     1      28.631 -25.737 -14.638  0.00  0.00    -0.000 C 
BRANCH  34  39
ATOM     39  C   UNL     1      29.735 -22.677 -16.538  0.00  0.00    +0.164 C 
BRANCH  39  40
ATOM     40  O   UNL     1      28.482 -22.008 -16.596  0.00  0.00    -0.377 OA
ATOM     41  H   UNL     1      28.438 -21.473 -17.404  0.00  0.00    +0.211 HD
ENDBRANCH  39  40
ENDBRANCH  34  39
ENDBRANCH  32  33
ENDBRANCH  27  32
ENDBRANCH  25  26
ENDBRANCH   2  25
TORSDOF 8
ENDMDL
MODEL 7
REMARK VINA RESULT:     -11.9      4.966      9.058
REMARK  Name = 448408
REMARK  8 active torsions:
REMARK  status: ('A' for Active; 'I' for Inactive)
REMARK    1  A    between atoms: N_2  and  C_25
REMARK    2  A    between atoms: C_3  and  C_6
REMARK    3  A    between atoms: C_5  and  N_12
REMARK    4  A    between atoms: C_25  and  C_26
REMARK    5  A    between atoms: C_27  and  S_32
REMARK    6  A    between atoms: S_32  and  C_33
REMARK    7  A    between atoms: C_34  and  C_39
REMARK    8  A    between atoms: C_39  and  O_40
REMARK                            x       y       z     vdW  Elec       q    Type
REMARK                         _______ _______ _______ _____ _____    ______ ____
ROOT
ATOM      1  O   UNL     1      34.902 -13.898 -23.367  0.00  0.00    -0.270 OA
ATOM      2  N   UNL     1      34.563 -15.352 -21.594  0.00  0.00    -0.297 N 
ATOM      3  C   UNL     1      34.301 -14.182 -22.316  0.00  0.00    +0.246 C 
ATOM      4  H   UNL     1      34.049 -15.515 -20.769  0.00  0.00    +0.150 HD
ENDROOT
BRANCH   3   6
ATOM      5  C   UNL     1      32.142 -11.140 -21.827  0.00  0.00    +0.090 C 
ATOM      6  C   UNL     1      33.297 -13.281 -21.772  0.00  0.00    +0.055 C 
ATOM      7  C   UNL     1      33.107 -12.022 -22.342  0.00  0.00    +0.023 C 
ATOM      8  C   UNL     1      31.373 -11.552 -20.726  0.00  0.00    +0.018 C 
ATOM      9  C   UNL     1      32.525 -13.676 -20.678  0.00  0.00    +0.005 C 
ATOM     10  C   UNL     1      31.564 -12.812 -20.156  0.00  0.00    +0.002 C 
BRANCH   5  12
ATOM     11  O   UNL     1      34.650  -6.963 -23.632  0.00  0.00    -0.207 OA
ATOM     12  N   UNL     1      31.952  -9.886 -22.396  0.00  0.00    -0.137 N 
ATOM     13  N   UNL     1      30.944  -9.032 -22.073  0.00  0.00    -0.215 N 
ATOM     14  N   UNL     1      33.066  -9.198 -22.869  0.00  0.00    -0.143 NA
ATOM     15  N   UNL     1      30.881  -6.580 -22.226  0.00  0.00    -0.309 NA
ATOM     16  N   UNL     1      32.898  -5.554 -23.067  0.00  0.00    -0.251 NA
ATOM     17  N   UNL     1      31.086  -4.245 -22.472  0.00  0.00    -0.283 N 
ATOM     18  C   UNL     1      31.357  -7.765 -22.322  0.00  0.00    +0.243 C 
ATOM     19  C   UNL     1      32.726  -7.947 -22.830  0.00  0.00    +0.241 C 
ATOM     20  C   UNL     1      33.517  -6.772 -23.216  0.00  0.00    +0.239 C 
ATOM     21  C   UNL     1      31.666  -5.486 -22.603  0.00  0.00    +0.208 C 
ATOM     22  H   UNL     1      30.062  -9.291 -21.719  0.00  0.00    +0.175 HD
ATOM     23  H   UNL     1      30.167  -4.164 -22.129  0.00  0.00    +0.156 HD
ATOM     24  H   UNL     1      31.591  -3.437 -22.723  0.00  0.00    +0.156 HD
ENDBRANCH   5  12
ENDBRANCH   3   6
BRANCH   2  25
ATOM     25  C   UNL     1      35.547 -16.334 -21.992  0.00  0.00    +0.117 C 
BRANCH  25  26
ATOM     26  C   UNL     1      34.961 -17.383 -22.891  0.00  0.00    +0.003 C 
ATOM     27  C   UNL     1      35.155 -18.741 -22.656  0.00  0.00    +0.027 C 
ATOM     28  C   UNL     1      34.208 -16.957 -23.981  0.00  0.00    -0.002 C 
ATOM     29  C   UNL     1      34.592 -19.681 -23.519  0.00  0.00    +0.006 C 
ATOM     30  C   UNL     1      33.645 -17.897 -24.844  0.00  0.00    -0.000 C 
ATOM     31  C   UNL     1      33.836 -19.258 -24.613  0.00  0.00    +0.000 C 
BRANCH  27  32
ATOM     32  S   UNL     1      36.114 -19.333 -21.268  0.00  0.00    -0.087 S 
BRANCH  32  33
ATOM     33  C   UNL     1      34.883 -20.271 -20.375  0.00  0.00    +0.028 C 
ATOM     34  C   UNL     1      35.237 -21.224 -19.419  0.00  0.00    +0.013 C 
ATOM     35  C   UNL     1      33.536 -20.033 -20.655  0.00  0.00    +0.006 C 
ATOM     36  C   UNL     1      34.247 -21.936 -18.742  0.00  0.00    -0.001 C 
ATOM     37  C   UNL     1      32.546 -20.746 -19.979  0.00  0.00    +0.000 C 
ATOM     38  C   UNL     1      32.901 -21.698 -19.023  0.00  0.00    -0.000 C 
BRANCH  34  39
ATOM     39  C   UNL     1      36.665 -21.516 -19.083  0.00  0.00    +0.164 C 
BRANCH  39  40
ATOM     40  O   UNL     1      36.956 -21.000 -17.791  0.00  0.00    -0.377 OA
ATOM     41  H   UNL     1      37.263 -21.719 -17.217  0.00  0.00    +0.211 HD
ENDBRANCH  39  40
ENDBRANCH  34  39
ENDBRANCH  32  33
ENDBRANCH  27  32
ENDBRANCH  25  26
ENDBRANCH   2  25
TORSDOF 8
ENDMDL
MODEL 8
REMARK VINA RESULT:     -11.8      3.475     11.004
REMARK  Name = 448408
REMARK  8 active torsions:
REMARK  status: ('A' for Active; 'I' for Inactive)
REMARK    1  A    between atoms: N_2  and  C_25
REMARK    2  A    between atoms: C_3  and  C_6
REMARK    3  A    between atoms: C_5  and  N_12
REMARK    4  A    between atoms: C_25  and  C_26
REMARK    5  A    between atoms: C_27  and  S_32
REMARK    6  A    between atoms: S_32  and  C_33
REMARK    7  A    between atoms: C_34  and  C_39
REMARK    8  A    between atoms: C_39  and  O_40
REMARK                            x       y       z     vdW  Elec       q    Type
REMARK                         _______ _______ _______ _____ _____    ______ ____
ROOT
ATOM      1  O   UNL     1      33.882 -23.249 -19.768  0.00  0.00    -0.270 OA
ATOM      2  N   UNL     1      33.344 -21.049 -19.270  0.00  0.00    -0.297 N 
ATOM      3  C   UNL     1      33.513 -22.398 -18.938  0.00  0.00    +0.246 C 
ATOM      4  H   UNL     1      33.049 -20.430 -18.563  0.00  0.00    +0.150 HD
ENDROOT
BRANCH   3   6
ATOM      5  C   UNL     1      33.922 -23.764 -15.456  0.00  0.00    +0.090 C 
ATOM      6  C   UNL     1      33.214 -22.784 -17.568  0.00  0.00    +0.055 C 
ATOM      7  C   UNL     1      34.197 -23.384 -16.781  0.00  0.00    +0.023 C 
ATOM      8  C   UNL     1      32.637 -23.526 -14.941  0.00  0.00    +0.018 C 
ATOM      9  C   UNL     1      31.942 -22.555 -17.041  0.00  0.00    +0.005 C 
ATOM     10  C   UNL     1      31.654 -22.925 -15.729  0.00  0.00    +0.002 C 
BRANCH   5  12
ATOM     11  O   UNL     1      37.571 -22.782 -11.890  0.00  0.00    -0.207 OA
ATOM     12  N   UNL     1      34.902 -24.361 -14.671  0.00  0.00    -0.137 N 
ATOM     13  N   UNL     1      35.693 -25.392 -15.070  0.00  0.00    -0.215 N 
ATOM     14  N   UNL     1      35.527 -23.591 -13.693  0.00  0.00    -0.143 NA
ATOM     15  N   UNL     1      37.948 -26.001 -14.303  0.00  0.00    -0.309 NA
ATOM     16  N   UNL     1      38.878 -24.559 -12.606  0.00  0.00    -0.251 NA
ATOM     17  N   UNL     1      40.092 -26.362 -13.395  0.00  0.00    -0.283 N 
ATOM     18  C   UNL     1      36.855 -25.336 -14.373  0.00  0.00    +0.243 C 
ATOM     19  C   UNL     1      36.679 -24.158 -13.510  0.00  0.00    +0.241 C 
ATOM     20  C   UNL     1      37.754 -23.768 -12.590  0.00  0.00    +0.239 C 
ATOM     21  C   UNL     1      38.948 -25.598 -13.414  0.00  0.00    +0.208 C 
ATOM     22  H   UNL     1      35.461 -26.066 -15.750  0.00  0.00    +0.175 HD
ATOM     23  H   UNL     1      40.173 -27.144 -13.988  0.00  0.00    +0.156 HD
ATOM     24  H   UNL     1      40.831 -26.126 -12.789  0.00  0.00    +0.156 HD
ENDBRANCH   5  12
ENDBRANCH   3   6
BRANCH   2  25
ATOM     25  C   UNL     1      33.578 -20.516 -20.593  0.00  0.00    +0.117 C 
BRANCH  25  26
ATOM     26  C   UNL     1      34.968 -19.970 -20.740  0.00  0.00    +0.003 C 
ATOM     27  C   UNL     1      35.343 -19.205 -21.841  0.00  0.00    +0.027 C 
ATOM     28  C   UNL     1      35.887 -20.255 -19.735  0.00  0.00    -0.002 C 
ATOM     29  C   UNL     1      36.647 -18.720 -21.936  0.00  0.00    +0.006 C 
ATOM     30  C   UNL     1      37.191 -19.770 -19.830  0.00  0.00    -0.000 C 
ATOM     31  C   UNL     1      37.571 -19.002 -20.930  0.00  0.00    +0.000 C 
BRANCH  27  32
ATOM     32  S   UNL     1      34.195 -18.815 -23.156  0.00  0.00    -0.087 S 
BRANCH  32  33
ATOM     33  C   UNL     1      34.227 -17.030 -23.121  0.00  0.00    +0.028 C 
ATOM     34  C   UNL     1      33.867 -16.267 -24.234  0.00  0.00    +0.013 C 
ATOM     35  C   UNL     1      34.626 -16.396 -21.943  0.00  0.00    +0.006 C 
ATOM     36  C   UNL     1      33.905 -14.874 -24.168  0.00  0.00    -0.001 C 
ATOM     37  C   UNL     1      34.665 -15.003 -21.878  0.00  0.00    +0.000 C 
ATOM     38  C   UNL     1      34.304 -14.242 -22.990  0.00  0.00    -0.000 C 
BRANCH  34  39
ATOM     39  C   UNL     1      33.432 -16.897 -25.518  0.00  0.00    +0.164 C 
BRANCH  39  40
ATOM     40  O   UNL     1      32.023 -17.076 -25.498  0.00  0.00    -0.377 OA
ATOM     41  H   UNL     1      31.722 -17.376 -26.370  0.00  0.00    +0.211 HD
ENDBRANCH  39  40
ENDBRANCH  34  39
ENDBRANCH  32  33
ENDBRANCH  27  32
ENDBRANCH  25  26
ENDBRANCH   2  25
TORSDOF 8
ENDMDL
MODEL 9
REMARK VINA RESULT:     -11.6      1.559      2.225
REMARK  Name = 448408
REMARK  8 active torsions:
REMARK  status: ('A' for Active; 'I' for Inactive)
REMARK    1  A    between atoms: N_2  and  C_25
REMARK    2  A    between atoms: C_3  and  C_6
REMARK    3  A    between atoms: C_5  and  N_12
REMARK    4  A    between atoms: C_25  and  C_26
REMARK    5  A    between atoms: C_27  and  S_32
REMARK    6  A    between atoms: S_32  and  C_33
REMARK    7  A    between atoms: C_34  and  C_39
REMARK    8  A    between atoms: C_39  and  O_40
REMARK                            x       y       z     vdW  Elec       q    Type
REMARK                         _______ _______ _______ _____ _____    ______ ____
ROOT
ATOM      1  O   UNL     1      32.850 -21.935 -19.710  0.00  0.00    -0.270 OA
ATOM      2  N   UNL     1      34.605 -22.677 -18.389  0.00  0.00    -0.297 N 
ATOM      3  C   UNL     1      34.026 -21.811 -19.324  0.00  0.00    +0.246 C 
ATOM      4  H   UNL     1      35.542 -22.521 -18.128  0.00  0.00    +0.150 HD
ENDROOT
BRANCH   3   6
ATOM      5  C   UNL     1      35.100 -18.620 -21.003  0.00  0.00    +0.090 C 
ATOM      6  C   UNL     1      34.872 -20.756 -19.859  0.00  0.00    +0.055 C 
ATOM      7  C   UNL     1      34.296 -19.647 -20.480  0.00  0.00    +0.023 C 
ATOM      8  C   UNL     1      36.495 -18.733 -20.887  0.00  0.00    +0.018 C 
ATOM      9  C   UNL     1      36.260 -20.853 -19.753  0.00  0.00    +0.005 C 
ATOM     10  C   UNL     1      37.071 -19.842 -20.266  0.00  0.00    +0.002 C 
BRANCH   5  12
ATOM     11  O   UNL     1      34.279 -16.393 -25.625  0.00  0.00    -0.207 OA
ATOM     12  N   UNL     1      34.526 -17.514 -21.621  0.00  0.00    -0.137 N 
ATOM     13  N   UNL     1      34.526 -16.254 -21.112  0.00  0.00    -0.215 N 
ATOM     14  N   UNL     1      34.448 -17.500 -23.011  0.00  0.00    -0.143 NA
ATOM     15  N   UNL     1      34.411 -14.104 -22.298  0.00  0.00    -0.309 NA
ATOM     16  N   UNL     1      34.281 -14.266 -24.702  0.00  0.00    -0.251 NA
ATOM     17  N   UNL     1      34.291 -12.194 -23.673  0.00  0.00    -0.283 N 
ATOM     18  C   UNL     1      34.449 -15.375 -22.141  0.00  0.00    +0.243 C 
ATOM     19  C   UNL     1      34.402 -16.243 -23.328  0.00  0.00    +0.241 C 
ATOM     20  C   UNL     1      34.314 -15.640 -24.663  0.00  0.00    +0.239 C 
ATOM     21  C   UNL     1      34.328 -13.567 -23.585  0.00  0.00    +0.208 C 
ATOM     22  H   UNL     1      34.574 -16.019 -20.156  0.00  0.00    +0.175 HD
ATOM     23  H   UNL     1      34.324 -11.647 -22.856  0.00  0.00    +0.156 HD
ATOM     24  H   UNL     1      34.232 -11.759 -24.555  0.00  0.00    +0.156 HD
ENDBRANCH   5  12
ENDBRANCH   3   6
BRANCH   2  25
ATOM     25  C   UNL     1      33.903 -23.787 -17.785  0.00  0.00    +0.117 C 
BRANCH  25  26
ATOM     26  C   UNL     1      33.389 -23.447 -16.416  0.00  0.00    +0.003 C 
ATOM     27  C   UNL     1      34.249 -23.165 -15.359  0.00  0.00    +0.027 C 
ATOM     28  C   UNL     1      32.010 -23.422 -16.228  0.00  0.00    -0.002 C 
ATOM     29  C   UNL     1      33.726 -22.856 -14.103  0.00  0.00    +0.006 C 
ATOM     30  C   UNL     1      31.487 -23.112 -14.973  0.00  0.00    -0.000 C 
ATOM     31  C   UNL     1      32.345 -22.829 -13.911  0.00  0.00    +0.000 C 
BRANCH  27  32
ATOM     32  S   UNL     1      36.026 -23.187 -15.555  0.00  0.00    -0.087 S 
BRANCH  32  33
ATOM     33  C   UNL     1      36.482 -24.480 -14.410  0.00  0.00    +0.028 C 
ATOM     34  C   UNL     1      36.963 -24.192 -13.131  0.00  0.00    +0.013 C 
ATOM     35  C   UNL     1      36.349 -25.807 -14.821  0.00  0.00    +0.006 C 
ATOM     36  C   UNL     1      37.308 -25.230 -12.265  0.00  0.00    -0.001 C 
ATOM     37  C   UNL     1      36.695 -26.845 -13.955  0.00  0.00    +0.000 C 
ATOM     38  C   UNL     1      37.175 -26.556 -12.677  0.00  0.00    -0.000 C 
BRANCH  34  39
ATOM     39  C   UNL     1      37.124 -22.788 -12.643  0.00  0.00    +0.164 C 
BRANCH  39  40
ATOM     40  O   UNL     1      37.858 -22.797 -11.426  0.00  0.00    -0.377 OA
ATOM     41  H   UNL     1      37.379 -22.285 -10.756  0.00  0.00    +0.211 HD
ENDBRANCH  39  40
ENDBRANCH  34  39
ENDBRANCH  32  33
ENDBRANCH  27  32
ENDBRANCH  25  26
ENDBRANCH   2  25
TORSDOF 8
ENDMDL
