MODEL 1
REMARK VINA RESULT:     -11.5      0.000      0.000
REMARK  Name = 5289109
REMARK  6 active torsions:
REMARK  status: ('A' for Active; 'I' for Inactive)
REMARK    1  A    between atoms: C_3  and  C_9
REMARK    2  A    between atoms: C_4  and  C_21
REMARK    3  A    between atoms: N_8  and  C_11
REMARK    4  A    between atoms: C_11  and  C_12
REMARK    5  A    between atoms: N_20  and  C_23
REMARK    6  A    between atoms: C_23  and  C_24
REMARK                            x       y       z     vdW  Elec       q    Type
REMARK                         _______ _______ _______ _____ _____    ______ ____
ROOT
ATOM      1  N   UNL     1      36.440 -24.573 -13.345  0.00  0.00    -0.244 NA
ATOM      2  N   UNL     1      37.867 -23.574 -15.009  0.00  0.00    -0.244 NA
ATOM      3  C   UNL     1      35.449 -23.756 -13.758  0.00  0.00    +0.115 C 
ATOM      4  C   UNL     1      36.827 -22.808 -15.346  0.00  0.00    +0.115 C 
ATOM      5  C   UNL     1      35.589 -22.834 -14.775  0.00  0.00    +0.100 C 
ATOM      6  C   UNL     1      37.605 -24.431 -14.005  0.00  0.00    +0.250 C 
ENDROOT
BRANCH   3   9
ATOM      7  O   UNL     1      34.085 -24.635 -12.065  0.00  0.00    -0.269 OA
ATOM      8  N   UNL     1      33.104 -23.141 -13.543  0.00  0.00    -0.296 N 
ATOM      9  C   UNL     1      34.182 -23.893 -13.059  0.00  0.00    +0.260 C 
ATOM     10  H   UNL     1      33.249 -22.575 -14.334  0.00  0.00    +0.150 HD
BRANCH   8  11
ATOM     11  C   UNL     1      31.789 -23.151 -12.942  0.00  0.00    +0.117 C 
BRANCH  11  12
ATOM     12  C   UNL     1      30.761 -23.760 -13.851  0.00  0.00    -0.003 C 
ATOM     13  C   UNL     1      29.981 -22.938 -14.654  0.00  0.00    -0.007 C 
ATOM     14  C   UNL     1      29.027 -23.504 -15.501  0.00  0.00    -0.022 C 
ATOM     15  C   UNL     1      30.602 -25.141 -13.882  0.00  0.00    -0.003 C 
ATOM     16  C   UNL     1      28.860 -24.889 -15.537  0.00  0.00    -0.004 C 
ATOM     17  C   UNL     1      29.648 -25.707 -14.727  0.00  0.00    -0.001 C 
ATOM     18  C   UNL     1      28.183 -22.629 -16.365  0.00  0.00    +0.031 C 
ENDBRANCH  11  12
ENDBRANCH   8  11
ENDBRANCH   3   9
BRANCH   4  21
ATOM     19  O   UNL     1      37.789 -20.864 -16.236  0.00  0.00    -0.269 OA
ATOM     20  N   UNL     1      36.544 -22.180 -17.684  0.00  0.00    -0.296 N 
ATOM     21  C   UNL     1      37.095 -21.854 -16.452  0.00  0.00    +0.260 C 
ATOM     22  H   UNL     1      36.001 -22.998 -17.758  0.00  0.00    +0.150 HD
BRANCH  20  23
ATOM     23  C   UNL     1      36.736 -21.368 -18.859  0.00  0.00    +0.117 C 
BRANCH  23  24
ATOM     24  C   UNL     1      35.445 -20.996 -19.508  0.00  0.00    -0.003 C 
ATOM     25  C   UNL     1      35.443 -20.176 -20.636  0.00  0.00    -0.007 C 
ATOM     26  C   UNL     1      34.236 -19.829 -21.244  0.00  0.00    -0.022 C 
ATOM     27  C   UNL     1      34.241 -21.469 -18.987  0.00  0.00    -0.003 C 
ATOM     28  C   UNL     1      33.032 -20.302 -20.723  0.00  0.00    -0.004 C 
ATOM     29  C   UNL     1      33.034 -21.122 -19.595  0.00  0.00    -0.001 C 
ATOM     30  C   UNL     1      34.233 -18.952 -22.450  0.00  0.00    +0.031 C 
ENDBRANCH  23  24
ENDBRANCH  20  23
ENDBRANCH   4  21
TORSDOF 6
ENDMDL
MODEL 2
REMARK VINA RESULT:     -11.1      7.137     10.756
REMARK  Name = 5289109
REMARK  6 active torsions:
REMARK  status: ('A' for Active; 'I' for Inactive)
REMARK    1  A    between atoms: C_3  and  C_9
REMARK    2  A    between atoms: C_4  and  C_21
REMARK    3  A    between atoms: N_8  and  C_11
REMARK    4  A    between atoms: C_11  and  C_12
REMARK    5  A    between atoms: N_20  and  C_23
REMARK    6  A    between atoms: C_23  and  C_24
REMARK                            x       y       z     vdW  Elec       q    Type
REMARK                         _______ _______ _______ _____ _____    ______ ____
ROOT
ATOM      1  N   UNL     1      34.673 -16.233 -20.466  0.00  0.00    -0.244 NA
ATOM      2  N   UNL     1      33.995 -14.095 -21.345  0.00  0.00    -0.244 NA
ATOM      3  C   UNL     1      34.922 -16.632 -21.731  0.00  0.00    +0.115 C 
ATOM      4  C   UNL     1      34.270 -14.580 -22.558  0.00  0.00    +0.115 C 
ATOM      5  C   UNL     1      34.733 -15.831 -22.839  0.00  0.00    +0.100 C 
ATOM      6  C   UNL     1      34.220 -14.971 -20.348  0.00  0.00    +0.250 C 
ENDROOT
BRANCH   3   9
ATOM      7  O   UNL     1      35.471 -18.523 -23.004  0.00  0.00    -0.269 OA
ATOM      8  N   UNL     1      35.831 -18.649 -20.717  0.00  0.00    -0.296 N 
ATOM      9  C   UNL     1      35.413 -17.991 -21.881  0.00  0.00    +0.260 C 
ATOM     10  H   UNL     1      35.758 -18.171 -19.859  0.00  0.00    +0.150 HD
BRANCH   8  11
ATOM     11  C   UNL     1      36.365 -19.992 -20.705  0.00  0.00    +0.117 C 
BRANCH  11  12
ATOM     12  C   UNL     1      35.714 -20.846 -19.656  0.00  0.00    -0.003 C 
ATOM     13  C   UNL     1      36.449 -21.258 -18.552  0.00  0.00    -0.007 C 
ATOM     14  C   UNL     1      35.844 -22.050 -17.576  0.00  0.00    -0.022 C 
ATOM     15  C   UNL     1      34.382 -21.216 -19.800  0.00  0.00    -0.003 C 
ATOM     16  C   UNL     1      34.507 -22.426 -17.713  0.00  0.00    -0.004 C 
ATOM     17  C   UNL     1      33.776 -22.008 -18.825  0.00  0.00    -0.001 C 
ATOM     18  C   UNL     1      36.626 -22.498 -16.387  0.00  0.00    +0.031 C 
ENDBRANCH  11  12
ENDBRANCH   8  11
ENDBRANCH   3   9
BRANCH   4  21
ATOM     19  O   UNL     1      33.596 -14.054 -24.741  0.00  0.00    -0.269 OA
ATOM     20  N   UNL     1      34.296 -12.294 -23.402  0.00  0.00    -0.296 N 
ATOM     21  C   UNL     1      34.028 -13.629 -23.672  0.00  0.00    +0.260 C 
ATOM     22  H   UNL     1      34.641 -12.051 -22.512  0.00  0.00    +0.150 HD
BRANCH  20  23
ATOM     23  C   UNL     1      34.089 -11.249 -24.373  0.00  0.00    +0.117 C 
BRANCH  23  24
ATOM     24  C   UNL     1      34.029  -9.897 -23.746  0.00  0.00    -0.003 C 
ATOM     25  C   UNL     1      32.926  -9.536 -22.973  0.00  0.00    -0.007 C 
ATOM     26  C   UNL     1      32.870  -8.271 -22.385  0.00  0.00    -0.022 C 
ATOM     27  C   UNL     1      35.076  -8.994 -23.932  0.00  0.00    -0.003 C 
ATOM     28  C   UNL     1      33.917  -7.369 -22.572  0.00  0.00    -0.004 C 
ATOM     29  C   UNL     1      35.020  -7.730 -23.345  0.00  0.00    -0.001 C 
ATOM     30  C   UNL     1      31.690  -7.883 -21.559  0.00  0.00    +0.031 C 
ENDBRANCH  23  24
ENDBRANCH  20  23
ENDBRANCH   4  21
TORSDOF 6
ENDMDL
MODEL 3
REMARK VINA RESULT:     -11.1      5.581      9.151
REMARK  Name = 5289109
REMARK  6 active torsions:
REMARK  status: ('A' for Active; 'I' for Inactive)
REMARK    1  A    between atoms: C_3  and  C_9
REMARK    2  A    between atoms: C_4  and  C_21
REMARK    3  A    between atoms: N_8  and  C_11
REMARK    4  A    between atoms: C_11  and  C_12
REMARK    5  A    between atoms: N_20  and  C_23
REMARK    6  A    between atoms: C_23  and  C_24
REMARK                            x       y       z     vdW  Elec       q    Type
REMARK                         _______ _______ _______ _____ _____    ______ ____
ROOT
ATOM      1  N   UNL     1      34.808 -19.696 -23.144  0.00  0.00    -0.244 NA
ATOM      2  N   UNL     1      33.986 -18.052 -24.701  0.00  0.00    -0.244 NA
ATOM      3  C   UNL     1      35.239 -18.685 -22.361  0.00  0.00    +0.115 C 
ATOM      4  C   UNL     1      34.447 -17.122 -23.862  0.00  0.00    +0.115 C 
ATOM      5  C   UNL     1      35.083 -17.350 -22.678  0.00  0.00    +0.100 C 
ATOM      6  C   UNL     1      34.199 -19.313 -24.282  0.00  0.00    +0.250 C 
ENDROOT
BRANCH   3   9
ATOM      7  O   UNL     1      36.519 -18.238 -20.448  0.00  0.00    -0.269 OA
ATOM      8  N   UNL     1      35.782 -20.417 -20.741  0.00  0.00    -0.296 N 
ATOM      9  C   UNL     1      35.899 -19.076 -21.127  0.00  0.00    +0.260 C 
ATOM     10  H   UNL     1      35.279 -21.028 -21.325  0.00  0.00    +0.150 HD
BRANCH   8  11
ATOM     11  C   UNL     1      36.361 -20.953 -19.530  0.00  0.00    +0.117 C 
BRANCH  11  12
ATOM     12  C   UNL     1      35.340 -21.654 -18.681  0.00  0.00    -0.003 C 
ATOM     13  C   UNL     1      35.709 -22.162 -17.442  0.00  0.00    -0.007 C 
ATOM     14  C   UNL     1      34.759 -22.811 -16.652  0.00  0.00    -0.022 C 
ATOM     15  C   UNL     1      34.036 -21.787 -19.144  0.00  0.00    -0.003 C 
ATOM     16  C   UNL     1      33.448 -22.949 -17.109  0.00  0.00    -0.004 C 
ATOM     17  C   UNL     1      33.087 -22.436 -18.355  0.00  0.00    -0.001 C 
ATOM     18  C   UNL     1      35.146 -23.361 -15.320  0.00  0.00    +0.031 C 
ENDBRANCH  11  12
ENDBRANCH   8  11
ENDBRANCH   3   9
BRANCH   4  21
ATOM     19  O   UNL     1      34.166 -15.477 -25.510  0.00  0.00    -0.269 OA
ATOM     20  N   UNL     1      34.069 -14.782 -23.299  0.00  0.00    -0.296 N 
ATOM     21  C   UNL     1      34.223 -15.723 -24.307  0.00  0.00    +0.260 C 
ATOM     22  H   UNL     1      34.131 -15.077 -22.362  0.00  0.00    +0.150 HD
BRANCH  20  23
ATOM     23  C   UNL     1      33.820 -13.388 -23.571  0.00  0.00    +0.117 C 
BRANCH  23  24
ATOM     24  C   UNL     1      33.025 -12.734 -22.492  0.00  0.00    -0.003 C 
ATOM     25  C   UNL     1      32.653 -11.395 -22.615  0.00  0.00    -0.007 C 
ATOM     26  C   UNL     1      31.908 -10.782 -21.606  0.00  0.00    -0.022 C 
ATOM     27  C   UNL     1      32.652 -13.460 -21.361  0.00  0.00    -0.003 C 
ATOM     28  C   UNL     1      31.536 -11.510 -20.476  0.00  0.00    -0.004 C 
ATOM     29  C   UNL     1      31.908 -12.848 -20.353  0.00  0.00    -0.001 C 
ATOM     30  C   UNL     1      31.511  -9.351 -21.737  0.00  0.00    +0.031 C 
ENDBRANCH  23  24
ENDBRANCH  20  23
ENDBRANCH   4  21
TORSDOF 6
ENDMDL
MODEL 4
REMARK VINA RESULT:     -11.1      2.262      7.499
REMARK  Name = 5289109
REMARK  6 active torsions:
REMARK  status: ('A' for Active; 'I' for Inactive)
REMARK    1  A    between atoms: C_3  and  C_9
REMARK    2  A    between atoms: C_4  and  C_21
REMARK    3  A    between atoms: N_8  and  C_11
REMARK    4  A    between atoms: C_11  and  C_12
REMARK    5  A    between atoms: N_20  and  C_23
REMARK    6  A    between atoms: C_23  and  C_24
REMARK                            x       y       z     vdW  Elec       q    Type
REMARK                         _______ _______ _______ _____ _____    ______ ____
ROOT
ATOM      1  N   UNL     1      30.493 -24.422 -14.894  0.00  0.00    -0.244 NA
ATOM      2  N   UNL     1      31.811 -25.107 -12.998  0.00  0.00    -0.244 NA
ATOM      3  C   UNL     1      31.524 -23.644 -15.283  0.00  0.00    +0.115 C 
ATOM      4  C   UNL     1      32.775 -24.309 -13.462  0.00  0.00    +0.115 C 
ATOM      5  C   UNL     1      32.715 -23.546 -14.591  0.00  0.00    +0.100 C 
ATOM      6  C   UNL     1      30.702 -25.117 -13.760  0.00  0.00    +0.250 C 
ENDROOT
BRANCH   3   9
ATOM      7  O   UNL     1      30.199 -22.422 -16.783  0.00  0.00    -0.269 OA
ATOM      8  N   UNL     1      32.437 -22.691 -17.327  0.00  0.00    -0.296 N 
ATOM      9  C   UNL     1      31.320 -22.886 -16.506  0.00  0.00    +0.260 C 
ATOM     10  H   UNL     1      33.295 -23.086 -17.050  0.00  0.00    +0.150 HD
BRANCH   8  11
ATOM     11  C   UNL     1      32.400 -21.940 -18.562  0.00  0.00    +0.117 C 
BRANCH  11  12
ATOM     12  C   UNL     1      33.773 -21.531 -19.012  0.00  0.00    -0.003 C 
ATOM     13  C   UNL     1      33.913 -20.644 -20.072  0.00  0.00    -0.007 C 
ATOM     14  C   UNL     1      35.188 -20.262 -20.489  0.00  0.00    -0.022 C 
ATOM     15  C   UNL     1      34.891 -22.043 -18.363  0.00  0.00    -0.003 C 
ATOM     16  C   UNL     1      36.315 -20.772 -19.844  0.00  0.00    -0.004 C 
ATOM     17  C   UNL     1      36.166 -21.662 -18.780  0.00  0.00    -0.001 C 
ATOM     18  C   UNL     1      35.348 -19.312 -21.628  0.00  0.00    +0.031 C 
ENDBRANCH  11  12
ENDBRANCH   8  11
ENDBRANCH   3   9
BRANCH   4  21
ATOM     19  O   UNL     1      34.048 -23.566 -11.639  0.00  0.00    -0.269 OA
ATOM     20  N   UNL     1      35.038 -25.115 -13.053  0.00  0.00    -0.296 N 
ATOM     21  C   UNL     1      34.008 -24.284 -12.635  0.00  0.00    +0.260 C 
ATOM     22  H   UNL     1      34.910 -25.654 -13.867  0.00  0.00    +0.150 HD
BRANCH  20  23
ATOM     23  C   UNL     1      36.287 -25.220 -12.342  0.00  0.00    +0.117 C 
BRANCH  23  24
ATOM     24  C   UNL     1      37.466 -25.073 -13.244  0.00  0.00    -0.003 C 
ATOM     25  C   UNL     1      38.591 -25.875 -13.055  0.00  0.00    -0.007 C 
ATOM     26  C   UNL     1      39.695 -25.739 -13.899  0.00  0.00    -0.022 C 
ATOM     27  C   UNL     1      37.444 -24.134 -14.275  0.00  0.00    -0.003 C 
ATOM     28  C   UNL     1      39.672 -24.800 -14.930  0.00  0.00    -0.004 C 
ATOM     29  C   UNL     1      38.547 -23.998 -15.118  0.00  0.00    -0.001 C 
ATOM     30  C   UNL     1      40.899 -26.596 -13.698  0.00  0.00    +0.031 C 
ENDBRANCH  23  24
ENDBRANCH  20  23
ENDBRANCH   4  21
TORSDOF 6
ENDMDL
MODEL 5
REMARK VINA RESULT:     -11.1      9.819     14.713
REMARK  Name = 5289109
REMARK  6 active torsions:
REMARK  status: ('A' for Active; 'I' for Inactive)
REMARK    1  A    between atoms: C_3  and  C_9
REMARK    2  A    between atoms: C_4  and  C_21
REMARK    3  A    between atoms: N_8  and  C_11
REMARK    4  A    between atoms: C_11  and  C_12
REMARK    5  A    between atoms: N_20  and  C_23
REMARK    6  A    between atoms: C_23  and  C_24
REMARK                            x       y       z     vdW  Elec       q    Type
REMARK                         _______ _______ _______ _____ _____    ______ ____
ROOT
ATOM      1  N   UNL     1      31.586 -11.341 -20.413  0.00  0.00    -0.244 NA
ATOM      2  N   UNL     1      32.364 -13.499 -21.151  0.00  0.00    -0.244 NA
ATOM      3  C   UNL     1      32.008 -10.829 -21.588  0.00  0.00    +0.115 C 
ATOM      4  C   UNL     1      32.749 -12.901 -22.281  0.00  0.00    +0.115 C 
ATOM      5  C   UNL     1      32.610 -11.577 -22.579  0.00  0.00    +0.100 C 
ATOM      6  C   UNL     1      31.791 -12.664 -20.265  0.00  0.00    +0.250 C 
ENDROOT
BRANCH   3   9
ATOM      7  O   UNL     1      30.818  -8.986 -22.416  0.00  0.00    -0.269 OA
ATOM      8  N   UNL     1      32.721  -8.540 -21.168  0.00  0.00    -0.296 N 
ATOM      9  C   UNL     1      31.796  -9.403 -21.769  0.00  0.00    +0.260 C 
ATOM     10  H   UNL     1      33.472  -8.936 -20.670  0.00  0.00    +0.150 HD
BRANCH   8  11
ATOM     11  C   UNL     1      32.633  -7.099 -21.237  0.00  0.00    +0.117 C 
BRANCH  11  12
ATOM     12  C   UNL     1      33.231  -6.560 -22.504  0.00  0.00    -0.003 C 
ATOM     13  C   UNL     1      32.540  -5.604 -23.238  0.00  0.00    -0.007 C 
ATOM     14  C   UNL     1      33.096  -5.101 -24.414  0.00  0.00    -0.022 C 
ATOM     15  C   UNL     1      34.471  -7.023 -22.931  0.00  0.00    -0.003 C 
ATOM     16  C   UNL     1      34.340  -5.560 -24.849  0.00  0.00    -0.004 C 
ATOM     17  C   UNL     1      35.027  -6.521 -24.107  0.00  0.00    -0.001 C 
ATOM     18  C   UNL     1      32.361  -4.075 -25.209  0.00  0.00    +0.031 C 
ENDBRANCH  11  12
ENDBRANCH   8  11
ENDBRANCH   3   9
BRANCH   4  21
ATOM     19  O   UNL     1      32.908 -13.886 -24.403  0.00  0.00    -0.269 OA
ATOM     20  N   UNL     1      34.512 -14.488 -22.839  0.00  0.00    -0.296 N 
ATOM     21  C   UNL     1      33.384 -13.805 -23.273  0.00  0.00    +0.260 C 
ATOM     22  H   UNL     1      34.817 -14.357 -21.913  0.00  0.00    +0.150 HD
BRANCH  20  23
ATOM     23  C   UNL     1      35.253 -15.382 -23.693  0.00  0.00    +0.117 C 
BRANCH  23  24
ATOM     24  C   UNL     1      34.877 -16.810 -23.480  0.00  0.00    -0.003 C 
ATOM     25  C   UNL     1      35.207 -17.446 -22.284  0.00  0.00    -0.007 C 
ATOM     26  C   UNL     1      34.855 -18.782 -22.083  0.00  0.00    -0.022 C 
ATOM     27  C   UNL     1      34.195 -17.508 -24.476  0.00  0.00    -0.003 C 
ATOM     28  C   UNL     1      34.173 -19.479 -23.080  0.00  0.00    -0.004 C 
ATOM     29  C   UNL     1      33.843 -18.843 -24.277  0.00  0.00    -0.001 C 
ATOM     30  C   UNL     1      35.209 -19.463 -20.805  0.00  0.00    +0.031 C 
ENDBRANCH  23  24
ENDBRANCH  20  23
ENDBRANCH   4  21
TORSDOF 6
ENDMDL
MODEL 6
REMARK VINA RESULT:     -11.1      5.614     10.736
REMARK  Name = 5289109
REMARK  6 active torsions:
REMARK  status: ('A' for Active; 'I' for Inactive)
REMARK    1  A    between atoms: C_3  and  C_9
REMARK    2  A    between atoms: C_4  and  C_21
REMARK    3  A    between atoms: N_8  and  C_11
REMARK    4  A    between atoms: C_11  and  C_12
REMARK    5  A    between atoms: N_20  and  C_23
REMARK    6  A    between atoms: C_23  and  C_24
REMARK                            x       y       z     vdW  Elec       q    Type
REMARK                         _______ _______ _______ _____ _____    ______ ____
ROOT
ATOM      1  N   UNL     1      33.883 -18.019 -24.624  0.00  0.00    -0.244 NA
ATOM      2  N   UNL     1      34.697 -19.670 -23.069  0.00  0.00    -0.244 NA
ATOM      3  C   UNL     1      34.404 -17.064 -23.825  0.00  0.00    +0.115 C 
ATOM      4  C   UNL     1      35.176 -18.656 -22.345  0.00  0.00    +0.115 C 
ATOM      5  C   UNL     1      35.074 -17.331 -22.648  0.00  0.00    +0.100 C 
ATOM      6  C   UNL     1      34.065 -19.282 -24.192  0.00  0.00    +0.250 C 
ENDROOT
BRANCH   3   9
ATOM      7  O   UNL     1      34.188 -15.424 -25.487  0.00  0.00    -0.269 OA
ATOM      8  N   UNL     1      34.058 -14.717 -23.282  0.00  0.00    -0.296 N 
ATOM      9  C   UNL     1      34.220 -15.694 -24.273  0.00  0.00    +0.260 C 
ATOM     10  H   UNL     1      34.094 -14.999 -22.339  0.00  0.00    +0.150 HD
BRANCH   8  11
ATOM     11  C   UNL     1      33.843 -13.317 -23.567  0.00  0.00    +0.117 C 
BRANCH  11  12
ATOM     12  C   UNL     1      33.026 -12.646 -22.501  0.00  0.00    -0.003 C 
ATOM     13  C   UNL     1      32.672 -11.310 -22.646  0.00  0.00    -0.007 C 
ATOM     14  C   UNL     1      31.912 -10.687 -21.656  0.00  0.00    -0.022 C 
ATOM     15  C   UNL     1      32.633 -13.367 -21.379  0.00  0.00    -0.003 C 
ATOM     16  C   UNL     1      31.513 -11.403 -20.528  0.00  0.00    -0.004 C 
ATOM     17  C   UNL     1      31.873 -12.744 -20.390  0.00  0.00    -0.001 C 
ATOM     18  C   UNL     1      31.527  -9.253 -21.803  0.00  0.00    +0.031 C 
ENDBRANCH  11  12
ENDBRANCH   8  11
ENDBRANCH   3   9
BRANCH   4  21
ATOM     19  O   UNL     1      36.503 -18.221 -20.461  0.00  0.00    -0.269 OA
ATOM     20  N   UNL     1      35.748 -20.397 -20.738  0.00  0.00    -0.296 N 
ATOM     21  C   UNL     1      35.878 -19.063 -21.101  0.00  0.00    +0.260 C 
ATOM     22  H   UNL     1      35.225 -20.996 -21.317  0.00  0.00    +0.150 HD
BRANCH  20  23
ATOM     23  C   UNL     1      36.348 -20.937 -19.544  0.00  0.00    +0.117 C 
BRANCH  23  24
ATOM     24  C   UNL     1      35.357 -21.641 -18.680  0.00  0.00    -0.003 C 
ATOM     25  C   UNL     1      35.746 -22.138 -17.436  0.00  0.00    -0.007 C 
ATOM     26  C   UNL     1      34.819 -22.796 -16.626  0.00  0.00    -0.022 C 
ATOM     27  C   UNL     1      34.042 -21.802 -19.115  0.00  0.00    -0.003 C 
ATOM     28  C   UNL     1      33.504 -22.956 -17.062  0.00  0.00    -0.004 C 
ATOM     29  C   UNL     1      33.115 -22.459 -18.306  0.00  0.00    -0.001 C 
ATOM     30  C   UNL     1      35.234 -23.328 -15.297  0.00  0.00    +0.031 C 
ENDBRANCH  23  24
ENDBRANCH  20  23
ENDBRANCH   4  21
TORSDOF 6
ENDMDL
MODEL 7
REMARK VINA RESULT:     -11.0     10.005     14.240
REMARK  Name = 5289109
REMARK  6 active torsions:
REMARK  status: ('A' for Active; 'I' for Inactive)
REMARK    1  A    between atoms: C_3  and  C_9
REMARK    2  A    between atoms: C_4  and  C_21
REMARK    3  A    between atoms: N_8  and  C_11
REMARK    4  A    between atoms: C_11  and  C_12
REMARK    5  A    between atoms: N_20  and  C_23
REMARK    6  A    between atoms: C_23  and  C_24
REMARK                            x       y       z     vdW  Elec       q    Type
REMARK                         _______ _______ _______ _____ _____    ______ ____
ROOT
ATOM      1  N   UNL     1      32.335 -13.345 -21.451  0.00  0.00    -0.244 NA
ATOM      2  N   UNL     1      31.601 -11.333 -20.347  0.00  0.00    -0.244 NA
ATOM      3  C   UNL     1      32.767 -12.580 -22.476  0.00  0.00    +0.115 C 
ATOM      4  C   UNL     1      32.059 -10.662 -21.406  0.00  0.00    +0.115 C 
ATOM      5  C   UNL     1      32.651 -11.205 -22.508  0.00  0.00    +0.100 C 
ATOM      6  C   UNL     1      31.771 -12.665 -20.434  0.00  0.00    +0.250 C 
ENDROOT
BRANCH   3   9
ATOM      7  O   UNL     1      33.698 -12.692 -24.625  0.00  0.00    -0.269 OA
ATOM      8  N   UNL     1      33.608 -14.664 -23.409  0.00  0.00    -0.296 N 
ATOM      9  C   UNL     1      33.379 -13.293 -23.583  0.00  0.00    +0.260 C 
ATOM     10  H   UNL     1      33.331 -15.078 -22.560  0.00  0.00    +0.150 HD
BRANCH   8  11
ATOM     11  C   UNL     1      34.229 -15.505 -24.407  0.00  0.00    +0.117 C 
BRANCH  11  12
ATOM     12  C   UNL     1      34.487 -16.891 -23.893  0.00  0.00    -0.003 C 
ATOM     13  C   UNL     1      35.287 -17.070 -22.771  0.00  0.00    -0.007 C 
ATOM     14  C   UNL     1      35.524 -18.359 -22.291  0.00  0.00    -0.022 C 
ATOM     15  C   UNL     1      33.923 -17.982 -24.544  0.00  0.00    -0.003 C 
ATOM     16  C   UNL     1      34.962 -19.459 -22.939  0.00  0.00    -0.004 C 
ATOM     17  C   UNL     1      34.161 -19.270 -24.065  0.00  0.00    -0.001 C 
ATOM     18  C   UNL     1      36.382 -18.561 -21.088  0.00  0.00    +0.031 C 
ENDBRANCH  11  12
ENDBRANCH   8  11
ENDBRANCH   3   9
BRANCH   4  21
ATOM     19  O   UNL     1      31.789  -8.652 -20.229  0.00  0.00    -0.269 OA
ATOM     20  N   UNL     1      31.853  -8.517 -22.544  0.00  0.00    -0.296 N 
ATOM     21  C   UNL     1      31.880  -9.190 -21.330  0.00  0.00    +0.260 C 
ATOM     22  H   UNL     1      31.933  -9.038 -23.376  0.00  0.00    +0.150 HD
BRANCH  20  23
ATOM     23  C   UNL     1      31.711  -7.086 -22.634  0.00  0.00    +0.117 C 
BRANCH  23  24
ATOM     24  C   UNL     1      32.753  -6.467 -23.504  0.00  0.00    -0.003 C 
ATOM     25  C   UNL     1      32.406  -5.445 -24.387  0.00  0.00    -0.007 C 
ATOM     26  C   UNL     1      33.381  -4.865 -25.201  0.00  0.00    -0.022 C 
ATOM     27  C   UNL     1      34.074  -6.910 -23.434  0.00  0.00    -0.003 C 
ATOM     28  C   UNL     1      34.701  -5.308 -25.130  0.00  0.00    -0.004 C 
ATOM     29  C   UNL     1      35.048  -6.331 -24.247  0.00  0.00    -0.001 C 
ATOM     30  C   UNL     1      33.011  -3.772 -26.145  0.00  0.00    +0.031 C 
ENDBRANCH  23  24
ENDBRANCH  20  23
ENDBRANCH   4  21
TORSDOF 6
ENDMDL
MODEL 8
REMARK VINA RESULT:     -11.0      8.014     12.164
REMARK  Name = 5289109
REMARK  6 active torsions:
REMARK  status: ('A' for Active; 'I' for Inactive)
REMARK    1  A    between atoms: C_3  and  C_9
REMARK    2  A    between atoms: C_4  and  C_21
REMARK    3  A    between atoms: N_8  and  C_11
REMARK    4  A    between atoms: C_11  and  C_12
REMARK    5  A    between atoms: N_20  and  C_23
REMARK    6  A    between atoms: C_23  and  C_24
REMARK                            x       y       z     vdW  Elec       q    Type
REMARK                         _______ _______ _______ _____ _____    ______ ____
ROOT
ATOM      1  N   UNL     1      33.878 -15.400 -25.615  0.00  0.00    -0.244 NA
ATOM      2  N   UNL     1      32.999 -13.337 -24.735  0.00  0.00    -0.244 NA
ATOM      3  C   UNL     1      34.107 -15.800 -24.347  0.00  0.00    +0.115 C 
ATOM      4  C   UNL     1      33.262 -13.820 -23.519  0.00  0.00    +0.115 C 
ATOM      5  C   UNL     1      33.813 -15.035 -23.236  0.00  0.00    +0.100 C 
ATOM      6  C   UNL     1      33.330 -14.176 -25.734  0.00  0.00    +0.250 C 
ENDROOT
BRANCH   3   9
ATOM      7  O   UNL     1      34.609 -17.961 -25.107  0.00  0.00    -0.269 OA
ATOM      8  N   UNL     1      35.381 -17.376 -22.999  0.00  0.00    -0.296 N 
ATOM      9  C   UNL     1      34.698 -17.119 -24.195  0.00  0.00    +0.260 C 
ATOM     10  H   UNL     1      35.413 -16.666 -22.319  0.00  0.00    +0.150 HD
BRANCH   8  11
ATOM     11  C   UNL     1      36.041 -18.629 -22.710  0.00  0.00    +0.117 C 
BRANCH  11  12
ATOM     12  C   UNL     1      35.309 -19.422 -21.666  0.00  0.00    -0.003 C 
ATOM     13  C   UNL     1      36.029 -20.123 -20.706  0.00  0.00    -0.007 C 
ATOM     14  C   UNL     1      35.349 -20.857 -19.734  0.00  0.00    -0.022 C 
ATOM     15  C   UNL     1      33.919 -19.446 -21.669  0.00  0.00    -0.003 C 
ATOM     16  C   UNL     1      33.954 -20.887 -19.731  0.00  0.00    -0.004 C 
ATOM     17  C   UNL     1      33.239 -20.180 -20.698  0.00  0.00    -0.001 C 
ATOM     18  C   UNL     1      36.113 -21.614 -18.700  0.00  0.00    +0.031 C 
ENDBRANCH  11  12
ENDBRANCH   8  11
ENDBRANCH   3   9
BRANCH   4  21
ATOM     19  O   UNL     1      32.869 -13.349 -21.256  0.00  0.00    -0.269 OA
ATOM     20  N   UNL     1      32.654 -11.588 -22.750  0.00  0.00    -0.296 N 
ATOM     21  C   UNL     1      32.904 -12.909 -22.402  0.00  0.00    +0.260 C 
ATOM     22  H   UNL     1      32.707 -11.331 -23.699  0.00  0.00    +0.150 HD
BRANCH  20  23
ATOM     23  C   UNL     1      32.319 -10.580 -21.777  0.00  0.00    +0.117 C 
BRANCH  23  24
ATOM     24  C   UNL     1      32.354  -9.204 -22.352  0.00  0.00    -0.003 C 
ATOM     25  C   UNL     1      33.568  -8.649 -22.758  0.00  0.00    -0.007 C 
ATOM     26  C   UNL     1      33.601  -7.362 -23.297  0.00  0.00    -0.022 C 
ATOM     27  C   UNL     1      31.174  -8.472 -22.485  0.00  0.00    -0.003 C 
ATOM     28  C   UNL     1      32.420  -6.632 -23.429  0.00  0.00    -0.004 C 
ATOM     29  C   UNL     1      31.207  -7.186 -23.024  0.00  0.00    -0.001 C 
ATOM     30  C   UNL     1      34.899  -6.768 -23.730  0.00  0.00    +0.031 C 
ENDBRANCH  23  24
ENDBRANCH  20  23
ENDBRANCH   4  21
TORSDOF 6
ENDMDL
MODEL 9
REMARK VINA RESULT:     -11.0      7.884     12.453
REMARK  Name = 5289109
REMARK  6 active torsions:
REMARK  status: ('A' for Active; 'I' for Inactive)
REMARK    1  A    between atoms: C_3  and  C_9
REMARK    2  A    between atoms: C_4  and  C_21
REMARK    3  A    between atoms: N_8  and  C_11
REMARK    4  A    between atoms: C_11  and  C_12
REMARK    5  A    between atoms: N_20  and  C_23
REMARK    6  A    between atoms: C_23  and  C_24
REMARK                            x       y       z     vdW  Elec       q    Type
REMARK                         _______ _______ _______ _____ _____    ______ ____
ROOT
ATOM      1  N   UNL     1      32.917 -13.128 -23.694  0.00  0.00    -0.244 NA
ATOM      2  N   UNL     1      34.075 -14.959 -24.750  0.00  0.00    -0.244 NA
ATOM      3  C   UNL     1      33.054 -13.771 -22.515  0.00  0.00    +0.115 C 
ATOM      4  C   UNL     1      34.161 -15.516 -23.540  0.00  0.00    +0.115 C 
ATOM      5  C   UNL     1      33.679 -14.993 -22.376  0.00  0.00    +0.100 C 
ATOM      6  C   UNL     1      33.444 -13.770 -24.755  0.00  0.00    +0.250 C 
ENDROOT
BRANCH   3   9
ATOM      7  O   UNL     1      32.447 -13.665 -20.253  0.00  0.00    -0.269 OA
ATOM      8  N   UNL     1      32.037 -11.784 -21.545  0.00  0.00    -0.296 N 
ATOM      9  C   UNL     1      32.493 -13.095 -21.358  0.00  0.00    +0.260 C 
ATOM     10  H   UNL     1      32.102 -11.392 -22.446  0.00  0.00    +0.150 HD
BRANCH   8  11
ATOM     11  C   UNL     1      31.476 -10.974 -20.488  0.00  0.00    +0.117 C 
BRANCH  11  12
ATOM     12  C   UNL     1      31.737  -9.511 -20.703  0.00  0.00    -0.003 C 
ATOM     13  C   UNL     1      31.516  -8.950 -21.954  0.00  0.00    -0.007 C 
ATOM     14  C   UNL     1      31.756  -7.590 -22.153  0.00  0.00    -0.022 C 
ATOM     15  C   UNL     1      32.195  -8.732 -19.646  0.00  0.00    -0.003 C 
ATOM     16  C   UNL     1      32.216  -6.801 -21.099  0.00  0.00    -0.004 C 
ATOM     17  C   UNL     1      32.435  -7.373 -19.845  0.00  0.00    -0.001 C 
ATOM     18  C   UNL     1      31.523  -6.979 -23.494  0.00  0.00    +0.031 C 
ENDBRANCH  11  12
ENDBRANCH   8  11
ENDBRANCH   3   9
BRANCH   4  21
ATOM     19  O   UNL     1      34.823 -17.546 -24.510  0.00  0.00    -0.269 OA
ATOM     20  N   UNL     1      35.519 -17.141 -22.335  0.00  0.00    -0.296 N 
ATOM     21  C   UNL     1      34.853 -16.829 -23.512  0.00  0.00    +0.260 C 
ATOM     22  H   UNL     1      35.485 -16.501 -21.588  0.00  0.00    +0.150 HD
BRANCH  20  23
ATOM     23  C   UNL     1      36.258 -18.367 -22.163  0.00  0.00    +0.117 C 
BRANCH  23  24
ATOM     24  C   UNL     1      35.563 -19.325 -21.255  0.00  0.00    -0.003 C 
ATOM     25  C   UNL     1      36.297 -20.057 -20.322  0.00  0.00    -0.007 C 
ATOM     26  C   UNL     1      35.647 -20.953 -19.471  0.00  0.00    -0.022 C 
ATOM     27  C   UNL     1      34.181 -19.488 -21.338  0.00  0.00    -0.003 C 
ATOM     28  C   UNL     1      34.265 -21.115 -19.555  0.00  0.00    -0.004 C 
ATOM     29  C   UNL     1      33.531 -20.383 -20.488  0.00  0.00    -0.001 C 
ATOM     30  C   UNL     1      36.431 -21.737 -18.474  0.00  0.00    +0.031 C 
ENDBRANCH  23  24
ENDBRANCH  20  23
ENDBRANCH   4  21
TORSDOF 6
ENDMDL
