MODEL 1
REMARK VINA RESULT:     -12.1      0.000      0.000
REMARK  Name = 24767976
REMARK  5 active torsions:
REMARK  status: ('A' for Active; 'I' for Inactive)
REMARK    1  A    between atoms: C_1  and  N_9
REMARK    2  A    between atoms: C_2  and  O_19
REMARK    3  A    between atoms: C_10  and  C_14
REMARK    4  A    between atoms: O_19  and  C_27
REMARK    5  A    between atoms: C_31  and  C_33
REMARK                            x       y       z     vdW  Elec       q    Type
REMARK                         _______ _______ _______ _____ _____    ______ ____
ROOT
ATOM      1  C   UNL     1      32.576 -10.630 -22.601  0.00  0.00    +0.050 C 
ATOM      2  C   UNL     1      33.550 -12.693 -23.392  0.00  0.00    +0.148 C 
ATOM      3  C   UNL     1      31.991 -11.313 -21.536  0.00  0.00    -0.008 C 
ATOM      4  C   UNL     1      33.355 -11.320 -23.529  0.00  0.00    +0.052 C 
ATOM      5  C   UNL     1      32.185 -12.688 -21.398  0.00  0.00    +0.000 C 
ATOM      6  C   UNL     1      32.965 -13.378 -22.327  0.00  0.00    +0.037 C 
ATOM      7  C   UNL     1      31.150 -10.600 -20.526  0.00  0.00    +0.032 C 
ENDROOT
BRANCH   1   9
ATOM      8  O   UNL     1      34.589  -8.433 -22.935  0.00  0.00    -0.268 OA
ATOM      9  N   UNL     1      32.393  -9.253 -22.755  0.00  0.00    -0.279 N 
ATOM     10  C   UNL     1      33.374  -8.266 -22.907  0.00  0.00    +0.265 C 
ATOM     11  H   UNL     1      31.460  -8.938 -22.755  0.00  0.00    +0.155 HD
BRANCH  10  14
ATOM     12  N   UNL     1      32.322  -6.145 -22.004  0.00  0.00    -0.206 N 
ATOM     13  N   UNL     1      31.936  -4.910 -22.368  0.00  0.00    -0.182 NA
ATOM     14  C   UNL     1      32.864  -6.874 -23.021  0.00  0.00    +0.124 C 
ATOM     15  C   UNL     1      32.831  -6.061 -24.127  0.00  0.00    +0.037 C 
ATOM     16  C   UNL     1      32.250  -4.864 -23.666  0.00  0.00    +0.078 C 
ATOM     17  C   UNL     1      32.136  -6.568 -20.636  0.00  0.00    +0.140 C 
ATOM     18  C   UNL     1      31.976  -3.643 -24.442  0.00  0.00    +0.054 C 
ENDBRANCH  10  14
ENDBRANCH   1   9
BRANCH   2  19
ATOM     19  O   UNL     1      34.328 -13.383 -24.319  0.00  0.00    -0.435 OA
BRANCH  19  27
ATOM     20  N   UNL     1      34.072 -18.637 -23.434  0.00  0.00    -0.373 NA
ATOM     21  N   UNL     1      34.761 -16.569 -22.964  0.00  0.00    -0.173 N 
ATOM     22  N   UNL     1      34.926 -15.220 -23.053  0.00  0.00    -0.138 NA
ATOM     23  C   UNL     1      34.872 -18.649 -22.320  0.00  0.00    +0.187 C 
ATOM     24  C   UNL     1      35.311 -17.384 -22.010  0.00  0.00    +0.193 C 
ATOM     25  C   UNL     1      34.016 -17.375 -23.808  0.00  0.00    +0.204 C 
ATOM     26  C   UNL     1      33.349 -16.742 -24.884  0.00  0.00    +0.054 C 
ATOM     27  C   UNL     1      34.291 -14.705 -24.056  0.00  0.00    +0.245 C 
ATOM     28  C   UNL     1      33.457 -15.418 -25.047  0.00  0.00    +0.063 C 
ATOM     29  O   UNL     1      36.565 -19.076 -19.868  0.00  0.00    -0.275 OA
ATOM     30  N   UNL     1      35.173 -19.800 -21.632  0.00  0.00    -0.261 N 
ATOM     31  C   UNL     1      35.975 -19.955 -20.482  0.00  0.00    +0.227 C 
ATOM     32  H   UNL     1      34.775 -20.626 -21.989  0.00  0.00    +0.157 HD
BRANCH  31  33
ATOM     33  C   UNL     1      36.087 -21.365 -19.990  0.00  0.00    +0.077 C 
ATOM     34  C   UNL     1      35.038 -21.898 -19.059  0.00  0.00    +0.010 C 
ATOM     35  C   UNL     1      36.418 -21.608 -18.546  0.00  0.00    +0.010 C 
ENDBRANCH  31  33
ENDBRANCH  19  27
ENDBRANCH   2  19
TORSDOF 5
ENDMDL
MODEL 2
REMARK VINA RESULT:     -12.1      3.702     12.860
REMARK  Name = 24767976
REMARK  5 active torsions:
REMARK  status: ('A' for Active; 'I' for Inactive)
REMARK    1  A    between atoms: C_1  and  N_9
REMARK    2  A    between atoms: C_2  and  O_19
REMARK    3  A    between atoms: C_10  and  C_14
REMARK    4  A    between atoms: O_19  and  C_27
REMARK    5  A    between atoms: C_31  and  C_33
REMARK                            x       y       z     vdW  Elec       q    Type
REMARK                         _______ _______ _______ _____ _____    ______ ____
ROOT
ATOM      1  C   UNL     1      34.981 -22.100 -18.045  0.00  0.00    +0.050 C 
ATOM      2  C   UNL     1      35.530 -20.729 -19.955  0.00  0.00    +0.148 C 
ATOM      3  C   UNL     1      33.625 -21.970 -18.341  0.00  0.00    -0.008 C 
ATOM      4  C   UNL     1      35.934 -21.479 -18.852  0.00  0.00    +0.052 C 
ATOM      5  C   UNL     1      33.221 -21.219 -19.445  0.00  0.00    +0.000 C 
ATOM      6  C   UNL     1      34.174 -20.598 -20.253  0.00  0.00    +0.037 C 
ATOM      7  C   UNL     1      32.582 -22.624 -17.494  0.00  0.00    +0.032 C 
ENDROOT
BRANCH   1   9
ATOM      8  O   UNL     1      36.889 -21.397 -15.841  0.00  0.00    -0.268 OA
ATOM      9  N   UNL     1      35.405 -22.849 -16.944  0.00  0.00    -0.279 N 
ATOM     10  C   UNL     1      36.303 -22.470 -15.940  0.00  0.00    +0.265 C 
ATOM     11  H   UNL     1      35.026 -23.755 -16.866  0.00  0.00    +0.155 HD
BRANCH  10  14
ATOM     12  N   UNL     1      35.648 -24.072 -14.088  0.00  0.00    -0.206 N 
ATOM     13  N   UNL     1      36.155 -24.984 -13.241  0.00  0.00    -0.182 NA
ATOM     14  C   UNL     1      36.579 -23.505 -14.908  0.00  0.00    +0.124 C 
ATOM     15  C   UNL     1      37.778 -24.086 -14.575  0.00  0.00    +0.037 C 
ATOM     16  C   UNL     1      37.456 -24.988 -13.543  0.00  0.00    +0.078 C 
ATOM     17  C   UNL     1      34.232 -23.788 -14.055  0.00  0.00    +0.140 C 
ATOM     18  C   UNL     1      38.373 -25.881 -12.814  0.00  0.00    +0.054 C 
ENDBRANCH  10  14
ENDBRANCH   1   9
BRANCH   2  19
ATOM     19  O   UNL     1      36.482 -20.108 -20.762  0.00  0.00    -0.435 OA
BRANCH  19  27
ATOM     20  N   UNL     1      34.053 -16.816 -24.185  0.00  0.00    -0.373 NA
ATOM     21  N   UNL     1      35.163 -17.270 -22.304  0.00  0.00    -0.173 N 
ATOM     22  N   UNL     1      35.812 -17.974 -21.335  0.00  0.00    -0.138 NA
ATOM     23  C   UNL     1      34.256 -15.665 -23.467  0.00  0.00    +0.187 C 
ATOM     24  C   UNL     1      34.938 -15.918 -22.302  0.00  0.00    +0.193 C 
ATOM     25  C   UNL     1      34.607 -17.773 -23.468  0.00  0.00    +0.204 C 
ATOM     26  C   UNL     1      34.718 -19.167 -23.688  0.00  0.00    +0.054 C 
ATOM     27  C   UNL     1      35.879 -19.239 -21.597  0.00  0.00    +0.245 C 
ATOM     28  C   UNL     1      35.341 -19.934 -22.786  0.00  0.00    +0.063 C 
ATOM     29  O   UNL     1      34.503 -12.948 -22.194  0.00  0.00    -0.275 OA
ATOM     30  N   UNL     1      33.816 -14.434 -23.895  0.00  0.00    -0.261 N 
ATOM     31  C   UNL     1      33.954 -13.181 -23.263  0.00  0.00    +0.227 C 
ATOM     32  H   UNL     1      33.341 -14.427 -24.756  0.00  0.00    +0.157 HD
BRANCH  31  33
ATOM     33  C   UNL     1      33.351 -12.036 -24.017  0.00  0.00    +0.077 C 
ATOM     34  C   UNL     1      34.228 -11.212 -24.913  0.00  0.00    +0.010 C 
ATOM     35  C   UNL     1      33.716 -10.634 -23.626  0.00  0.00    +0.010 C 
ENDBRANCH  31  33
ENDBRANCH  19  27
ENDBRANCH   2  19
TORSDOF 5
ENDMDL
MODEL 3
REMARK VINA RESULT:     -11.8      3.332     12.394
REMARK  Name = 24767976
REMARK  5 active torsions:
REMARK  status: ('A' for Active; 'I' for Inactive)
REMARK    1  A    between atoms: C_1  and  N_9
REMARK    2  A    between atoms: C_2  and  O_19
REMARK    3  A    between atoms: C_10  and  C_14
REMARK    4  A    between atoms: O_19  and  C_27
REMARK    5  A    between atoms: C_31  and  C_33
REMARK                            x       y       z     vdW  Elec       q    Type
REMARK                         _______ _______ _______ _____ _____    ______ ____
ROOT
ATOM      1  C   UNL     1      35.360 -21.354 -18.881  0.00  0.00    +0.050 C 
ATOM      2  C   UNL     1      35.659 -19.707 -20.621  0.00  0.00    +0.148 C 
ATOM      3  C   UNL     1      34.003 -21.436 -19.190  0.00  0.00    -0.008 C 
ATOM      4  C   UNL     1      36.188 -20.489 -19.596  0.00  0.00    +0.052 C 
ATOM      5  C   UNL     1      33.473 -20.652 -20.216  0.00  0.00    +0.000 C 
ATOM      6  C   UNL     1      34.301 -19.788 -20.931  0.00  0.00    +0.037 C 
ATOM      7  C   UNL     1      33.093 -22.353 -18.439  0.00  0.00    +0.032 C 
ENDROOT
BRANCH   1   9
ATOM      8  O   UNL     1      37.207 -20.590 -16.645  0.00  0.00    -0.268 OA
ATOM      9  N   UNL     1      35.910 -22.131 -17.857  0.00  0.00    -0.279 N 
ATOM     10  C   UNL     1      36.772 -21.721 -16.834  0.00  0.00    +0.265 C 
ATOM     11  H   UNL     1      35.661 -23.084 -17.857  0.00  0.00    +0.155 HD
BRANCH  10  14
ATOM     12  N   UNL     1      36.415 -23.435 -15.000  0.00  0.00    -0.206 N 
ATOM     13  N   UNL     1      37.056 -24.368 -14.277  0.00  0.00    -0.182 NA
ATOM     14  C   UNL     1      37.212 -22.795 -15.904  0.00  0.00    +0.124 C 
ATOM     15  C   UNL     1      38.461 -23.348 -15.762  0.00  0.00    +0.037 C 
ATOM     16  C   UNL     1      38.305 -24.311 -14.746  0.00  0.00    +0.078 C 
ATOM     17  C   UNL     1      35.008 -23.203 -14.768  0.00  0.00    +0.140 C 
ATOM     18  C   UNL     1      39.336 -25.205 -14.192  0.00  0.00    +0.054 C 
ENDBRANCH  10  14
ENDBRANCH   1   9
BRANCH   2  19
ATOM     19  O   UNL     1      36.485 -18.843 -21.336  0.00  0.00    -0.435 OA
BRANCH  19  27
ATOM     20  N   UNL     1      33.656 -14.835 -23.430  0.00  0.00    -0.373 NA
ATOM     21  N   UNL     1      34.547 -15.968 -21.728  0.00  0.00    -0.173 N 
ATOM     22  N   UNL     1      35.237 -16.922 -21.043  0.00  0.00    -0.138 NA
ATOM     23  C   UNL     1      33.347 -14.222 -22.242  0.00  0.00    +0.187 C 
ATOM     24  C   UNL     1      33.885 -14.903 -21.177  0.00  0.00    +0.193 C 
ATOM     25  C   UNL     1      34.380 -15.885 -23.101  0.00  0.00    +0.204 C 
ATOM     26  C   UNL     1      34.984 -16.894 -23.888  0.00  0.00    +0.054 C 
ATOM     27  C   UNL     1      35.763 -17.812 -21.821  0.00  0.00    +0.245 C 
ATOM     28  C   UNL     1      35.681 -17.872 -23.295  0.00  0.00    +0.063 C 
ATOM     29  O   UNL     1      32.470 -12.604 -19.861  0.00  0.00    -0.275 OA
ATOM     30  N   UNL     1      32.592 -13.075 -22.171  0.00  0.00    -0.261 N 
ATOM     31  C   UNL     1      32.203 -12.347 -21.027  0.00  0.00    +0.227 C 
ATOM     32  H   UNL     1      32.282 -12.715 -23.031  0.00  0.00    +0.157 HD
BRANCH  31  33
ATOM     33  C   UNL     1      31.376 -11.133 -21.317  0.00  0.00    +0.077 C 
ATOM     34  C   UNL     1      32.064  -9.864 -21.728  0.00  0.00    +0.010 C 
ATOM     35  C   UNL     1      31.434  -9.970 -20.371  0.00  0.00    +0.010 C 
ENDBRANCH  31  33
ENDBRANCH  19  27
ENDBRANCH   2  19
TORSDOF 5
ENDMDL
MODEL 4
REMARK VINA RESULT:     -11.5      5.424      9.532
REMARK  Name = 24767976
REMARK  5 active torsions:
REMARK  status: ('A' for Active; 'I' for Inactive)
REMARK    1  A    between atoms: C_1  and  N_9
REMARK    2  A    between atoms: C_2  and  O_19
REMARK    3  A    between atoms: C_10  and  C_14
REMARK    4  A    between atoms: O_19  and  C_27
REMARK    5  A    between atoms: C_31  and  C_33
REMARK                            x       y       z     vdW  Elec       q    Type
REMARK                         _______ _______ _______ _____ _____    ______ ____
ROOT
ATOM      1  C   UNL     1      34.857 -19.228 -21.074  0.00  0.00    +0.050 C 
ATOM      2  C   UNL     1      34.077 -21.150 -19.836  0.00  0.00    +0.148 C 
ATOM      3  C   UNL     1      36.174 -19.555 -20.753  0.00  0.00    -0.008 C 
ATOM      4  C   UNL     1      33.808 -20.026 -20.616  0.00  0.00    +0.052 C 
ATOM      5  C   UNL     1      36.443 -20.681 -19.973  0.00  0.00    +0.000 C 
ATOM      6  C   UNL     1      35.394 -21.478 -19.515  0.00  0.00    +0.037 C 
ATOM      7  C   UNL     1      37.317 -18.719 -21.230  0.00  0.00    +0.032 C 
ENDROOT
BRANCH   1   9
ATOM      8  O   UNL     1      34.491 -18.971 -24.039  0.00  0.00    -0.268 OA
ATOM      9  N   UNL     1      34.568 -18.106 -21.855  0.00  0.00    -0.279 N 
ATOM     10  C   UNL     1      34.407 -18.042 -23.243  0.00  0.00    +0.265 C 
ATOM     11  H   UNL     1      34.465 -17.256 -21.368  0.00  0.00    +0.155 HD
BRANCH  10  14
ATOM     12  N   UNL     1      34.245 -15.516 -23.099  0.00  0.00    -0.206 N 
ATOM     13  N   UNL     1      33.935 -14.427 -23.823  0.00  0.00    -0.182 NA
ATOM     14  C   UNL     1      34.130 -16.687 -23.790  0.00  0.00    +0.124 C 
ATOM     15  C   UNL     1      33.716 -16.339 -25.052  0.00  0.00    +0.037 C 
ATOM     16  C   UNL     1      33.613 -14.935 -25.015  0.00  0.00    +0.078 C 
ATOM     17  C   UNL     1      34.652 -15.358 -21.722  0.00  0.00    +0.140 C 
ATOM     18  C   UNL     1      33.207 -14.037 -26.108  0.00  0.00    +0.054 C 
ENDBRANCH  10  14
ENDBRANCH   1   9
BRANCH   2  19
ATOM     19  O   UNL     1      33.031 -21.947 -19.378  0.00  0.00    -0.435 OA
BRANCH  19  27
ATOM     20  N   UNL     1      33.896 -23.676 -14.407  0.00  0.00    -0.373 NA
ATOM     21  N   UNL     1      34.561 -23.017 -16.431  0.00  0.00    -0.173 N 
ATOM     22  N   UNL     1      34.508 -22.577 -17.719  0.00  0.00    -0.138 NA
ATOM     23  C   UNL     1      35.265 -23.710 -14.488  0.00  0.00    +0.187 C 
ATOM     24  C   UNL     1      35.700 -23.309 -15.728  0.00  0.00    +0.193 C 
ATOM     25  C   UNL     1      33.489 -23.256 -15.588  0.00  0.00    +0.204 C 
ATOM     26  C   UNL     1      32.194 -23.022 -16.106  0.00  0.00    +0.054 C 
ATOM     27  C   UNL     1      33.297 -22.382 -18.131  0.00  0.00    +0.245 C 
ATOM     28  C   UNL     1      32.050 -22.587 -17.364  0.00  0.00    +0.063 C 
ATOM     29  O   UNL     1      38.261 -23.916 -14.280  0.00  0.00    -0.275 OA
ATOM     30  N   UNL     1      36.063 -24.104 -13.440  0.00  0.00    -0.261 N 
ATOM     31  C   UNL     1      37.470 -24.185 -13.386  0.00  0.00    +0.227 C 
ATOM     32  H   UNL     1      35.589 -24.362 -12.617  0.00  0.00    +0.157 HD
BRANCH  31  33
ATOM     33  C   UNL     1      38.015 -24.655 -12.073  0.00  0.00    +0.077 C 
ATOM     34  C   UNL     1      37.740 -26.062 -11.630  0.00  0.00    +0.010 C 
ATOM     35  C   UNL     1      37.065 -24.914 -10.940  0.00  0.00    +0.010 C 
ENDBRANCH  31  33
ENDBRANCH  19  27
ENDBRANCH   2  19
TORSDOF 5
ENDMDL
MODEL 5
REMARK VINA RESULT:     -11.4      3.858     12.946
REMARK  Name = 24767976
REMARK  5 active torsions:
REMARK  status: ('A' for Active; 'I' for Inactive)
REMARK    1  A    between atoms: C_1  and  N_9
REMARK    2  A    between atoms: C_2  and  O_19
REMARK    3  A    between atoms: C_10  and  C_14
REMARK    4  A    between atoms: O_19  and  C_27
REMARK    5  A    between atoms: C_31  and  C_33
REMARK                            x       y       z     vdW  Elec       q    Type
REMARK                         _______ _______ _______ _____ _____    ______ ____
ROOT
ATOM      1  C   UNL     1      34.923 -22.149 -17.664  0.00  0.00    +0.050 C 
ATOM      2  C   UNL     1      35.556 -20.881 -19.619  0.00  0.00    +0.148 C 
ATOM      3  C   UNL     1      33.599 -22.164 -18.102  0.00  0.00    -0.008 C 
ATOM      4  C   UNL     1      35.902 -21.507 -18.422  0.00  0.00    +0.052 C 
ATOM      5  C   UNL     1      33.254 -21.537 -19.300  0.00  0.00    +0.000 C 
ATOM      6  C   UNL     1      34.233 -20.895 -20.058  0.00  0.00    +0.037 C 
ATOM      7  C   UNL     1      32.529 -22.844 -17.309  0.00  0.00    +0.032 C 
ENDROOT
BRANCH   1   9
ATOM      8  O   UNL     1      37.331 -21.743 -15.924  0.00  0.00    -0.268 OA
ATOM      9  N   UNL     1      35.288 -22.772 -16.468  0.00  0.00    -0.279 N 
ATOM     10  C   UNL     1      36.431 -22.544 -15.692  0.00  0.00    +0.265 C 
ATOM     11  H   UNL     1      34.666 -23.457 -16.129  0.00  0.00    +0.155 HD
BRANCH  10  14
ATOM     12  N   UNL     1      37.626 -24.177 -14.167  0.00  0.00    -0.206 N 
ATOM     13  N   UNL     1      37.491 -24.846 -13.009  0.00  0.00    -0.182 NA
ATOM     14  C   UNL     1      36.555 -23.391 -14.477  0.00  0.00    +0.124 C 
ATOM     15  C   UNL     1      35.657 -23.557 -13.451  0.00  0.00    +0.037 C 
ATOM     16  C   UNL     1      36.287 -24.463 -12.576  0.00  0.00    +0.078 C 
ATOM     17  C   UNL     1      38.834 -24.343 -14.942  0.00  0.00    +0.140 C 
ATOM     18  C   UNL     1      35.764 -24.991 -11.305  0.00  0.00    +0.054 C 
ENDBRANCH  10  14
ENDBRANCH   1   9
BRANCH   2  19
ATOM     19  O   UNL     1      36.533 -20.240 -20.377  0.00  0.00    -0.435 OA
BRANCH  19  27
ATOM     20  N   UNL     1      34.210 -17.048 -23.965  0.00  0.00    -0.373 NA
ATOM     21  N   UNL     1      35.216 -17.456 -22.016  0.00  0.00    -0.173 N 
ATOM     22  N   UNL     1      35.828 -18.132 -21.004  0.00  0.00    -0.138 NA
ATOM     23  C   UNL     1      34.328 -15.888 -23.243  0.00  0.00    +0.187 C 
ATOM     24  C   UNL     1      34.945 -16.113 -22.036  0.00  0.00    +0.193 C 
ATOM     25  C   UNL     1      34.751 -17.983 -23.209  0.00  0.00    +0.204 C 
ATOM     26  C   UNL     1      34.923 -19.372 -23.413  0.00  0.00    +0.054 C 
ATOM     27  C   UNL     1      35.954 -19.395 -21.254  0.00  0.00    +0.245 C 
ATOM     28  C   UNL     1      35.515 -20.114 -22.469  0.00  0.00    +0.063 C 
ATOM     29  O   UNL     1      34.403 -13.159 -21.975  0.00  0.00    -0.275 OA
ATOM     30  N   UNL     1      33.873 -14.675 -23.705  0.00  0.00    -0.261 N 
ATOM     31  C   UNL     1      33.929 -13.415 -23.074  0.00  0.00    +0.227 C 
ATOM     32  H   UNL     1      33.454 -14.688 -24.594  0.00  0.00    +0.157 HD
BRANCH  31  33
ATOM     33  C   UNL     1      33.336 -12.295 -23.870  0.00  0.00    +0.077 C 
ATOM     34  C   UNL     1      34.180 -11.607 -24.903  0.00  0.00    +0.010 C 
ATOM     35  C   UNL     1      33.820 -10.895 -23.632  0.00  0.00    +0.010 C 
ENDBRANCH  31  33
ENDBRANCH  19  27
ENDBRANCH   2  19
TORSDOF 5
ENDMDL
MODEL 6
REMARK VINA RESULT:     -11.2      3.040      6.441
REMARK  Name = 24767976
REMARK  5 active torsions:
REMARK  status: ('A' for Active; 'I' for Inactive)
REMARK    1  A    between atoms: C_1  and  N_9
REMARK    2  A    between atoms: C_2  and  O_19
REMARK    3  A    between atoms: C_10  and  C_14
REMARK    4  A    between atoms: O_19  and  C_27
REMARK    5  A    between atoms: C_31  and  C_33
REMARK                            x       y       z     vdW  Elec       q    Type
REMARK                         _______ _______ _______ _____ _____    ______ ____
ROOT
ATOM      1  C   UNL     1      34.316 -16.685 -23.439  0.00  0.00    +0.050 C 
ATOM      2  C   UNL     1      35.463 -18.610 -22.538  0.00  0.00    +0.148 C 
ATOM      3  C   UNL     1      33.789 -17.476 -24.459  0.00  0.00    -0.008 C 
ATOM      4  C   UNL     1      35.154 -17.252 -22.479  0.00  0.00    +0.052 C 
ATOM      5  C   UNL     1      34.098 -18.835 -24.519  0.00  0.00    +0.000 C 
ATOM      6  C   UNL     1      34.936 -19.402 -23.558  0.00  0.00    +0.037 C 
ATOM      7  C   UNL     1      32.889 -16.895 -25.502  0.00  0.00    +0.032 C 
ENDROOT
BRANCH   1   9
ATOM      8  O   UNL     1      34.269 -14.842 -21.075  0.00  0.00    -0.268 OA
ATOM      9  N   UNL     1      34.017 -15.322 -23.362  0.00  0.00    -0.279 N 
ATOM     10  C   UNL     1      34.009 -14.506 -22.225  0.00  0.00    +0.265 C 
ATOM     11  H   UNL     1      33.781 -14.883 -24.212  0.00  0.00    +0.155 HD
BRANCH  10  14
ATOM     12  N   UNL     1      32.667 -12.406 -21.762  0.00  0.00    -0.206 N 
ATOM     13  N   UNL     1      32.502 -11.137 -22.172  0.00  0.00    -0.182 NA
ATOM     14  C   UNL     1      33.618 -13.091 -22.461  0.00  0.00    +0.124 C 
ATOM     15  C   UNL     1      34.108 -12.209 -23.392  0.00  0.00    +0.037 C 
ATOM     16  C   UNL     1      33.385 -11.022 -23.167  0.00  0.00    +0.078 C 
ATOM     17  C   UNL     1      31.862 -12.907 -20.672  0.00  0.00    +0.140 C 
ATOM     18  C   UNL     1      33.510  -9.745 -23.890  0.00  0.00    +0.054 C 
ENDBRANCH  10  14
ENDBRANCH   1   9
BRANCH   2  19
ATOM     19  O   UNL     1      36.300 -19.177 -21.580  0.00  0.00    -0.435 OA
BRANCH  19  27
ATOM     20  N   UNL     1      33.274 -22.074 -18.277  0.00  0.00    -0.373 NA
ATOM     21  N   UNL     1      35.222 -21.258 -18.995  0.00  0.00    -0.173 N 
ATOM     22  N   UNL     1      36.126 -20.569 -19.745  0.00  0.00    -0.138 NA
ATOM     23  C   UNL     1      34.296 -22.522 -17.479  0.00  0.00    +0.187 C 
ATOM     24  C   UNL     1      35.508 -22.033 -17.902  0.00  0.00    +0.193 C 
ATOM     25  C   UNL     1      33.851 -21.314 -19.186  0.00  0.00    +0.204 C 
ATOM     26  C   UNL     1      33.319 -20.580 -20.273  0.00  0.00    +0.054 C 
ATOM     27  C   UNL     1      35.575 -19.921 -20.720  0.00  0.00    +0.245 C 
ATOM     28  C   UNL     1      34.138 -19.874 -21.062  0.00  0.00    +0.063 C 
ATOM     29  O   UNL     1      36.251 -23.702 -15.518  0.00  0.00    -0.275 OA
ATOM     30  N   UNL     1      34.091 -23.354 -16.404  0.00  0.00    -0.261 N 
ATOM     31  C   UNL     1      35.041 -23.886 -15.508  0.00  0.00    +0.227 C 
ATOM     32  H   UNL     1      33.157 -23.612 -16.238  0.00  0.00    +0.157 HD
BRANCH  31  33
ATOM     33  C   UNL     1      34.464 -24.762 -14.440  0.00  0.00    +0.077 C 
ATOM     34  C   UNL     1      33.547 -24.158 -13.417  0.00  0.00    +0.010 C 
ATOM     35  C   UNL     1      34.929 -24.589 -13.024  0.00  0.00    +0.010 C 
ENDBRANCH  31  33
ENDBRANCH  19  27
ENDBRANCH   2  19
TORSDOF 5
ENDMDL
MODEL 7
REMARK VINA RESULT:     -10.5      6.232     14.270
REMARK  Name = 24767976
REMARK  5 active torsions:
REMARK  status: ('A' for Active; 'I' for Inactive)
REMARK    1  A    between atoms: C_1  and  N_9
REMARK    2  A    between atoms: C_2  and  O_19
REMARK    3  A    between atoms: C_10  and  C_14
REMARK    4  A    between atoms: O_19  and  C_27
REMARK    5  A    between atoms: C_31  and  C_33
REMARK                            x       y       z     vdW  Elec       q    Type
REMARK                         _______ _______ _______ _____ _____    ______ ____
ROOT
ATOM      1  C   UNL     1      34.235 -23.953 -15.108  0.00  0.00    +0.050 C 
ATOM      2  C   UNL     1      32.838 -23.370 -16.991  0.00  0.00    +0.148 C 
ATOM      3  C   UNL     1      33.257 -23.478 -14.235  0.00  0.00    -0.008 C 
ATOM      4  C   UNL     1      34.026 -23.898 -16.487  0.00  0.00    +0.052 C 
ATOM      5  C   UNL     1      32.068 -22.949 -14.740  0.00  0.00    +0.000 C 
ATOM      6  C   UNL     1      31.859 -22.894 -16.118  0.00  0.00    +0.037 C 
ATOM      7  C   UNL     1      33.454 -23.523 -12.754  0.00  0.00    +0.032 C 
ENDROOT
BRANCH   1   9
ATOM      8  O   UNL     1      36.919 -22.671 -14.733  0.00  0.00    -0.268 OA
ATOM      9  N   UNL     1      35.431 -24.487 -14.622  0.00  0.00    -0.279 N 
ATOM     10  C   UNL     1      36.662 -23.841 -14.467  0.00  0.00    +0.265 C 
ATOM     11  H   UNL     1      35.404 -25.436 -14.357  0.00  0.00    +0.155 HD
BRANCH  10  14
ATOM     12  N   UNL     1      37.790 -25.295 -12.724  0.00  0.00    -0.206 N 
ATOM     13  N   UNL     1      38.905 -26.009 -12.495  0.00  0.00    -0.182 NA
ATOM     14  C   UNL     1      37.766 -24.690 -13.947  0.00  0.00    +0.124 C 
ATOM     15  C   UNL     1      38.947 -25.032 -14.559  0.00  0.00    +0.037 C 
ATOM     16  C   UNL     1      39.608 -25.845 -13.618  0.00  0.00    +0.078 C 
ATOM     17  C   UNL     1      36.767 -25.235 -11.706  0.00  0.00    +0.140 C 
ATOM     18  C   UNL     1      40.924 -26.490 -13.759  0.00  0.00    +0.054 C 
ENDBRANCH  10  14
ENDBRANCH   1   9
BRANCH   2  19
ATOM     19  O   UNL     1      32.629 -23.315 -18.367  0.00  0.00    -0.435 OA
BRANCH  19  27
ATOM     20  N   UNL     1      35.915 -19.647 -20.416  0.00  0.00    -0.373 NA
ATOM     21  N   UNL     1      33.973 -20.737 -20.296  0.00  0.00    -0.173 N 
ATOM     22  N   UNL     1      33.020 -21.619 -19.885  0.00  0.00    -0.138 NA
ATOM     23  C   UNL     1      35.042 -19.159 -21.354  0.00  0.00    +0.187 C 
ATOM     24  C   UNL     1      33.836 -19.816 -21.301  0.00  0.00    +0.193 C 
ATOM     25  C   UNL     1      35.254 -20.597 -19.787  0.00  0.00    +0.204 C 
ATOM     26  C   UNL     1      35.626 -21.458 -18.727  0.00  0.00    +0.054 C 
ATOM     27  C   UNL     1      33.424 -22.374 -18.915  0.00  0.00    +0.245 C 
ATOM     28  C   UNL     1      34.750 -22.356 -18.261  0.00  0.00    +0.063 C 
ATOM     29  O   UNL     1      33.424 -17.833 -23.519  0.00  0.00    -0.275 OA
ATOM     30  N   UNL     1      35.370 -18.142 -22.219  0.00  0.00    -0.261 N 
ATOM     31  C   UNL     1      34.577 -17.549 -23.223  0.00  0.00    +0.227 C 
ATOM     32  H   UNL     1      36.279 -17.779 -22.124  0.00  0.00    +0.157 HD
BRANCH  31  33
ATOM     33  C   UNL     1      35.257 -16.454 -23.985  0.00  0.00    +0.077 C 
ATOM     34  C   UNL     1      34.802 -15.037 -23.787  0.00  0.00    +0.010 C 
ATOM     35  C   UNL     1      34.505 -15.749 -25.075  0.00  0.00    +0.010 C 
ENDBRANCH  31  33
ENDBRANCH  19  27
ENDBRANCH   2  19
TORSDOF 5
ENDMDL
MODEL 8
REMARK VINA RESULT:     -10.1      8.627     13.129
REMARK  Name = 24767976
REMARK  5 active torsions:
REMARK  status: ('A' for Active; 'I' for Inactive)
REMARK    1  A    between atoms: C_1  and  N_9
REMARK    2  A    between atoms: C_2  and  O_19
REMARK    3  A    between atoms: C_10  and  C_14
REMARK    4  A    between atoms: O_19  and  C_27
REMARK    5  A    between atoms: C_31  and  C_33
REMARK                            x       y       z     vdW  Elec       q    Type
REMARK                         _______ _______ _______ _____ _____    ______ ____
ROOT
ATOM      1  C   UNL     1      36.061 -22.439 -16.428  0.00  0.00    +0.050 C 
ATOM      2  C   UNL     1      35.298 -24.134 -14.886  0.00  0.00    +0.148 C 
ATOM      3  C   UNL     1      37.257 -22.332 -15.721  0.00  0.00    -0.008 C 
ATOM      4  C   UNL     1      35.081 -23.340 -16.011  0.00  0.00    +0.052 C 
ATOM      5  C   UNL     1      37.474 -23.127 -14.594  0.00  0.00    +0.000 C 
ATOM      6  C   UNL     1      36.494 -24.028 -14.177  0.00  0.00    +0.037 C 
ATOM      7  C   UNL     1      38.324 -21.376 -16.144  0.00  0.00    +0.032 C 
ENDROOT
BRANCH   1   9
ATOM      8  O   UNL     1      34.624 -23.091 -18.978  0.00  0.00    -0.268 OA
ATOM      9  N   UNL     1      35.825 -21.652 -17.559  0.00  0.00    -0.279 N 
ATOM     10  C   UNL     1      35.145 -22.009 -18.729  0.00  0.00    +0.265 C 
ATOM     11  H   UNL     1      36.183 -20.735 -17.529  0.00  0.00    +0.155 HD
BRANCH  10  14
ATOM     12  N   UNL     1      33.940 -20.433 -20.306  0.00  0.00    -0.206 N 
ATOM     13  N   UNL     1      34.156 -19.490 -21.239  0.00  0.00    -0.182 NA
ATOM     14  C   UNL     1      35.083 -20.954 -19.776  0.00  0.00    +0.124 C 
ATOM     15  C   UNL     1      36.118 -20.309 -20.406  0.00  0.00    +0.037 C 
ATOM     16  C   UNL     1      35.488 -19.418 -21.296  0.00  0.00    +0.078 C 
ATOM     17  C   UNL     1      32.582 -20.792 -19.965  0.00  0.00    +0.140 C 
ATOM     18  C   UNL     1      36.131 -18.474 -22.225  0.00  0.00    +0.054 C 
ENDBRANCH  10  14
ENDBRANCH   1   9
BRANCH   2  19
ATOM     19  O   UNL     1      34.319 -25.033 -14.469  0.00  0.00    -0.435 OA
BRANCH  19  27
ATOM     20  N   UNL     1      29.645 -22.511 -13.969  0.00  0.00    -0.373 NA
ATOM     21  N   UNL     1      31.148 -23.719 -15.091  0.00  0.00    -0.173 N 
ATOM     22  N   UNL     1      32.291 -24.403 -15.375  0.00  0.00    -0.138 NA
ATOM     23  C   UNL     1      29.177 -22.798 -15.226  0.00  0.00    +0.187 C 
ATOM     24  C   UNL     1      30.086 -23.542 -15.939  0.00  0.00    +0.193 C 
ATOM     25  C   UNL     1      30.835 -23.075 -13.906  0.00  0.00    +0.204 C 
ATOM     26  C   UNL     1      31.798 -23.124 -12.870  0.00  0.00    +0.054 C 
ATOM     27  C   UNL     1      33.127 -24.410 -14.388  0.00  0.00    +0.245 C 
ATOM     28  C   UNL     1      32.951 -23.776 -13.064  0.00  0.00    +0.063 C 
ATOM     29  O   UNL     1      27.815 -23.218 -17.877  0.00  0.00    -0.275 OA
ATOM     30  N   UNL     1      27.949 -22.375 -15.677  0.00  0.00    -0.261 N 
ATOM     31  C   UNL     1      27.347 -22.595 -16.933  0.00  0.00    +0.227 C 
ATOM     32  H   UNL     1      27.419 -21.848 -15.037  0.00  0.00    +0.157 HD
BRANCH  31  33
ATOM     33  C   UNL     1      25.988 -21.987 -17.086  0.00  0.00    +0.077 C 
ATOM     34  C   UNL     1      25.569 -21.466 -18.430  0.00  0.00    +0.010 C 
ATOM     35  C   UNL     1      25.872 -20.509 -17.314  0.00  0.00    +0.010 C 
ENDBRANCH  31  33
ENDBRANCH  19  27
ENDBRANCH   2  19
TORSDOF 5
ENDMDL
MODEL 9
REMARK VINA RESULT:     -10.1      5.476     13.434
REMARK  Name = 24767976
REMARK  5 active torsions:
REMARK  status: ('A' for Active; 'I' for Inactive)
REMARK    1  A    between atoms: C_1  and  N_9
REMARK    2  A    between atoms: C_2  and  O_19
REMARK    3  A    between atoms: C_10  and  C_14
REMARK    4  A    between atoms: O_19  and  C_27
REMARK    5  A    between atoms: C_31  and  C_33
REMARK                            x       y       z     vdW  Elec       q    Type
REMARK                         _______ _______ _______ _____ _____    ______ ____
ROOT
ATOM      1  C   UNL     1      34.347 -22.799 -16.987  0.00  0.00    +0.050 C 
ATOM      2  C   UNL     1      35.073 -22.010 -19.151  0.00  0.00    +0.148 C 
ATOM      3  C   UNL     1      33.025 -22.512 -17.325  0.00  0.00    -0.008 C 
ATOM      4  C   UNL     1      35.371 -22.548 -17.900  0.00  0.00    +0.052 C 
ATOM      5  C   UNL     1      32.727 -21.973 -18.577  0.00  0.00    +0.000 C 
ATOM      6  C   UNL     1      33.751 -21.722 -19.490  0.00  0.00    +0.037 C 
ATOM      7  C   UNL     1      31.907 -22.770 -16.366  0.00  0.00    +0.032 C 
ENDROOT
BRANCH   1   9
ATOM      8  O   UNL     1      36.992 -23.034 -15.594  0.00  0.00    -0.268 OA
ATOM      9  N   UNL     1      34.665 -23.340 -15.738  0.00  0.00    -0.279 N 
ATOM     10  C   UNL     1      35.924 -23.425 -15.133  0.00  0.00    +0.265 C 
ATOM     11  H   UNL     1      33.911 -23.707 -15.221  0.00  0.00    +0.155 HD
BRANCH  10  14
ATOM     12  N   UNL     1      36.350 -25.366 -13.560  0.00  0.00    -0.206 N 
ATOM     13  N   UNL     1      36.274 -25.724 -12.267  0.00  0.00    -0.182 NA
ATOM     14  C   UNL     1      35.947 -24.085 -13.801  0.00  0.00    +0.124 C 
ATOM     15  C   UNL     1      35.582 -23.570 -12.582  0.00  0.00    +0.037 C 
ATOM     16  C   UNL     1      35.805 -24.623 -11.674  0.00  0.00    +0.078 C 
ATOM     17  C   UNL     1      36.828 -26.322 -14.531  0.00  0.00    +0.140 C 
ATOM     18  C   UNL     1      35.579 -24.615 -10.219  0.00  0.00    +0.054 C 
ENDBRANCH  10  14
ENDBRANCH   1   9
BRANCH   2  19
ATOM     19  O   UNL     1      36.095 -21.758 -20.063  0.00  0.00    -0.435 OA
BRANCH  19  27
ATOM     20  N   UNL     1      35.546 -16.880 -22.150  0.00  0.00    -0.373 NA
ATOM     21  N   UNL     1      35.090 -19.061 -22.034  0.00  0.00    -0.173 N 
ATOM     22  N   UNL     1      35.118 -20.357 -21.617  0.00  0.00    -0.138 NA
ATOM     23  C   UNL     1      34.632 -17.224 -23.114  0.00  0.00    +0.187 C 
ATOM     24  C   UNL     1      34.335 -18.564 -23.064  0.00  0.00    +0.193 C 
ATOM     25  C   UNL     1      35.810 -18.001 -21.509  0.00  0.00    +0.204 C 
ATOM     26  C   UNL     1      36.672 -18.280 -20.422  0.00  0.00    +0.054 C 
ATOM     27  C   UNL     1      35.924 -20.544 -20.622  0.00  0.00    +0.245 C 
ATOM     28  C   UNL     1      36.761 -19.529 -19.947  0.00  0.00    +0.063 C 
ATOM     29  O   UNL     1      32.634 -17.583 -25.337  0.00  0.00    -0.275 OA
ATOM     30  N   UNL     1      34.106 -16.312 -23.999  0.00  0.00    -0.261 N 
ATOM     31  C   UNL     1      33.168 -16.526 -25.030  0.00  0.00    +0.227 C 
ATOM     32  H   UNL     1      34.426 -15.388 -23.899  0.00  0.00    +0.157 HD
BRANCH  31  33
ATOM     33  C   UNL     1      32.810 -15.297 -25.808  0.00  0.00    +0.077 C 
ATOM     34  C   UNL     1      33.907 -14.480 -26.425  0.00  0.00    +0.010 C 
ATOM     35  C   UNL     1      33.152 -13.950 -25.242  0.00  0.00    +0.010 C 
ENDBRANCH  31  33
ENDBRANCH  19  27
ENDBRANCH   2  19
TORSDOF 5
ENDMDL
