MODEL 1
REMARK VINA RESULT:     -12.3      0.000      0.000
REMARK  Name = 448889
REMARK  5 active torsions:
REMARK  status: ('A' for Active; 'I' for Inactive)
REMARK    1  A    between atoms: C_1  and  N_2
REMARK    2  A    between atoms: C_1  and  C_16
REMARK    3  A    between atoms: C_6  and  C_10
REMARK    4  A    between atoms: C_16  and  C_17
REMARK    5  A    between atoms: C_17  and  C_21
REMARK                            x       y       z     vdW  Elec       q    Type
REMARK                         _______ _______ _______ _____ _____    ______ ____
ROOT
ATOM      1  C   UNL     1      34.939 -15.805 -24.538  0.00  0.00    -0.076 C 
ENDROOT
BRANCH   1   2
ATOM      2  N   UNL     1      35.131 -16.928 -23.624  0.00  0.00    +0.390 N 
ATOM      3  C   UNL     1      34.183 -18.010 -23.911  0.00  0.00    -0.072 C 
ATOM      4  C   UNL     1      34.518 -19.238 -23.050  0.00  0.00    +0.003 C 
ATOM      5  C   UNL     1      35.010 -16.489 -22.225  0.00  0.00    -0.051 C 
ATOM      6  C   UNL     1      34.732 -18.897 -21.592  0.00  0.00    -0.031 C 
ATOM      7  C   UNL     1      34.956 -17.618 -21.231  0.00  0.00    -0.053 C 
ATOM      8  H   UNL     1      36.073 -17.290 -23.767  0.00  0.00    -0.079 HD
BRANCH   6  10
ATOM      9  F   UNL     1      34.587 -23.064 -17.832  0.00  0.00    -0.204 F 
ATOM     10  C   UNL     1      34.695 -19.996 -20.599  0.00  0.00    -0.004 C 
ATOM     11  C   UNL     1      35.884 -20.532 -20.100  0.00  0.00    +0.002 C 
ATOM     12  C   UNL     1      33.469 -20.500 -20.159  0.00  0.00    +0.002 C 
ATOM     13  C   UNL     1      35.848 -21.567 -19.165  0.00  0.00    +0.030 C 
ATOM     14  C   UNL     1      33.433 -21.535 -19.224  0.00  0.00    +0.030 C 
ATOM     15  C   UNL     1      34.622 -22.069 -18.728  0.00  0.00    +0.140 C 
ENDBRANCH   6  10
ENDBRANCH   1   2
BRANCH   1  16
ATOM     16  C   UNL     1      33.621 -15.090 -24.229  0.00  0.00    -0.014 C 
BRANCH  16  17
ATOM     17  C   UNL     1      33.757 -13.577 -24.256  0.00  0.00    +0.074 C 
BRANCH  17  21
ATOM     18  O   UNL     1      31.917 -13.960 -19.950  0.00  0.00    -0.209 OA
ATOM     19  N   UNL     1      33.021 -11.602 -22.999  0.00  0.00    -0.290 N 
ATOM     20  N   UNL     1      32.815 -13.780 -22.051  0.00  0.00    -0.322 NA
ATOM     21  C   UNL     1      33.158 -12.970 -23.012  0.00  0.00    +0.173 C 
ATOM     22  C   UNL     1      32.472 -10.985 -21.873  0.00  0.00    +0.058 C 
ATOM     23  C   UNL     1      32.077 -11.781 -20.789  0.00  0.00    +0.108 C 
ATOM     24  C   UNL     1      32.310  -9.599 -21.799  0.00  0.00    -0.008 C 
ATOM     25  C   UNL     1      32.264 -13.257 -20.894  0.00  0.00    +0.207 C 
ATOM     26  C   UNL     1      31.525 -11.203 -19.643  0.00  0.00    +0.014 C 
ATOM     27  C   UNL     1      31.758  -9.018 -20.655  0.00  0.00    -0.003 C 
ATOM     28  C   UNL     1      31.366  -9.819 -19.582  0.00  0.00    +0.001 C 
ATOM     29  C   UNL     1      32.715  -8.705 -22.925  0.00  0.00    +0.032 C 
ATOM     30  H   UNL     1      33.306 -11.065 -23.773  0.00  0.00    +0.154 HD
ENDBRANCH  17  21
ENDBRANCH  16  17
ENDBRANCH   1  16
TORSDOF 5
ENDMDL
MODEL 2
REMARK VINA RESULT:     -11.9      1.571      2.565
REMARK  Name = 448889
REMARK  5 active torsions:
REMARK  status: ('A' for Active; 'I' for Inactive)
REMARK    1  A    between atoms: C_1  and  N_2
REMARK    2  A    between atoms: C_1  and  C_16
REMARK    3  A    between atoms: C_6  and  C_10
REMARK    4  A    between atoms: C_16  and  C_17
REMARK    5  A    between atoms: C_17  and  C_21
REMARK                            x       y       z     vdW  Elec       q    Type
REMARK                         _______ _______ _______ _____ _____    ______ ____
ROOT
ATOM      1  C   UNL     1      34.818 -16.154 -24.619  0.00  0.00    -0.076 C 
ENDROOT
BRANCH   1   2
ATOM      2  N   UNL     1      34.538 -17.030 -23.483  0.00  0.00    +0.390 N 
ATOM      3  C   UNL     1      35.671 -17.069 -22.554  0.00  0.00    -0.072 C 
ATOM      4  C   UNL     1      35.286 -17.859 -21.294  0.00  0.00    +0.003 C 
ATOM      5  C   UNL     1      34.196 -18.385 -23.942  0.00  0.00    -0.051 C 
ATOM      6  C   UNL     1      34.622 -19.182 -21.606  0.00  0.00    -0.031 C 
ATOM      7  C   UNL     1      34.127 -19.406 -22.839  0.00  0.00    -0.053 C 
ATOM      8  H   UNL     1      33.735 -16.648 -22.984  0.00  0.00    -0.079 HD
BRANCH   6  10
ATOM      9  F   UNL     1      34.292 -23.024 -17.525  0.00  0.00    -0.204 F 
ATOM     10  C   UNL     1      34.534 -20.197 -20.529  0.00  0.00    -0.004 C 
ATOM     11  C   UNL     1      33.287 -20.620 -20.065  0.00  0.00    +0.002 C 
ATOM     12  C   UNL     1      35.699 -20.733 -19.976  0.00  0.00    +0.002 C 
ATOM     13  C   UNL     1      33.205 -21.575 -19.051  0.00  0.00    +0.030 C 
ATOM     14  C   UNL     1      35.616 -21.688 -18.962  0.00  0.00    +0.030 C 
ATOM     15  C   UNL     1      34.370 -22.108 -18.499  0.00  0.00    +0.140 C 
ENDBRANCH   6  10
ENDBRANCH   1   2
BRANCH   1  16
ATOM     16  C   UNL     1      33.762 -15.049 -24.707  0.00  0.00    -0.014 C 
BRANCH  16  17
ATOM     17  C   UNL     1      33.334 -14.541 -23.340  0.00  0.00    +0.074 C 
BRANCH  17  21
ATOM     18  O   UNL     1      34.943 -10.407 -24.889  0.00  0.00    -0.209 OA
ATOM     19  N   UNL     1      32.545 -12.422 -22.386  0.00  0.00    -0.290 N 
ATOM     20  N   UNL     1      34.162 -12.427 -24.138  0.00  0.00    -0.322 NA
ATOM     21  C   UNL     1      33.366 -13.033 -23.305  0.00  0.00    +0.173 C 
ATOM     22  C   UNL     1      32.533 -11.028 -22.308  0.00  0.00    +0.058 C 
ATOM     23  C   UNL     1      33.359 -10.294 -23.170  0.00  0.00    +0.108 C 
ATOM     24  C   UNL     1      31.719 -10.349 -21.397  0.00  0.00    -0.008 C 
ATOM     25  C   UNL     1      34.216 -11.044 -24.134  0.00  0.00    +0.207 C 
ATOM     26  C   UNL     1      33.375  -8.897 -23.125  0.00  0.00    +0.014 C 
ATOM     27  C   UNL     1      31.734  -8.954 -21.349  0.00  0.00    -0.003 C 
ATOM     28  C   UNL     1      32.560  -8.231 -22.210  0.00  0.00    +0.001 C 
ATOM     29  C   UNL     1      30.820 -11.083 -20.456  0.00  0.00    +0.032 C 
ATOM     30  H   UNL     1      31.975 -12.960 -21.792  0.00  0.00    +0.154 HD
ENDBRANCH  17  21
ENDBRANCH  16  17
ENDBRANCH   1  16
TORSDOF 5
ENDMDL
MODEL 3
REMARK VINA RESULT:     -11.8      1.303      1.878
REMARK  Name = 448889
REMARK  5 active torsions:
REMARK  status: ('A' for Active; 'I' for Inactive)
REMARK    1  A    between atoms: C_1  and  N_2
REMARK    2  A    between atoms: C_1  and  C_16
REMARK    3  A    between atoms: C_6  and  C_10
REMARK    4  A    between atoms: C_16  and  C_17
REMARK    5  A    between atoms: C_17  and  C_21
REMARK                            x       y       z     vdW  Elec       q    Type
REMARK                         _______ _______ _______ _____ _____    ______ ____
ROOT
ATOM      1  C   UNL     1      35.157 -16.065 -24.232  0.00  0.00    -0.076 C 
ENDROOT
BRANCH   1   2
ATOM      2  N   UNL     1      35.261 -17.214 -23.336  0.00  0.00    +0.390 N 
ATOM      3  C   UNL     1      34.199 -18.190 -23.602  0.00  0.00    -0.072 C 
ATOM      4  C   UNL     1      34.432 -19.456 -22.764  0.00  0.00    +0.003 C 
ATOM      5  C   UNL     1      35.229 -16.782 -21.930  0.00  0.00    -0.051 C 
ATOM      6  C   UNL     1      34.726 -19.157 -21.311  0.00  0.00    -0.031 C 
ATOM      7  C   UNL     1      35.090 -17.913 -20.945  0.00  0.00    -0.053 C 
ATOM      8  H   UNL     1      36.157 -17.669 -23.512  0.00  0.00    -0.079 HD
BRANCH   6  10
ATOM      9  F   UNL     1      34.270 -23.335 -17.587  0.00  0.00    -0.204 F 
ATOM     10  C   UNL     1      34.606 -20.259 -20.327  0.00  0.00    -0.004 C 
ATOM     11  C   UNL     1      35.753 -20.849 -19.792  0.00  0.00    +0.002 C 
ATOM     12  C   UNL     1      33.345 -20.712 -19.933  0.00  0.00    +0.002 C 
ATOM     13  C   UNL     1      35.640 -21.887 -18.866  0.00  0.00    +0.030 C 
ATOM     14  C   UNL     1      33.232 -21.750 -19.008  0.00  0.00    +0.030 C 
ATOM     15  C   UNL     1      34.379 -22.338 -18.475  0.00  0.00    +0.140 C 
ENDBRANCH   6  10
ENDBRANCH   1   2
BRANCH   1  16
ATOM     16  C   UNL     1      34.780 -14.810 -23.441  0.00  0.00    -0.014 C 
BRANCH  16  17
ATOM     17  C   UNL     1      33.331 -14.401 -23.653  0.00  0.00    +0.074 C 
BRANCH  17  21
ATOM     18  O   UNL     1      31.096 -11.194 -21.047  0.00  0.00    -0.209 OA
ATOM     19  N   UNL     1      33.924 -12.022 -23.765  0.00  0.00    -0.290 N 
ATOM     20  N   UNL     1      32.182 -12.763 -22.316  0.00  0.00    -0.322 NA
ATOM     21  C   UNL     1      33.113 -12.979 -23.199  0.00  0.00    +0.173 C 
ATOM     22  C   UNL     1      33.768 -10.688 -23.383  0.00  0.00    +0.058 C 
ATOM     23  C   UNL     1      32.789 -10.366 -22.434  0.00  0.00    +0.108 C 
ATOM     24  C   UNL     1      34.562  -9.671 -23.920  0.00  0.00    -0.008 C 
ATOM     25  C   UNL     1      31.956 -11.470 -21.876  0.00  0.00    +0.207 C 
ATOM     26  C   UNL     1      32.601  -9.043 -22.023  0.00  0.00    +0.014 C 
ATOM     27  C   UNL     1      34.377  -8.349 -23.512  0.00  0.00    -0.003 C 
ATOM     28  C   UNL     1      33.399  -8.036 -22.568  0.00  0.00    +0.001 C 
ATOM     29  C   UNL     1      35.621  -9.961 -24.934  0.00  0.00    +0.032 C 
ATOM     30  H   UNL     1      34.605 -12.275 -24.429  0.00  0.00    +0.154 HD
ENDBRANCH  17  21
ENDBRANCH  16  17
ENDBRANCH   1  16
TORSDOF 5
ENDMDL
MODEL 4
REMARK VINA RESULT:     -11.7      2.909      5.424
REMARK  Name = 448889
REMARK  5 active torsions:
REMARK  status: ('A' for Active; 'I' for Inactive)
REMARK    1  A    between atoms: C_1  and  N_2
REMARK    2  A    between atoms: C_1  and  C_16
REMARK    3  A    between atoms: C_6  and  C_10
REMARK    4  A    between atoms: C_16  and  C_17
REMARK    5  A    between atoms: C_17  and  C_21
REMARK                            x       y       z     vdW  Elec       q    Type
REMARK                         _______ _______ _______ _____ _____    ______ ____
ROOT
ATOM      1  C   UNL     1      35.674 -19.951 -21.100  0.00  0.00    -0.076 C 
ENDROOT
BRANCH   1   2
ATOM      2  N   UNL     1      35.161 -20.473 -19.836  0.00  0.00    +0.390 N 
ATOM      3  C   UNL     1      35.979 -21.591 -19.355  0.00  0.00    -0.072 C 
ATOM      4  C   UNL     1      35.519 -22.006 -17.949  0.00  0.00    +0.003 C 
ATOM      5  C   UNL     1      33.754 -20.879 -19.972  0.00  0.00    -0.051 C 
ATOM      6  C   UNL     1      34.020 -22.171 -17.842  0.00  0.00    -0.031 C 
ATOM      7  C   UNL     1      33.221 -21.645 -18.790  0.00  0.00    -0.053 C 
ATOM      8  H   UNL     1      35.214 -19.724 -19.144  0.00  0.00    -0.079 HD
BRANCH   6  10
ATOM      9  F   UNL     1      31.956 -24.975 -13.437  0.00  0.00    -0.204 F 
ATOM     10  C   UNL     1      33.474 -22.912 -16.680  0.00  0.00    -0.004 C 
ATOM     11  C   UNL     1      32.093 -23.039 -16.514  0.00  0.00    +0.002 C 
ATOM     12  C   UNL     1      34.340 -23.485 -15.747  0.00  0.00    +0.002 C 
ATOM     13  C   UNL     1      31.580 -23.736 -15.420  0.00  0.00    +0.030 C 
ATOM     14  C   UNL     1      33.827 -24.183 -14.652  0.00  0.00    +0.030 C 
ATOM     15  C   UNL     1      32.448 -24.307 -14.489  0.00  0.00    +0.140 C 
ENDBRANCH   6  10
ENDBRANCH   1   2
BRANCH   1  16
ATOM     16  C   UNL     1      34.527 -19.388 -21.944  0.00  0.00    -0.014 C 
BRANCH  16  17
ATOM     17  C   UNL     1      34.970 -18.999 -23.345  0.00  0.00    +0.074 C 
BRANCH  17  21
ATOM     18  O   UNL     1      33.659 -15.629 -26.345  0.00  0.00    -0.209 OA
ATOM     19  N   UNL     1      34.524 -16.709 -22.582  0.00  0.00    -0.290 N 
ATOM     20  N   UNL     1      34.299 -17.277 -24.887  0.00  0.00    -0.322 NA
ATOM     21  C   UNL     1      34.569 -17.577 -23.649  0.00  0.00    +0.173 C 
ATOM     22  C   UNL     1      34.159 -15.380 -22.804  0.00  0.00    +0.058 C 
ATOM     23  C   UNL     1      33.849 -14.971 -24.108  0.00  0.00    +0.108 C 
ATOM     24  C   UNL     1      34.093 -14.452 -21.761  0.00  0.00    -0.008 C 
ATOM     25  C   UNL     1      33.926 -15.982 -25.201  0.00  0.00    +0.207 C 
ATOM     26  C   UNL     1      33.477 -13.649 -24.372  0.00  0.00    +0.014 C 
ATOM     27  C   UNL     1      33.722 -13.131 -22.021  0.00  0.00    -0.003 C 
ATOM     28  C   UNL     1      33.417 -12.732 -23.323  0.00  0.00    +0.001 C 
ATOM     29  C   UNL     1      34.412 -14.836 -20.353  0.00  0.00    +0.032 C 
ATOM     30  H   UNL     1      34.746 -17.022 -21.676  0.00  0.00    +0.154 HD
ENDBRANCH  17  21
ENDBRANCH  16  17
ENDBRANCH   1  16
TORSDOF 5
ENDMDL
MODEL 5
REMARK VINA RESULT:     -11.6      4.740     10.438
REMARK  Name = 448889
REMARK  5 active torsions:
REMARK  status: ('A' for Active; 'I' for Inactive)
REMARK    1  A    between atoms: C_1  and  N_2
REMARK    2  A    between atoms: C_1  and  C_16
REMARK    3  A    between atoms: C_6  and  C_10
REMARK    4  A    between atoms: C_16  and  C_17
REMARK    5  A    between atoms: C_17  and  C_21
REMARK                            x       y       z     vdW  Elec       q    Type
REMARK                         _______ _______ _______ _____ _____    ______ ____
ROOT
ATOM      1  C   UNL     1      35.383 -20.316 -20.619  0.00  0.00    -0.076 C 
ENDROOT
BRANCH   1   2
ATOM      2  N   UNL     1      34.809 -19.200 -21.367  0.00  0.00    +0.390 N 
ATOM      3  C   UNL     1      35.025 -19.363 -22.808  0.00  0.00    -0.072 C 
ATOM      4  C   UNL     1      34.269 -18.267 -23.575  0.00  0.00    +0.003 C 
ATOM      5  C   UNL     1      35.363 -17.920 -20.900  0.00  0.00    -0.051 C 
ATOM      6  C   UNL     1      34.499 -16.884 -23.010  0.00  0.00    -0.031 C 
ATOM      7  C   UNL     1      35.008 -16.744 -21.771  0.00  0.00    -0.053 C 
ATOM      8  H   UNL     1      33.803 -19.195 -21.198  0.00  0.00    -0.079 HD
BRANCH   6  10
ATOM      9  F   UNL     1      33.155 -12.453 -26.186  0.00  0.00    -0.204 F 
ATOM     10  C   UNL     1      34.144 -15.714 -23.848  0.00  0.00    -0.004 C 
ATOM     11  C   UNL     1      34.169 -14.428 -23.304  0.00  0.00    +0.002 C 
ATOM     12  C   UNL     1      33.786 -15.894 -25.186  0.00  0.00    +0.002 C 
ATOM     13  C   UNL     1      33.835 -13.327 -24.093  0.00  0.00    +0.030 C 
ATOM     14  C   UNL     1      33.452 -14.793 -25.975  0.00  0.00    +0.030 C 
ATOM     15  C   UNL     1      33.476 -13.510 -25.429  0.00  0.00    +0.140 C 
ENDBRANCH   6  10
ENDBRANCH   1   2
BRANCH   1  16
ATOM     16  C   UNL     1      34.319 -20.955 -19.723  0.00  0.00    -0.014 C 
BRANCH  16  17
ATOM     17  C   UNL     1      34.795 -22.251 -19.086  0.00  0.00    +0.074 C 
BRANCH  17  21
ATOM     18  O   UNL     1      30.648 -22.566 -16.902  0.00  0.00    -0.209 OA
ATOM     19  N   UNL     1      34.625 -23.049 -16.772  0.00  0.00    -0.290 N 
ATOM     20  N   UNL     1      32.668 -22.410 -17.973  0.00  0.00    -0.322 NA
ATOM     21  C   UNL     1      33.954 -22.585 -17.879  0.00  0.00    +0.173 C 
ATOM     22  C   UNL     1      33.898 -23.375 -15.625  0.00  0.00    +0.058 C 
ATOM     23  C   UNL     1      32.506 -23.218 -15.638  0.00  0.00    +0.108 C 
ATOM     24  C   UNL     1      34.522 -23.853 -14.469  0.00  0.00    -0.008 C 
ATOM     25  C   UNL     1      31.866 -22.708 -16.885  0.00  0.00    +0.207 C 
ATOM     26  C   UNL     1      31.741 -23.534 -14.512  0.00  0.00    +0.014 C 
ATOM     27  C   UNL     1      33.761 -24.169 -13.342  0.00  0.00    -0.003 C 
ATOM     28  C   UNL     1      32.375 -24.009 -13.364  0.00  0.00    +0.001 C 
ATOM     29  C   UNL     1      36.003 -24.039 -14.402  0.00  0.00    +0.032 C 
ATOM     30  H   UNL     1      35.604 -23.150 -16.788  0.00  0.00    +0.154 HD
ENDBRANCH  17  21
ENDBRANCH  16  17
ENDBRANCH   1  16
TORSDOF 5
ENDMDL
MODEL 6
REMARK VINA RESULT:     -11.5      6.280     12.035
REMARK  Name = 448889
REMARK  5 active torsions:
REMARK  status: ('A' for Active; 'I' for Inactive)
REMARK    1  A    between atoms: C_1  and  N_2
REMARK    2  A    between atoms: C_1  and  C_16
REMARK    3  A    between atoms: C_6  and  C_10
REMARK    4  A    between atoms: C_16  and  C_17
REMARK    5  A    between atoms: C_17  and  C_21
REMARK                            x       y       z     vdW  Elec       q    Type
REMARK                         _______ _______ _______ _____ _____    ______ ____
ROOT
ATOM      1  C   UNL     1      34.609 -22.960 -17.202  0.00  0.00    -0.076 C 
ENDROOT
BRANCH   1   2
ATOM      2  N   UNL     1      34.587 -21.818 -18.113  0.00  0.00    +0.390 N 
ATOM      3  C   UNL     1      33.511 -21.951 -19.100  0.00  0.00    -0.072 C 
ATOM      4  C   UNL     1      33.406 -20.664 -19.933  0.00  0.00    +0.003 C 
ATOM      5  C   UNL     1      35.888 -21.658 -18.781  0.00  0.00    -0.051 C 
ATOM      6  C   UNL     1      34.743 -20.184 -20.452  0.00  0.00    -0.031 C 
ATOM      7  C   UNL     1      35.880 -20.659 -19.907  0.00  0.00    -0.053 C 
ATOM      8  H   UNL     1      34.405 -20.980 -17.560  0.00  0.00    -0.079 HD
BRANCH   6  10
ATOM      9  F   UNL     1      34.795 -16.422 -24.620  0.00  0.00    -0.204 F 
ATOM     10  C   UNL     1      34.756 -19.192 -21.552  0.00  0.00    -0.004 C 
ATOM     11  C   UNL     1      34.226 -19.522 -22.802  0.00  0.00    +0.002 C 
ATOM     12  C   UNL     1      35.298 -17.922 -21.343  0.00  0.00    +0.002 C 
ATOM     13  C   UNL     1      34.238 -18.587 -23.837  0.00  0.00    +0.030 C 
ATOM     14  C   UNL     1      35.310 -16.987 -22.378  0.00  0.00    +0.030 C 
ATOM     15  C   UNL     1      34.782 -17.320 -23.626  0.00  0.00    +0.140 C 
ENDBRANCH   6  10
ENDBRANCH   1   2
BRANCH   1  16
ATOM     16  C   UNL     1      33.246 -23.123 -16.525  0.00  0.00    -0.014 C 
BRANCH  16  17
ATOM     17  C   UNL     1      33.356 -23.225 -15.012  0.00  0.00    +0.074 C 
BRANCH  17  21
ATOM     18  O   UNL     1      36.130 -26.974 -15.575  0.00  0.00    -0.209 OA
ATOM     19  N   UNL     1      35.309 -23.598 -13.574  0.00  0.00    -0.290 N 
ATOM     20  N   UNL     1      34.773 -25.147 -15.305  0.00  0.00    -0.322 NA
ATOM     21  C   UNL     1      34.551 -24.060 -14.624  0.00  0.00    +0.173 C 
ATOM     22  C   UNL     1      36.428 -24.331 -13.172  0.00  0.00    +0.058 C 
ATOM     23  C   UNL     1      36.743 -25.515 -13.851  0.00  0.00    +0.108 C 
ATOM     24  C   UNL     1      37.239 -23.913 -12.113  0.00  0.00    -0.008 C 
ATOM     25  C   UNL     1      35.862 -25.937 -14.978  0.00  0.00    +0.207 C 
ATOM     26  C   UNL     1      37.855 -26.276 -13.481  0.00  0.00    +0.014 C 
ATOM     27  C   UNL     1      38.350 -24.671 -11.740  0.00  0.00    -0.003 C 
ATOM     28  C   UNL     1      38.656 -25.849 -12.421  0.00  0.00    +0.001 C 
ATOM     29  C   UNL     1      36.948 -22.658 -11.356  0.00  0.00    +0.032 C 
ATOM     30  H   UNL     1      35.066 -22.764 -13.113  0.00  0.00    +0.154 HD
ENDBRANCH  17  21
ENDBRANCH  16  17
ENDBRANCH   1  16
TORSDOF 5
ENDMDL
MODEL 7
REMARK VINA RESULT:     -11.5      5.258     10.557
REMARK  Name = 448889
REMARK  5 active torsions:
REMARK  status: ('A' for Active; 'I' for Inactive)
REMARK    1  A    between atoms: C_1  and  N_2
REMARK    2  A    between atoms: C_1  and  C_16
REMARK    3  A    between atoms: C_6  and  C_10
REMARK    4  A    between atoms: C_16  and  C_17
REMARK    5  A    between atoms: C_17  and  C_21
REMARK                            x       y       z     vdW  Elec       q    Type
REMARK                         _______ _______ _______ _____ _____    ______ ____
ROOT
ATOM      1  C   UNL     1      36.326 -21.450 -19.473  0.00  0.00    -0.076 C 
ENDROOT
BRANCH   1   2
ATOM      2  N   UNL     1      35.824 -20.221 -20.083  0.00  0.00    +0.390 N 
ATOM      3  C   UNL     1      34.825 -20.514 -21.116  0.00  0.00    -0.072 C 
ATOM      4  C   UNL     1      34.196 -19.205 -21.619  0.00  0.00    +0.003 C 
ATOM      5  C   UNL     1      36.929 -19.426 -20.640  0.00  0.00    -0.051 C 
ATOM      6  C   UNL     1      35.223 -18.146 -21.953  0.00  0.00    -0.031 C 
ATOM      7  C   UNL     1      36.483 -18.268 -21.492  0.00  0.00    -0.053 C 
ATOM      8  H   UNL     1      35.369 -19.672 -19.353  0.00  0.00    -0.079 HD
BRANCH   6  10
ATOM      9  F   UNL     1      33.617 -13.777 -25.092  0.00  0.00    -0.204 F 
ATOM     10  C   UNL     1      34.799 -16.992 -22.781  0.00  0.00    -0.004 C 
ATOM     11  C   UNL     1      34.717 -15.717 -22.218  0.00  0.00    +0.002 C 
ATOM     12  C   UNL     1      34.481 -17.177 -24.128  0.00  0.00    +0.002 C 
ATOM     13  C   UNL     1      34.319 -14.631 -22.998  0.00  0.00    +0.030 C 
ATOM     14  C   UNL     1      34.083 -16.091 -24.908  0.00  0.00    +0.030 C 
ATOM     15  C   UNL     1      34.001 -14.818 -24.343  0.00  0.00    +0.140 C 
ENDBRANCH   6  10
ENDBRANCH   1   2
BRANCH   1  16
ATOM     16  C   UNL     1      35.620 -21.705 -18.139  0.00  0.00    -0.014 C 
BRANCH  16  17
ATOM     17  C   UNL     1      34.294 -22.429 -18.310  0.00  0.00    +0.074 C 
BRANCH  17  21
ATOM     18  O   UNL     1      35.166 -24.513 -14.191  0.00  0.00    -0.209 OA
ATOM     19  N   UNL     1      32.485 -22.976 -16.745  0.00  0.00    -0.290 N 
ATOM     20  N   UNL     1      34.747 -23.497 -16.202  0.00  0.00    -0.322 NA
ATOM     21  C   UNL     1      33.837 -23.010 -16.995  0.00  0.00    +0.173 C 
ATOM     22  C   UNL     1      32.004 -23.499 -15.543  0.00  0.00    +0.058 C 
ATOM     23  C   UNL     1      32.915 -24.043 -14.628  0.00  0.00    +0.108 C 
ATOM     24  C   UNL     1      30.642 -23.492 -15.230  0.00  0.00    -0.008 C 
ATOM     25  C   UNL     1      34.363 -24.036 -14.986  0.00  0.00    +0.207 C 
ATOM     26  C   UNL     1      32.475 -24.575 -13.413  0.00  0.00    +0.014 C 
ATOM     27  C   UNL     1      30.199 -24.024 -14.018  0.00  0.00    -0.003 C 
ATOM     28  C   UNL     1      31.113 -24.564 -13.113  0.00  0.00    +0.001 C 
ATOM     29  C   UNL     1      29.628 -22.924 -16.170  0.00  0.00    +0.032 C 
ATOM     30  H   UNL     1      31.866 -22.588 -17.404  0.00  0.00    +0.154 HD
ENDBRANCH  17  21
ENDBRANCH  16  17
ENDBRANCH   1  16
TORSDOF 5
ENDMDL
MODEL 8
REMARK VINA RESULT:     -11.5      4.878     10.272
REMARK  Name = 448889
REMARK  5 active torsions:
REMARK  status: ('A' for Active; 'I' for Inactive)
REMARK    1  A    between atoms: C_1  and  N_2
REMARK    2  A    between atoms: C_1  and  C_16
REMARK    3  A    between atoms: C_6  and  C_10
REMARK    4  A    between atoms: C_16  and  C_17
REMARK    5  A    between atoms: C_17  and  C_21
REMARK                            x       y       z     vdW  Elec       q    Type
REMARK                         _______ _______ _______ _____ _____    ______ ____
ROOT
ATOM      1  C   UNL     1      35.316 -20.757 -20.929  0.00  0.00    -0.076 C 
ENDROOT
BRANCH   1   2
ATOM      2  N   UNL     1      34.771 -19.560 -21.567  0.00  0.00    +0.390 N 
ATOM      3  C   UNL     1      34.922 -19.622 -23.024  0.00  0.00    -0.072 C 
ATOM      4  C   UNL     1      34.194 -18.436 -23.674  0.00  0.00    +0.003 C 
ATOM      5  C   UNL     1      35.410 -18.348 -21.030  0.00  0.00    -0.051 C 
ATOM      6  C   UNL     1      34.517 -17.112 -23.018  0.00  0.00    -0.031 C 
ATOM      7  C   UNL     1      35.082 -17.094 -21.795  0.00  0.00    -0.053 C 
ATOM      8  H   UNL     1      33.775 -19.519 -21.355  0.00  0.00    -0.079 HD
BRANCH   6  10
ATOM      9  F   UNL     1      33.287 -12.387 -25.790  0.00  0.00    -0.204 F 
ATOM     10  C   UNL     1      34.192 -15.865 -23.750  0.00  0.00    -0.004 C 
ATOM     11  C   UNL     1      33.796 -15.921 -25.088  0.00  0.00    +0.002 C 
ATOM     12  C   UNL     1      34.280 -14.631 -23.103  0.00  0.00    +0.002 C 
ATOM     13  C   UNL     1      33.490 -14.747 -25.777  0.00  0.00    +0.030 C 
ATOM     14  C   UNL     1      33.974 -13.457 -23.792  0.00  0.00    +0.030 C 
ATOM     15  C   UNL     1      33.579 -13.515 -25.129  0.00  0.00    +0.140 C 
ENDBRANCH   6  10
ENDBRANCH   1   2
BRANCH   1  16
ATOM     16  C   UNL     1      34.790 -20.878 -19.497  0.00  0.00    -0.014 C 
BRANCH  16  17
ATOM     17  C   UNL     1      33.555 -21.759 -19.402  0.00  0.00    +0.074 C 
BRANCH  17  21
ATOM     18  O   UNL     1      35.510 -23.702 -15.597  0.00  0.00    -0.209 OA
ATOM     19  N   UNL     1      32.192 -22.507 -17.503  0.00  0.00    -0.290 N 
ATOM     20  N   UNL     1      34.563 -22.754 -17.456  0.00  0.00    -0.322 NA
ATOM     21  C   UNL     1      33.456 -22.382 -18.031  0.00  0.00    +0.173 C 
ATOM     22  C   UNL     1      32.039 -23.076 -16.237  0.00  0.00    +0.058 C 
ATOM     23  C   UNL     1      33.179 -23.503 -15.544  0.00  0.00    +0.108 C 
ATOM     24  C   UNL     1      30.782 -23.228 -15.646  0.00  0.00    -0.008 C 
ATOM     25  C   UNL     1      34.508 -23.328 -16.198  0.00  0.00    +0.207 C 
ATOM     26  C   UNL     1      33.070 -24.077 -14.274  0.00  0.00    +0.014 C 
ATOM     27  C   UNL     1      30.669 -23.801 -14.378  0.00  0.00    -0.003 C 
ATOM     28  C   UNL     1      31.809 -24.225 -13.695  0.00  0.00    +0.001 C 
ATOM     29  C   UNL     1      29.534 -22.789 -16.341  0.00  0.00    +0.032 C 
ATOM     30  H   UNL     1      31.407 -22.199 -18.010  0.00  0.00    +0.154 HD
ENDBRANCH  17  21
ENDBRANCH  16  17
ENDBRANCH   1  16
TORSDOF 5
ENDMDL
MODEL 9
REMARK VINA RESULT:     -11.3      5.856     10.730
REMARK  Name = 448889
REMARK  5 active torsions:
REMARK  status: ('A' for Active; 'I' for Inactive)
REMARK    1  A    between atoms: C_1  and  N_2
REMARK    2  A    between atoms: C_1  and  C_16
REMARK    3  A    between atoms: C_6  and  C_10
REMARK    4  A    between atoms: C_16  and  C_17
REMARK    5  A    between atoms: C_17  and  C_21
REMARK                            x       y       z     vdW  Elec       q    Type
REMARK                         _______ _______ _______ _____ _____    ______ ____
ROOT
ATOM      1  C   UNL     1      36.500 -21.986 -17.800  0.00  0.00    -0.076 C 
ENDROOT
BRANCH   1   2
ATOM      2  N   UNL     1      36.037 -20.953 -18.723  0.00  0.00    +0.390 N 
ATOM      3  C   UNL     1      34.945 -21.448 -19.567  0.00  0.00    -0.072 C 
ATOM      4  C   UNL     1      34.369 -20.296 -20.405  0.00  0.00    +0.003 C 
ATOM      5  C   UNL     1      37.148 -20.457 -19.550  0.00  0.00    -0.051 C 
ATOM      6  C   UNL     1      35.437 -19.476 -21.094  0.00  0.00    -0.031 C 
ATOM      7  C   UNL     1      36.717 -19.567 -20.685  0.00  0.00    -0.053 C 
ATOM      8  H   UNL     1      35.677 -20.176 -18.168  0.00  0.00    -0.079 HD
BRANCH   6  10
ATOM      9  F   UNL     1      33.895 -16.102 -25.309  0.00  0.00    -0.204 F 
ATOM     10  C   UNL     1      35.030 -18.585 -22.206  0.00  0.00    -0.004 C 
ATOM     11  C   UNL     1      35.289 -17.215 -22.138  0.00  0.00    +0.002 C 
ATOM     12  C   UNL     1      34.387 -19.114 -23.328  0.00  0.00    +0.002 C 
ATOM     13  C   UNL     1      34.907 -16.376 -23.185  0.00  0.00    +0.030 C 
ATOM     14  C   UNL     1      34.005 -18.276 -24.375  0.00  0.00    +0.030 C 
ATOM     15  C   UNL     1      34.264 -16.907 -24.304  0.00  0.00    +0.140 C 
ENDBRANCH   6  10
ENDBRANCH   1   2
BRANCH   1  16
ATOM     16  C   UNL     1      36.782 -21.379 -16.424  0.00  0.00    -0.014 C 
BRANCH  16  17
ATOM     17  C   UNL     1      37.092 -22.433 -15.373  0.00  0.00    +0.074 C 
BRANCH  17  21
ATOM     18  O   UNL     1      34.706 -24.536 -11.916  0.00  0.00    -0.209 OA
ATOM     19  N   UNL     1      34.689 -22.889 -15.571  0.00  0.00    -0.290 N 
ATOM     20  N   UNL     1      35.876 -23.511 -13.599  0.00  0.00    -0.322 NA
ATOM     21  C   UNL     1      35.816 -22.986 -14.788  0.00  0.00    +0.173 C 
ATOM     22  C   UNL     1      33.479 -23.384 -15.081  0.00  0.00    +0.058 C 
ATOM     23  C   UNL     1      33.451 -23.965 -13.806  0.00  0.00    +0.108 C 
ATOM     24  C   UNL     1      32.299 -23.313 -15.827  0.00  0.00    -0.008 C 
ATOM     25  C   UNL     1      34.723 -24.026 -13.031  0.00  0.00    +0.207 C 
ATOM     26  C   UNL     1      32.259 -24.471 -13.279  0.00  0.00    +0.014 C 
ATOM     27  C   UNL     1      31.107 -23.818 -15.303  0.00  0.00    -0.003 C 
ATOM     28  C   UNL     1      31.089 -24.396 -14.034  0.00  0.00    +0.001 C 
ATOM     29  C   UNL     1      32.274 -22.703 -17.191  0.00  0.00    +0.032 C 
ATOM     30  H   UNL     1      34.735 -22.476 -16.463  0.00  0.00    +0.154 HD
ENDBRANCH  17  21
ENDBRANCH  16  17
ENDBRANCH   1  16
TORSDOF 5
ENDMDL
