MODEL 1
REMARK VINA RESULT:     -11.5      0.000      0.000
REMARK  Name = 446752
REMARK  3 active torsions:
REMARK  status: ('A' for Active; 'I' for Inactive)
REMARK    1  A    between atoms: C_6  and  C_18
REMARK    2  A    between atoms: C_18  and  N_19
REMARK    3  A    between atoms: N_19  and  C_22
REMARK                            x       y       z     vdW  Elec       q    Type
REMARK                         _______ _______ _______ _____ _____    ______ ____
ROOT
ATOM      1  N   UNL     1      32.763 -20.637 -20.345  0.00  0.00    -0.182 NA
ATOM      2  N   UNL     1      32.627 -22.070 -18.532  0.00  0.00    -0.273 NA
ATOM      3  N   UNL     1      34.590 -22.749 -17.315  0.00  0.00    -0.312 NA
ATOM      4  N   UNL     1      36.701 -21.988 -17.918  0.00  0.00    -0.332 N 
ATOM      5  N   UNL     1      32.469 -23.525 -16.697  0.00  0.00    -0.283 N 
ATOM      6  C   UNL     1      34.883 -19.773 -21.077  0.00  0.00    +0.010 C 
ATOM      7  C   UNL     1      35.517 -20.468 -20.075  0.00  0.00    -0.009 C 
ATOM      8  C   UNL     1      34.752 -21.255 -19.201  0.00  0.00    +0.115 C 
ATOM      9  C   UNL     1      33.363 -21.321 -19.362  0.00  0.00    +0.104 C 
ATOM     10  C   UNL     1      33.519 -19.883 -21.179  0.00  0.00    +0.107 C 
ATOM     11  C   UNL     1      37.007 -20.330 -19.988  0.00  0.00    +0.032 C 
ATOM     12  C   UNL     1      35.310 -21.991 -18.159  0.00  0.00    +0.201 C 
ATOM     13  C   UNL     1      33.272 -22.743 -17.555  0.00  0.00    +0.206 C 
ATOM     14  H   UNL     1      37.072 -22.517 -17.174  0.00  0.00    +0.145 HD
ATOM     15  H   UNL     1      37.299 -21.458 -18.493  0.00  0.00    +0.145 HD
ATOM     16  H   UNL     1      31.494 -23.557 -16.828  0.00  0.00    +0.156 HD
ATOM     17  H   UNL     1      32.885 -24.038 -15.966  0.00  0.00    +0.156 HD
ENDROOT
BRANCH   6  18
ATOM     18  C   UNL     1      35.631 -18.908 -22.056  0.00  0.00    +0.097 C 
BRANCH  18  19
ATOM     19  N   UNL     1      35.341 -17.530 -21.827  0.00  0.00    -0.288 NA
ATOM     20  H   UNL     1      35.543 -17.145 -20.943  0.00  0.00    +0.124 HD
BRANCH  19  22
ATOM     21  N   UNL     1      33.117 -13.430 -23.235  0.00  0.00    -0.248 NA
ATOM     22  C   UNL     1      34.774 -16.692 -22.818  0.00  0.00    +0.101 C 
ATOM     23  C   UNL     1      34.217 -15.443 -22.498  0.00  0.00    +0.010 C 
ATOM     24  C   UNL     1      33.660 -14.631 -23.508  0.00  0.00    +0.061 C 
ATOM     25  C   UNL     1      34.785 -17.142 -24.136  0.00  0.00    -0.010 C 
ATOM     26  C   UNL     1      34.194 -14.966 -21.181  0.00  0.00    +0.000 C 
ATOM     27  C   UNL     1      33.682 -15.106 -24.816  0.00  0.00    +0.071 C 
ATOM     28  C   UNL     1      34.238 -16.347 -25.135  0.00  0.00    -0.023 C 
ATOM     29  C   UNL     1      33.636 -13.729 -20.896  0.00  0.00    +0.020 C 
ATOM     30  C   UNL     1      33.115 -13.005 -21.950  0.00  0.00    +0.098 C 
ENDBRANCH  19  22
ENDBRANCH  18  19
ENDBRANCH   6  18
TORSDOF 3
ENDMDL
MODEL 2
REMARK VINA RESULT:     -11.3      0.687      1.987
REMARK  Name = 446752
REMARK  3 active torsions:
REMARK  status: ('A' for Active; 'I' for Inactive)
REMARK    1  A    between atoms: C_6  and  C_18
REMARK    2  A    between atoms: C_18  and  N_19
REMARK    3  A    between atoms: N_19  and  C_22
REMARK                            x       y       z     vdW  Elec       q    Type
REMARK                         _______ _______ _______ _____ _____    ______ ____
ROOT
ATOM      1  N   UNL     1      32.796 -20.558 -20.444  0.00  0.00    -0.182 NA
ATOM      2  N   UNL     1      32.667 -22.029 -18.662  0.00  0.00    -0.273 NA
ATOM      3  N   UNL     1      34.630 -22.706 -17.443  0.00  0.00    -0.312 NA
ATOM      4  N   UNL     1      36.734 -21.904 -18.015  0.00  0.00    -0.332 N 
ATOM      5  N   UNL     1      32.515 -23.522 -16.857  0.00  0.00    -0.283 N 
ATOM      6  C   UNL     1      34.910 -19.651 -21.143  0.00  0.00    +0.010 C 
ATOM      7  C   UNL     1      35.546 -20.358 -20.150  0.00  0.00    -0.009 C 
ATOM      8  C   UNL     1      34.785 -21.172 -19.298  0.00  0.00    +0.115 C 
ATOM      9  C   UNL     1      33.399 -21.254 -19.470  0.00  0.00    +0.104 C 
ATOM     10  C   UNL     1      33.548 -19.777 -21.258  0.00  0.00    +0.107 C 
ATOM     11  C   UNL     1      37.033 -20.201 -20.050  0.00  0.00    +0.032 C 
ATOM     12  C   UNL     1      35.345 -21.921 -18.266  0.00  0.00    +0.201 C 
ATOM     13  C   UNL     1      33.314 -22.712 -17.693  0.00  0.00    +0.206 C 
ATOM     14  H   UNL     1      37.108 -22.443 -17.280  0.00  0.00    +0.145 HD
ATOM     15  H   UNL     1      37.329 -21.355 -18.575  0.00  0.00    +0.145 HD
ATOM     16  H   UNL     1      31.542 -23.565 -16.995  0.00  0.00    +0.156 HD
ATOM     17  H   UNL     1      32.933 -24.044 -16.133  0.00  0.00    +0.156 HD
ENDROOT
BRANCH   6  18
ATOM     18  C   UNL     1      35.652 -18.757 -22.099  0.00  0.00    +0.097 C 
BRANCH  18  19
ATOM     19  N   UNL     1      34.738 -17.963 -22.854  0.00  0.00    -0.288 NA
ATOM     20  H   UNL     1      34.242 -18.388 -23.592  0.00  0.00    +0.124 HD
BRANCH  19  22
ATOM     21  N   UNL     1      33.453 -13.469 -24.227  0.00  0.00    -0.248 NA
ATOM     22  C   UNL     1      34.514 -16.591 -22.587  0.00  0.00    +0.101 C 
ATOM     23  C   UNL     1      34.081 -15.706 -23.588  0.00  0.00    +0.010 C 
ATOM     24  C   UNL     1      33.867 -14.344 -23.292  0.00  0.00    +0.061 C 
ATOM     25  C   UNL     1      34.735 -16.135 -21.290  0.00  0.00    -0.010 C 
ATOM     26  C   UNL     1      33.850 -16.139 -24.901  0.00  0.00    +0.000 C 
ATOM     27  C   UNL     1      34.097 -13.914 -21.988  0.00  0.00    +0.071 C 
ATOM     28  C   UNL     1      34.526 -14.794 -20.991  0.00  0.00    -0.023 C 
ATOM     29  C   UNL     1      33.424 -15.240 -25.868  0.00  0.00    +0.020 C 
ATOM     30  C   UNL     1      33.241 -13.928 -25.483  0.00  0.00    +0.098 C 
ENDBRANCH  19  22
ENDBRANCH  18  19
ENDBRANCH   6  18
TORSDOF 3
ENDMDL
MODEL 3
REMARK VINA RESULT:     -11.1      1.129      2.977
REMARK  Name = 446752
REMARK  3 active torsions:
REMARK  status: ('A' for Active; 'I' for Inactive)
REMARK    1  A    between atoms: C_6  and  C_18
REMARK    2  A    between atoms: C_18  and  N_19
REMARK    3  A    between atoms: N_19  and  C_22
REMARK                            x       y       z     vdW  Elec       q    Type
REMARK                         _______ _______ _______ _____ _____    ______ ____
ROOT
ATOM      1  N   UNL     1      36.984 -19.936 -19.920  0.00  0.00    -0.182 NA
ATOM      2  N   UNL     1      36.901 -21.384 -18.116  0.00  0.00    -0.273 NA
ATOM      3  N   UNL     1      34.859 -22.493 -17.485  0.00  0.00    -0.312 NA
ATOM      4  N   UNL     1      32.889 -22.147 -18.668  0.00  0.00    -0.332 N 
ATOM      5  N   UNL     1      36.837 -22.849 -16.284  0.00  0.00    -0.283 N 
ATOM      6  C   UNL     1      35.021 -19.487 -21.232  0.00  0.00    +0.010 C 
ATOM      7  C   UNL     1      34.289 -20.335 -20.434  0.00  0.00    -0.009 C 
ATOM      8  C   UNL     1      34.925 -20.987 -19.368  0.00  0.00    +0.115 C 
ATOM      9  C   UNL     1      36.287 -20.766 -19.132  0.00  0.00    +0.104 C 
ATOM     10  C   UNL     1      36.351 -19.315 -20.945  0.00  0.00    +0.107 C 
ATOM     11  C   UNL     1      32.838 -20.502 -20.771  0.00  0.00    +0.032 C 
ATOM     12  C   UNL     1      34.263 -21.862 -18.511  0.00  0.00    +0.201 C 
ATOM     13  C   UNL     1      36.162 -22.212 -17.348  0.00  0.00    +0.206 C 
ATOM     14  H   UNL     1      32.442 -22.769 -18.049  0.00  0.00    +0.145 HD
ATOM     15  H   UNL     1      32.379 -21.724 -19.396  0.00  0.00    +0.145 HD
ATOM     16  H   UNL     1      37.795 -22.680 -16.136  0.00  0.00    +0.156 HD
ATOM     17  H   UNL     1      36.348 -23.464 -15.690  0.00  0.00    +0.156 HD
ENDROOT
BRANCH   6  18
ATOM     18  C   UNL     1      34.413 -18.749 -22.394  0.00  0.00    +0.097 C 
BRANCH  18  19
ATOM     19  N   UNL     1      35.184 -17.591 -22.709  0.00  0.00    -0.288 NA
ATOM     20  H   UNL     1      36.088 -17.712 -23.084  0.00  0.00    +0.124 HD
BRANCH  19  22
ATOM     21  N   UNL     1      33.206 -13.437 -24.313  0.00  0.00    -0.248 NA
ATOM     22  C   UNL     1      34.706 -16.273 -22.506  0.00  0.00    +0.101 C 
ATOM     23  C   UNL     1      34.182 -15.508 -23.560  0.00  0.00    +0.010 C 
ATOM     24  C   UNL     1      33.714 -14.198 -23.326  0.00  0.00    +0.061 C 
ATOM     25  C   UNL     1      34.768 -15.750 -21.217  0.00  0.00    -0.010 C 
ATOM     26  C   UNL     1      34.107 -16.011 -24.866  0.00  0.00    +0.000 C 
ATOM     27  C   UNL     1      33.789 -13.699 -22.029  0.00  0.00    +0.071 C 
ATOM     28  C   UNL     1      34.309 -14.461 -20.979  0.00  0.00    -0.023 C 
ATOM     29  C   UNL     1      33.585 -15.230 -25.886  0.00  0.00    +0.020 C 
ATOM     30  C   UNL     1      33.152 -13.961 -25.561  0.00  0.00    +0.098 C 
ENDBRANCH  19  22
ENDBRANCH  18  19
ENDBRANCH   6  18
TORSDOF 3
ENDMDL
MODEL 4
REMARK VINA RESULT:     -11.1      1.377      2.063
REMARK  Name = 446752
REMARK  3 active torsions:
REMARK  status: ('A' for Active; 'I' for Inactive)
REMARK    1  A    between atoms: C_6  and  C_18
REMARK    2  A    between atoms: C_18  and  N_19
REMARK    3  A    between atoms: N_19  and  C_22
REMARK                            x       y       z     vdW  Elec       q    Type
REMARK                         _______ _______ _______ _____ _____    ______ ____
ROOT
ATOM      1  N   UNL     1      32.552 -21.581 -19.148  0.00  0.00    -0.182 NA
ATOM      2  N   UNL     1      31.963 -22.802 -17.271  0.00  0.00    -0.273 NA
ATOM      3  N   UNL     1      33.615 -23.552 -15.688  0.00  0.00    -0.312 NA
ATOM      4  N   UNL     1      35.869 -23.078 -15.989  0.00  0.00    -0.332 N 
ATOM      5  N   UNL     1      31.346 -24.038 -15.374  0.00  0.00    -0.283 N 
ATOM      6  C   UNL     1      34.849 -21.019 -19.583  0.00  0.00    +0.010 C 
ATOM      7  C   UNL     1      35.230 -21.671 -18.433  0.00  0.00    -0.009 C 
ATOM      8  C   UNL     1      34.249 -22.282 -17.639  0.00  0.00    +0.115 C 
ATOM      9  C   UNL     1      32.905 -22.221 -18.024  0.00  0.00    +0.104 C 
ATOM     10  C   UNL     1      33.515 -20.998 -19.903  0.00  0.00    +0.107 C 
ATOM     11  C   UNL     1      36.693 -21.679 -18.109  0.00  0.00    +0.032 C 
ATOM     12  C   UNL     1      34.543 -22.962 -16.459  0.00  0.00    +0.201 C 
ATOM     13  C   UNL     1      32.362 -23.435 -16.147  0.00  0.00    +0.206 C 
ATOM     14  H   UNL     1      36.054 -23.564 -15.152  0.00  0.00    +0.145 HD
ATOM     15  H   UNL     1      36.609 -22.674 -16.497  0.00  0.00    +0.145 HD
ATOM     16  H   UNL     1      30.407 -23.983 -15.664  0.00  0.00    +0.156 HD
ATOM     17  H   UNL     1      31.578 -24.514 -14.544  0.00  0.00    +0.156 HD
ENDROOT
BRANCH   6  18
ATOM     18  C   UNL     1      35.838 -20.340 -20.490  0.00  0.00    +0.097 C 
BRANCH  18  19
ATOM     19  N   UNL     1      35.440 -18.994 -20.746  0.00  0.00    -0.288 NA
ATOM     20  H   UNL     1      35.460 -18.347 -20.004  0.00  0.00    +0.124 HD
BRANCH  19  22
ATOM     21  N   UNL     1      34.050 -15.498 -23.841  0.00  0.00    -0.248 NA
ATOM     22  C   UNL     1      35.016 -18.551 -22.022  0.00  0.00    +0.101 C 
ATOM     23  C   UNL     1      34.742 -17.197 -22.279  0.00  0.00    +0.010 C 
ATOM     24  C   UNL     1      34.321 -16.786 -23.561  0.00  0.00    +0.061 C 
ATOM     25  C   UNL     1      34.878 -19.502 -23.030  0.00  0.00    -0.010 C 
ATOM     26  C   UNL     1      34.874 -16.220 -21.283  0.00  0.00    +0.000 C 
ATOM     27  C   UNL     1      34.190 -17.757 -24.549  0.00  0.00    +0.071 C 
ATOM     28  C   UNL     1      34.464 -19.104 -24.294  0.00  0.00    -0.023 C 
ATOM     29  C   UNL     1      34.595 -14.892 -21.568  0.00  0.00    +0.020 C 
ATOM     30  C   UNL     1      34.190 -14.585 -22.851  0.00  0.00    +0.098 C 
ENDBRANCH  19  22
ENDBRANCH  18  19
ENDBRANCH   6  18
TORSDOF 3
ENDMDL
MODEL 5
REMARK VINA RESULT:     -11.0      3.377      9.253
REMARK  Name = 446752
REMARK  3 active torsions:
REMARK  status: ('A' for Active; 'I' for Inactive)
REMARK    1  A    between atoms: C_6  and  C_18
REMARK    2  A    between atoms: C_18  and  N_19
REMARK    3  A    between atoms: N_19  and  C_22
REMARK                            x       y       z     vdW  Elec       q    Type
REMARK                         _______ _______ _______ _____ _____    ______ ____
ROOT
ATOM      1  N   UNL     1      36.504 -21.245 -18.665  0.00  0.00    -0.182 NA
ATOM      2  N   UNL     1      37.319 -19.739 -20.223  0.00  0.00    -0.273 NA
ATOM      3  N   UNL     1      35.885 -18.739 -21.877  0.00  0.00    -0.312 NA
ATOM      4  N   UNL     1      33.620 -19.251 -21.971  0.00  0.00    -0.332 N 
ATOM      5  N   UNL     1      38.165 -18.215 -21.795  0.00  0.00    -0.283 N 
ATOM      6  C   UNL     1      34.181 -21.864 -18.647  0.00  0.00    +0.010 C 
ATOM      7  C   UNL     1      33.948 -21.035 -19.719  0.00  0.00    -0.009 C 
ATOM      8  C   UNL     1      35.016 -20.306 -20.262  0.00  0.00    +0.115 C 
ATOM      9  C   UNL     1      36.296 -20.432 -19.709  0.00  0.00    +0.104 C 
ATOM     10  C   UNL     1      35.459 -21.941 -18.154  0.00  0.00    +0.107 C 
ATOM     11  C   UNL     1      32.543 -20.972 -20.236  0.00  0.00    +0.032 C 
ATOM     12  C   UNL     1      34.871 -19.444 -21.346  0.00  0.00    +0.201 C 
ATOM     13  C   UNL     1      37.065 -18.932 -21.275  0.00  0.00    +0.206 C 
ATOM     14  H   UNL     1      33.542 -18.636 -22.737  0.00  0.00    +0.145 HD
ATOM     15  H   UNL     1      32.827 -19.732 -21.643  0.00  0.00    +0.145 HD
ATOM     16  H   UNL     1      39.057 -18.318 -21.391  0.00  0.00    +0.156 HD
ATOM     17  H   UNL     1      38.039 -17.611 -22.562  0.00  0.00    +0.156 HD
ENDROOT
BRANCH   6  18
ATOM     18  C   UNL     1      33.091 -22.681 -18.007  0.00  0.00    +0.097 C 
BRANCH  18  19
ATOM     19  N   UNL     1      33.620 -23.478 -16.949  0.00  0.00    -0.288 NA
ATOM     20  H   UNL     1      34.415 -24.032 -17.126  0.00  0.00    +0.124 HD
BRANCH  19  22
ATOM     21  N   UNL     1      33.891 -24.255 -12.146  0.00  0.00    -0.248 NA
ATOM     22  C   UNL     1      33.050 -23.506 -15.653  0.00  0.00    +0.101 C 
ATOM     23  C   UNL     1      33.798 -23.881 -14.525  0.00  0.00    +0.010 C 
ATOM     24  C   UNL     1      33.202 -23.899 -13.247  0.00  0.00    +0.061 C 
ATOM     25  C   UNL     1      31.711 -23.146 -15.522  0.00  0.00    -0.010 C 
ATOM     26  C   UNL     1      35.148 -24.247 -14.628  0.00  0.00    +0.000 C 
ATOM     27  C   UNL     1      31.862 -23.537 -13.145  0.00  0.00    +0.071 C 
ATOM     28  C   UNL     1      31.117 -23.162 -14.267  0.00  0.00    -0.023 C 
ATOM     29  C   UNL     1      35.860 -24.613 -13.497  0.00  0.00    +0.020 C 
ATOM     30  C   UNL     1      35.191 -24.600 -12.289  0.00  0.00    +0.098 C 
ENDBRANCH  19  22
ENDBRANCH  18  19
ENDBRANCH   6  18
TORSDOF 3
ENDMDL
MODEL 6
REMARK VINA RESULT:     -10.9      1.073      2.286
REMARK  Name = 446752
REMARK  3 active torsions:
REMARK  status: ('A' for Active; 'I' for Inactive)
REMARK    1  A    between atoms: C_6  and  C_18
REMARK    2  A    between atoms: C_18  and  N_19
REMARK    3  A    between atoms: N_19  and  C_22
REMARK                            x       y       z     vdW  Elec       q    Type
REMARK                         _______ _______ _______ _____ _____    ______ ____
ROOT
ATOM      1  N   UNL     1      36.825 -20.954 -19.067  0.00  0.00    -0.182 NA
ATOM      2  N   UNL     1      36.550 -22.286 -17.194  0.00  0.00    -0.273 NA
ATOM      3  N   UNL     1      34.385 -23.120 -16.550  0.00  0.00    -0.312 NA
ATOM      4  N   UNL     1      32.486 -22.615 -17.789  0.00  0.00    -0.332 N 
ATOM      5  N   UNL     1      36.291 -23.636 -15.292  0.00  0.00    -0.283 N 
ATOM      6  C   UNL     1      34.946 -20.353 -20.440  0.00  0.00    +0.010 C 
ATOM      7  C   UNL     1      34.110 -21.069 -19.615  0.00  0.00    -0.009 C 
ATOM      8  C   UNL     1      34.652 -21.733 -18.505  0.00  0.00    +0.115 C 
ATOM      9  C   UNL     1      36.026 -21.656 -18.252  0.00  0.00    +0.104 C 
ATOM     10  C   UNL     1      36.283 -20.319 -20.135  0.00  0.00    +0.107 C 
ATOM     11  C   UNL     1      32.655 -21.088 -19.973  0.00  0.00    +0.032 C 
ATOM     12  C   UNL     1      33.881 -22.480 -17.618  0.00  0.00    +0.201 C 
ATOM     13  C   UNL     1      35.710 -22.983 -16.400  0.00  0.00    +0.206 C 
ATOM     14  H   UNL     1      31.961 -23.149 -17.149  0.00  0.00    +0.145 HD
ATOM     15  H   UNL     1      32.038 -22.175 -18.547  0.00  0.00    +0.145 HD
ATOM     16  H   UNL     1      37.260 -23.570 -15.133  0.00  0.00    +0.156 HD
ATOM     17  H   UNL     1      35.727 -24.159 -14.678  0.00  0.00    +0.156 HD
ENDROOT
BRANCH   6  18
ATOM     18  C   UNL     1      34.444 -19.613 -21.650  0.00  0.00    +0.097 C 
BRANCH  18  19
ATOM     19  N   UNL     1      35.061 -18.330 -21.742  0.00  0.00    -0.288 NA
ATOM     20  H   UNL     1      35.736 -18.080 -21.069  0.00  0.00    +0.124 HD
BRANCH  19  22
ATOM     21  N   UNL     1      33.969 -13.836 -23.275  0.00  0.00    -0.248 NA
ATOM     22  C   UNL     1      34.744 -17.399 -22.761  0.00  0.00    +0.101 C 
ATOM     23  C   UNL     1      34.512 -16.043 -22.476  0.00  0.00    +0.010 C 
ATOM     24  C   UNL     1      34.198 -15.140 -23.513  0.00  0.00    +0.061 C 
ATOM     25  C   UNL     1      34.669 -17.867 -24.070  0.00  0.00    -0.010 C 
ATOM     26  C   UNL     1      34.582 -15.546 -21.168  0.00  0.00    +0.000 C 
ATOM     27  C   UNL     1      34.127 -15.635 -24.812  0.00  0.00    +0.071 C 
ATOM     28  C   UNL     1      34.360 -16.983 -25.097  0.00  0.00    -0.023 C 
ATOM     29  C   UNL     1      34.347 -14.202 -20.918  0.00  0.00    +0.020 C 
ATOM     30  C   UNL     1      34.047 -13.396 -21.997  0.00  0.00    +0.098 C 
ENDBRANCH  19  22
ENDBRANCH  18  19
ENDBRANCH   6  18
TORSDOF 3
ENDMDL
MODEL 7
REMARK VINA RESULT:     -10.5      2.522      8.635
REMARK  Name = 446752
REMARK  3 active torsions:
REMARK  status: ('A' for Active; 'I' for Inactive)
REMARK    1  A    between atoms: C_6  and  C_18
REMARK    2  A    between atoms: C_18  and  N_19
REMARK    3  A    between atoms: N_19  and  C_22
REMARK                            x       y       z     vdW  Elec       q    Type
REMARK                         _______ _______ _______ _____ _____    ______ ____
ROOT
ATOM      1  N   UNL     1      33.033 -20.412 -20.822  0.00  0.00    -0.182 NA
ATOM      2  N   UNL     1      33.758 -18.865 -22.383  0.00  0.00    -0.273 NA
ATOM      3  N   UNL     1      36.066 -18.191 -22.509  0.00  0.00    -0.312 NA
ATOM      4  N   UNL     1      37.656 -19.072 -21.062  0.00  0.00    -0.332 N 
ATOM      5  N   UNL     1      34.475 -17.294 -23.973  0.00  0.00    -0.283 N 
ATOM      6  C   UNL     1      34.570 -21.405 -19.263  0.00  0.00    +0.010 C 
ATOM      7  C   UNL     1      35.601 -20.674 -19.808  0.00  0.00    -0.009 C 
ATOM      8  C   UNL     1      35.330 -19.805 -20.875  0.00  0.00    +0.115 C 
ATOM      9  C   UNL     1      34.024 -19.693 -21.366  0.00  0.00    +0.104 C 
ATOM     10  C   UNL     1      33.314 -21.246 -19.791  0.00  0.00    +0.107 C 
ATOM     11  C   UNL     1      36.961 -20.867 -19.210  0.00  0.00    +0.032 C 
ATOM     12  C   UNL     1      36.310 -19.028 -21.487  0.00  0.00    +0.201 C 
ATOM     13  C   UNL     1      34.786 -18.159 -22.902  0.00  0.00    +0.206 C 
ATOM     14  H   UNL     1      38.332 -18.514 -21.510  0.00  0.00    +0.145 HD
ATOM     15  H   UNL     1      37.918 -19.660 -20.317  0.00  0.00    +0.145 HD
ATOM     16  H   UNL     1      33.549 -17.231 -24.303  0.00  0.00    +0.156 HD
ATOM     17  H   UNL     1      35.184 -16.754 -24.391  0.00  0.00    +0.156 HD
ENDROOT
BRANCH   6  18
ATOM     18  C   UNL     1      34.777 -22.358 -18.117  0.00  0.00    +0.097 C 
BRANCH  18  19
ATOM     19  N   UNL     1      33.526 -22.708 -17.527  0.00  0.00    -0.288 NA
ATOM     20  H   UNL     1      32.705 -22.598 -18.061  0.00  0.00    +0.124 HD
BRANCH  19  22
ATOM     21  N   UNL     1      30.915 -23.977 -13.614  0.00  0.00    -0.248 NA
ATOM     22  C   UNL     1      33.415 -23.207 -16.206  0.00  0.00    +0.101 C 
ATOM     23  C   UNL     1      32.170 -23.339 -15.570  0.00  0.00    +0.010 C 
ATOM     24  C   UNL     1      32.091 -23.839 -14.254  0.00  0.00    +0.061 C 
ATOM     25  C   UNL     1      34.586 -23.569 -15.546  0.00  0.00    -0.010 C 
ATOM     26  C   UNL     1      30.976 -22.983 -16.212  0.00  0.00    +0.000 C 
ATOM     27  C   UNL     1      33.277 -24.192 -13.616  0.00  0.00    +0.071 C 
ATOM     28  C   UNL     1      34.516 -24.062 -14.249  0.00  0.00    -0.023 C 
ATOM     29  C   UNL     1      29.762 -23.124 -15.557  0.00  0.00    +0.020 C 
ATOM     30  C   UNL     1      29.785 -23.622 -14.270  0.00  0.00    +0.098 C 
ENDBRANCH  19  22
ENDBRANCH  18  19
ENDBRANCH   6  18
TORSDOF 3
ENDMDL
MODEL 8
REMARK VINA RESULT:     -10.5      2.686      8.727
REMARK  Name = 446752
REMARK  3 active torsions:
REMARK  status: ('A' for Active; 'I' for Inactive)
REMARK    1  A    between atoms: C_6  and  C_18
REMARK    2  A    between atoms: C_18  and  N_19
REMARK    3  A    between atoms: N_19  and  C_22
REMARK                            x       y       z     vdW  Elec       q    Type
REMARK                         _______ _______ _______ _____ _____    ______ ____
ROOT
ATOM      1  N   UNL     1      32.872 -20.538 -20.624  0.00  0.00    -0.182 NA
ATOM      2  N   UNL     1      33.743 -19.028 -22.147  0.00  0.00    -0.273 NA
ATOM      3  N   UNL     1      36.084 -18.464 -22.163  0.00  0.00    -0.312 NA
ATOM      4  N   UNL     1      37.560 -19.419 -20.644  0.00  0.00    -0.332 N 
ATOM      5  N   UNL     1      34.607 -17.493 -23.699  0.00  0.00    -0.283 N 
ATOM      6  C   UNL     1      34.286 -21.601 -18.996  0.00  0.00    +0.010 C 
ATOM      7  C   UNL     1      35.374 -20.921 -19.491  0.00  0.00    -0.009 C 
ATOM      8  C   UNL     1      35.195 -20.041 -20.568  0.00  0.00    +0.115 C 
ATOM      9  C   UNL     1      33.921 -19.866 -21.120  0.00  0.00    +0.104 C 
ATOM     10  C   UNL     1      33.065 -21.384 -19.583  0.00  0.00    +0.107 C 
ATOM     11  C   UNL     1      36.694 -21.178 -18.830  0.00  0.00    +0.032 C 
ATOM     12  C   UNL     1      36.240 -19.312 -21.132  0.00  0.00    +0.201 C 
ATOM     13  C   UNL     1      34.827 -18.372 -22.616  0.00  0.00    +0.206 C 
ATOM     14  H   UNL     1      38.282 -18.894 -21.059  0.00  0.00    +0.145 HD
ATOM     15  H   UNL     1      37.758 -20.019 -19.889  0.00  0.00    +0.145 HD
ATOM     16  H   UNL     1      33.703 -17.386 -24.072  0.00  0.00    +0.156 HD
ATOM     17  H   UNL     1      35.361 -16.988 -24.082  0.00  0.00    +0.156 HD
ENDROOT
BRANCH   6  18
ATOM     18  C   UNL     1      34.392 -22.562 -17.844  0.00  0.00    +0.097 C 
BRANCH  18  19
ATOM     19  N   UNL     1      33.148 -23.229 -17.632  0.00  0.00    -0.288 NA
ATOM     20  H   UNL     1      32.723 -23.688 -18.393  0.00  0.00    +0.124 HD
BRANCH  19  22
ATOM     21  N   UNL     1      33.116 -24.019 -12.825  0.00  0.00    -0.248 NA
ATOM     22  C   UNL     1      32.499 -23.256 -16.374  0.00  0.00    +0.101 C 
ATOM     23  C   UNL     1      33.174 -23.638 -15.203  0.00  0.00    +0.010 C 
ATOM     24  C   UNL     1      32.500 -23.657 -13.965  0.00  0.00    +0.061 C 
ATOM     25  C   UNL     1      31.157 -22.889 -16.326  0.00  0.00    -0.010 C 
ATOM     26  C   UNL     1      34.525 -24.012 -15.224  0.00  0.00    +0.000 C 
ATOM     27  C   UNL     1      31.158 -23.286 -13.945  0.00  0.00    +0.071 C 
ATOM     28  C   UNL     1      30.486 -22.905 -15.109  0.00  0.00    -0.023 C 
ATOM     29  C   UNL     1      35.164 -24.386 -14.051  0.00  0.00    +0.020 C 
ATOM     30  C   UNL     1      34.421 -24.372 -12.888  0.00  0.00    +0.098 C 
ENDBRANCH  19  22
ENDBRANCH  18  19
ENDBRANCH   6  18
TORSDOF 3
ENDMDL
MODEL 9
REMARK VINA RESULT:     -10.4      1.517      8.179
REMARK  Name = 446752
REMARK  3 active torsions:
REMARK  status: ('A' for Active; 'I' for Inactive)
REMARK    1  A    between atoms: C_6  and  C_18
REMARK    2  A    between atoms: C_18  and  N_19
REMARK    3  A    between atoms: N_19  and  C_22
REMARK                            x       y       z     vdW  Elec       q    Type
REMARK                         _______ _______ _______ _____ _____    ______ ____
ROOT
ATOM      1  N   UNL     1      34.626 -17.166 -24.783  0.00  0.00    -0.182 NA
ATOM      2  N   UNL     1      33.758 -15.321 -25.880  0.00  0.00    -0.273 NA
ATOM      3  N   UNL     1      33.255 -13.280 -24.707  0.00  0.00    -0.312 NA
ATOM      4  N   UNL     1      33.622 -13.087 -22.421  0.00  0.00    -0.332 N 
ATOM      5  N   UNL     1      32.878 -13.462 -27.011  0.00  0.00    -0.283 N 
ATOM      6  C   UNL     1      35.056 -17.105 -22.419  0.00  0.00    +0.010 C 
ATOM      7  C   UNL     1      34.602 -15.807 -22.366  0.00  0.00    -0.009 C 
ATOM      8  C   UNL     1      34.158 -15.192 -23.546  0.00  0.00    +0.115 C 
ATOM      9  C   UNL     1      34.181 -15.902 -24.752  0.00  0.00    +0.104 C 
ATOM     10  C   UNL     1      35.051 -17.744 -23.633  0.00  0.00    +0.107 C 
ATOM     11  C   UNL     1      34.619 -15.136 -21.027  0.00  0.00    +0.032 C 
ATOM     12  C   UNL     1      33.684 -13.883 -23.585  0.00  0.00    +0.201 C 
ATOM     13  C   UNL     1      33.319 -14.047 -25.804  0.00  0.00    +0.206 C 
ATOM     14  H   UNL     1      33.283 -12.164 -22.473  0.00  0.00    +0.145 HD
ATOM     15  H   UNL     1      33.917 -13.456 -21.557  0.00  0.00    +0.145 HD
ATOM     16  H   UNL     1      32.903 -13.979 -27.847  0.00  0.00    +0.156 HD
ATOM     17  H   UNL     1      32.546 -12.534 -27.015  0.00  0.00    +0.156 HD
ENDROOT
BRANCH   6  18
ATOM     18  C   UNL     1      35.548 -17.837 -21.200  0.00  0.00    +0.097 C 
BRANCH  18  19
ATOM     19  N   UNL     1      35.446 -19.247 -21.390  0.00  0.00    -0.288 NA
ATOM     20  H   UNL     1      35.974 -19.667 -22.108  0.00  0.00    +0.124 HD
BRANCH  19  22
ATOM     21  N   UNL     1      34.756 -22.391 -17.732  0.00  0.00    -0.248 NA
ATOM     22  C   UNL     1      34.618 -20.070 -20.587  0.00  0.00    +0.101 C 
ATOM     23  C   UNL     1      35.140 -20.835 -19.531  0.00  0.00    +0.010 C 
ATOM     24  C   UNL     1      34.289 -21.645 -18.750  0.00  0.00    +0.061 C 
ATOM     25  C   UNL     1      33.256 -20.100 -20.875  0.00  0.00    -0.010 C 
ATOM     26  C   UNL     1      36.506 -20.822 -19.220  0.00  0.00    +0.000 C 
ATOM     27  C   UNL     1      32.932 -21.658 -19.060  0.00  0.00    +0.071 C 
ATOM     28  C   UNL     1      32.413 -20.896 -20.109  0.00  0.00    -0.023 C 
ATOM     29  C   UNL     1      36.991 -21.589 -18.172  0.00  0.00    +0.020 C 
ATOM     30  C   UNL     1      36.082 -22.350 -17.464  0.00  0.00    +0.098 C 
ENDBRANCH  19  22
ENDBRANCH  18  19
ENDBRANCH   6  18
TORSDOF 3
ENDMDL
