MODEL 1
REMARK VINA RESULT:     -11.9      0.000      0.000
REMARK  Name = 447736
REMARK  4 active torsions:
REMARK  status: ('A' for Active; 'I' for Inactive)
REMARK    1  A    between atoms: N_2  and  C_13
REMARK    2  A    between atoms: C_3  and  C_20
REMARK    3  A    between atoms: C_6  and  C_17
REMARK    4  A    between atoms: C_28  and  C_32
REMARK                            x       y       z     vdW  Elec       q    Type
REMARK                         _______ _______ _______ _____ _____    ______ ____
ROOT
ATOM      1  O   UNL     1      33.816 -24.026 -17.663  0.00  0.00    -0.270 OA
ATOM      2  N   UNL     1      34.800 -22.394 -16.286  0.00  0.00    -0.280 N 
ATOM      3  C   UNL     1      34.229 -22.888 -17.466  0.00  0.00    +0.249 C 
ATOM      4  H   UNL     1      35.080 -21.450 -16.304  0.00  0.00    +0.155 HD
ENDROOT
BRANCH   2  13
ATOM      5  N   UNL     1      37.992 -25.634 -12.082  0.00  0.00    +0.388 N 
ATOM      6  C   UNL     1      37.959 -24.677 -13.206  0.00  0.00    -0.039 C 
ATOM      7  C   UNL     1      36.555 -24.216 -13.575  0.00  0.00    -0.045 C 
ATOM      8  C   UNL     1      35.485 -24.412 -12.677  0.00  0.00    -0.030 C 
ATOM      9  C   UNL     1      35.701 -25.134 -11.371  0.00  0.00    +0.003 C 
ATOM     10  C   UNL     1      37.173 -25.159 -10.968  0.00  0.00    -0.076 C 
ATOM     11  C   UNL     1      36.309 -23.520 -14.770  0.00  0.00    +0.008 C 
ATOM     12  C   UNL     1      34.196 -23.973 -13.013  0.00  0.00    -0.003 C 
ATOM     13  C   UNL     1      35.024 -23.076 -15.089  0.00  0.00    +0.050 C 
ATOM     14  C   UNL     1      33.967 -23.307 -14.215  0.00  0.00    +0.014 C 
ATOM     15  H   UNL     1      38.955 -25.742 -11.765  0.00  0.00    -0.084 HD
ATOM     16  H   UNL     1      37.618 -26.527 -12.403  0.00  0.00    -0.084 HD
BRANCH   6  17
ATOM     17  C   UNL     1      38.703 -25.345 -14.371  0.00  0.00    -0.015 C 
ATOM     18  C   UNL     1      40.176 -25.526 -14.024  0.00  0.00    -0.002 C 
ATOM     19  C   UNL     1      38.058 -26.683 -14.714  0.00  0.00    -0.002 C 
ENDBRANCH   6  17
ENDBRANCH   2  13
BRANCH   3  20
ATOM     20  C   UNL     1      34.152 -21.919 -18.590  0.00  0.00    +0.054 C 
ATOM     21  C   UNL     1      35.262 -20.425 -20.113  0.00  0.00    +0.000 C 
ATOM     22  C   UNL     1      35.318 -21.345 -19.053  0.00  0.00    +0.005 C 
ATOM     23  C   UNL     1      34.008 -20.104 -20.687  0.00  0.00    +0.000 C 
ATOM     24  C   UNL     1      32.922 -21.624 -19.129  0.00  0.00    +0.005 C 
ATOM     25  C   UNL     1      32.847 -20.713 -20.183  0.00  0.00    +0.000 C 
ATOM     26  C   UNL     1      33.953 -19.185 -21.747  0.00  0.00    +0.003 C 
ATOM     27  C   UNL     1      36.423 -19.817 -20.617  0.00  0.00    +0.000 C 
ATOM     28  C   UNL     1      35.116 -18.591 -22.235  0.00  0.00    +0.031 C 
ATOM     29  C   UNL     1      36.349 -18.906 -21.671  0.00  0.00    +0.003 C 
BRANCH  28  32
ATOM     30  N   UNL     1      34.284 -17.906 -24.472  0.00  0.00    -0.343 N 
ATOM     31  N   UNL     1      35.703 -16.499 -23.261  0.00  0.00    -0.285 NA
ATOM     32  C   UNL     1      35.041 -17.640 -23.333  0.00  0.00    +0.117 C 
ATOM     33  H   UNL     1      34.246 -17.247 -25.204  0.00  0.00    +0.144 HD
ATOM     34  H   UNL     1      33.785 -18.751 -24.545  0.00  0.00    +0.144 HD
ATOM     35  H   UNL     1      35.654 -15.854 -24.004  0.00  0.00    +0.188 HD
ENDBRANCH  28  32
ENDBRANCH   3  20
TORSDOF 4
ENDMDL
MODEL 2
REMARK VINA RESULT:     -11.3      1.143      2.697
REMARK  Name = 447736
REMARK  4 active torsions:
REMARK  status: ('A' for Active; 'I' for Inactive)
REMARK    1  A    between atoms: N_2  and  C_13
REMARK    2  A    between atoms: C_3  and  C_20
REMARK    3  A    between atoms: C_6  and  C_17
REMARK    4  A    between atoms: C_28  and  C_32
REMARK                            x       y       z     vdW  Elec       q    Type
REMARK                         _______ _______ _______ _____ _____    ______ ____
ROOT
ATOM      1  O   UNL     1      34.252 -23.274 -17.584  0.00  0.00    -0.270 OA
ATOM      2  N   UNL     1      36.305 -22.208 -17.166  0.00  0.00    -0.280 N 
ATOM      3  C   UNL     1      35.087 -22.410 -17.829  0.00  0.00    +0.249 C 
ATOM      4  H   UNL     1      36.858 -21.463 -17.497  0.00  0.00    +0.155 HD
ENDROOT
BRANCH   2  13
ATOM      5  N   UNL     1      36.226 -25.429 -11.877  0.00  0.00    +0.388 N 
ATOM      6  C   UNL     1      35.549 -24.967 -13.105  0.00  0.00    -0.039 C 
ATOM      7  C   UNL     1      36.479 -24.272 -14.091  0.00  0.00    -0.045 C 
ATOM      8  C   UNL     1      37.877 -24.416 -13.969  0.00  0.00    -0.030 C 
ATOM      9  C   UNL     1      38.472 -25.204 -12.830  0.00  0.00    +0.003 C 
ATOM     10  C   UNL     1      37.455 -26.151 -12.198  0.00  0.00    -0.076 C 
ATOM     11  C   UNL     1      35.972 -23.545 -15.180  0.00  0.00    +0.008 C 
ATOM     12  C   UNL     1      38.731 -23.787 -14.887  0.00  0.00    -0.003 C 
ATOM     13  C   UNL     1      36.831 -22.933 -16.096  0.00  0.00    +0.050 C 
ATOM     14  C   UNL     1      38.209 -23.048 -15.946  0.00  0.00    +0.014 C 
ATOM     15  H   UNL     1      35.599 -26.049 -11.364  0.00  0.00    -0.084 HD
ATOM     16  H   UNL     1      36.465 -24.615 -11.312  0.00  0.00    -0.084 HD
BRANCH   6  17
ATOM     17  C   UNL     1      34.377 -24.086 -12.654  0.00  0.00    -0.015 C 
ATOM     18  C   UNL     1      33.056 -24.666 -13.150  0.00  0.00    -0.002 C 
ATOM     19  C   UNL     1      34.372 -23.946 -11.136  0.00  0.00    -0.002 C 
ENDBRANCH   6  17
ENDBRANCH   2  13
BRANCH   3  20
ATOM     20  C   UNL     1      34.817 -21.484 -18.959  0.00  0.00    +0.054 C 
ATOM     21  C   UNL     1      35.640 -19.951 -20.620  0.00  0.00    +0.000 C 
ATOM     22  C   UNL     1      35.879 -20.831 -19.550  0.00  0.00    +0.005 C 
ATOM     23  C   UNL     1      34.313 -19.752 -21.070  0.00  0.00    +0.000 C 
ATOM     24  C   UNL     1      33.519 -21.308 -19.377  0.00  0.00    +0.005 C 
ATOM     25  C   UNL     1      33.263 -20.438 -20.438  0.00  0.00    +0.000 C 
ATOM     26  C   UNL     1      34.075 -18.872 -22.138  0.00  0.00    +0.003 C 
ATOM     27  C   UNL     1      36.690 -19.265 -21.252  0.00  0.00    +0.000 C 
ATOM     28  C   UNL     1      35.130 -18.200 -22.755  0.00  0.00    +0.031 C 
ATOM     29  C   UNL     1      36.435 -18.396 -22.312  0.00  0.00    +0.003 C 
BRANCH  28  32
ATOM     30  N   UNL     1      35.396 -16.002 -23.881  0.00  0.00    -0.343 N 
ATOM     31  N   UNL     1      34.110 -17.685 -24.869  0.00  0.00    -0.285 NA
ATOM     32  C   UNL     1      34.867 -17.291 -23.860  0.00  0.00    +0.117 C 
ATOM     33  H   UNL     1      35.206 -15.404 -24.639  0.00  0.00    +0.144 HD
ATOM     34  H   UNL     1      35.960 -15.690 -23.137  0.00  0.00    +0.144 HD
ATOM     35  H   UNL     1      33.931 -17.071 -25.618  0.00  0.00    +0.188 HD
ENDBRANCH  28  32
ENDBRANCH   3  20
TORSDOF 4
ENDMDL
MODEL 3
REMARK VINA RESULT:     -11.1      2.535      4.504
REMARK  Name = 447736
REMARK  4 active torsions:
REMARK  status: ('A' for Active; 'I' for Inactive)
REMARK    1  A    between atoms: N_2  and  C_13
REMARK    2  A    between atoms: C_3  and  C_20
REMARK    3  A    between atoms: C_6  and  C_17
REMARK    4  A    between atoms: C_28  and  C_32
REMARK                            x       y       z     vdW  Elec       q    Type
REMARK                         _______ _______ _______ _____ _____    ______ ____
ROOT
ATOM      1  O   UNL     1      37.435 -19.568 -19.448  0.00  0.00    -0.270 OA
ATOM      2  N   UNL     1      35.529 -20.911 -19.146  0.00  0.00    -0.280 N 
ATOM      3  C   UNL     1      36.321 -19.950 -19.789  0.00  0.00    +0.249 C 
ATOM      4  H   UNL     1      34.654 -21.097 -19.560  0.00  0.00    +0.155 HD
ENDROOT
BRANCH   2  13
ATOM      5  N   UNL     1      34.380 -24.279 -14.078  0.00  0.00    +0.388 N 
ATOM      6  C   UNL     1      33.990 -23.821 -15.426  0.00  0.00    -0.039 C 
ATOM      7  C   UNL     1      35.086 -23.048 -16.149  0.00  0.00    -0.045 C 
ATOM      8  C   UNL     1      36.420 -23.118 -15.697  0.00  0.00    -0.030 C 
ATOM      9  C   UNL     1      36.771 -23.904 -14.459  0.00  0.00    +0.003 C 
ATOM     10  C   UNL     1      35.692 -24.924 -14.104  0.00  0.00    -0.076 C 
ATOM     11  C   UNL     1      34.812 -22.320 -17.318  0.00  0.00    +0.008 C 
ATOM     12  C   UNL     1      37.429 -22.418 -16.373  0.00  0.00    -0.003 C 
ATOM     13  C   UNL     1      35.826 -21.636 -17.991  0.00  0.00    +0.050 C 
ATOM     14  C   UNL     1      37.132 -21.679 -17.516  0.00  0.00    +0.014 C 
ATOM     15  H   UNL     1      33.688 -24.947 -13.739  0.00  0.00    -0.084 HD
ATOM     16  H   UNL     1      34.428 -23.470 -13.460  0.00  0.00    -0.084 HD
BRANCH   6  17
ATOM     17  C   UNL     1      32.693 -23.019 -15.258  0.00  0.00    -0.015 C 
ATOM     18  C   UNL     1      31.693 -23.392 -16.346  0.00  0.00    -0.002 C 
ATOM     19  C   UNL     1      32.101 -23.254 -13.873  0.00  0.00    -0.002 C 
ENDBRANCH   6  17
ENDBRANCH   2  13
BRANCH   3  20
ATOM     20  C   UNL     1      35.712 -19.327 -20.993  0.00  0.00    +0.054 C 
ATOM     21  C   UNL     1      35.027 -17.347 -22.176  0.00  0.00    +0.000 C 
ATOM     22  C   UNL     1      35.601 -17.952 -21.045  0.00  0.00    +0.005 C 
ATOM     23  C   UNL     1      34.572 -18.161 -23.241  0.00  0.00    +0.000 C 
ATOM     24  C   UNL     1      35.278 -20.139 -22.014  0.00  0.00    +0.005 C 
ATOM     25  C   UNL     1      34.705 -19.556 -23.144  0.00  0.00    +0.000 C 
ATOM     26  C   UNL     1      33.999 -17.556 -24.371  0.00  0.00    +0.003 C 
ATOM     27  C   UNL     1      34.894 -15.953 -22.272  0.00  0.00    +0.000 C 
ATOM     28  C   UNL     1      33.875 -16.169 -24.450  0.00  0.00    +0.031 C 
ATOM     29  C   UNL     1      34.322 -15.369 -23.402  0.00  0.00    +0.003 C 
BRANCH  28  32
ATOM     30  N   UNL     1      33.651 -14.284 -26.051  0.00  0.00    -0.343 N 
ATOM     31  N   UNL     1      32.359 -16.213 -26.313  0.00  0.00    -0.285 NA
ATOM     32  C   UNL     1      33.278 -15.558 -25.626  0.00  0.00    +0.117 C 
ATOM     33  H   UNL     1      33.235 -13.890 -26.851  0.00  0.00    +0.144 HD
ATOM     34  H   UNL     1      34.333 -13.779 -25.551  0.00  0.00    +0.144 HD
ATOM     35  H   UNL     1      31.953 -15.801 -27.110  0.00  0.00    +0.188 HD
ENDBRANCH  28  32
ENDBRANCH   3  20
TORSDOF 4
ENDMDL
MODEL 4
REMARK VINA RESULT:     -11.1      2.498     10.885
REMARK  Name = 447736
REMARK  4 active torsions:
REMARK  status: ('A' for Active; 'I' for Inactive)
REMARK    1  A    between atoms: N_2  and  C_13
REMARK    2  A    between atoms: C_3  and  C_20
REMARK    3  A    between atoms: C_6  and  C_17
REMARK    4  A    between atoms: C_28  and  C_32
REMARK                            x       y       z     vdW  Elec       q    Type
REMARK                         _______ _______ _______ _____ _____    ______ ____
ROOT
ATOM      1  O   UNL     1      32.972 -20.536 -20.735  0.00  0.00    -0.270 OA
ATOM      2  N   UNL     1      34.965 -19.389 -21.225  0.00  0.00    -0.280 N 
ATOM      3  C   UNL     1      34.152 -20.287 -20.519  0.00  0.00    +0.249 C 
ATOM      4  H   UNL     1      35.895 -19.311 -20.913  0.00  0.00    +0.155 HD
ENDROOT
BRANCH   2  13
ATOM      5  N   UNL     1      33.539 -14.173 -24.244  0.00  0.00    +0.388 N 
ATOM      6  C   UNL     1      34.209 -14.861 -23.123  0.00  0.00    -0.039 C 
ATOM      7  C   UNL     1      34.223 -16.379 -23.258  0.00  0.00    -0.045 C 
ATOM      8  C   UNL     1      33.952 -16.982 -24.503  0.00  0.00    -0.030 C 
ATOM      9  C   UNL     1      33.586 -16.143 -25.701  0.00  0.00    +0.003 C 
ATOM     10  C   UNL     1      34.010 -14.687 -25.529  0.00  0.00    -0.076 C 
ATOM     11  C   UNL     1      34.579 -17.201 -22.177  0.00  0.00    +0.008 C 
ATOM     12  C   UNL     1      33.980 -18.379 -24.628  0.00  0.00    -0.003 C 
ATOM     13  C   UNL     1      34.616 -18.591 -22.315  0.00  0.00    +0.050 C 
ATOM     14  C   UNL     1      34.311 -19.179 -23.537  0.00  0.00    +0.014 C 
ATOM     15  H   UNL     1      33.739 -13.175 -24.191  0.00  0.00    -0.084 HD
ATOM     16  H   UNL     1      32.535 -14.341 -24.176  0.00  0.00    -0.084 HD
BRANCH   6  17
ATOM     17  C   UNL     1      33.527 -14.373 -21.839  0.00  0.00    -0.015 C 
ATOM     18  C   UNL     1      34.569 -14.044 -20.776  0.00  0.00    -0.002 C 
ATOM     19  C   UNL     1      32.650 -13.161 -22.132  0.00  0.00    -0.002 C 
ENDBRANCH   6  17
ENDBRANCH   2  13
BRANCH   3  20
ATOM     20  C   UNL     1      34.809 -20.975 -19.377  0.00  0.00    +0.054 C 
ATOM     21  C   UNL     1      34.640 -22.393 -17.441  0.00  0.00    +0.000 C 
ATOM     22  C   UNL     1      34.034 -21.736 -18.526  0.00  0.00    +0.005 C 
ATOM     23  C   UNL     1      36.035 -22.260 -17.242  0.00  0.00    +0.000 C 
ATOM     24  C   UNL     1      36.166 -20.830 -19.206  0.00  0.00    +0.005 C 
ATOM     25  C   UNL     1      36.784 -21.474 -18.134  0.00  0.00    +0.000 C 
ATOM     26  C   UNL     1      36.639 -22.916 -16.158  0.00  0.00    +0.003 C 
ATOM     27  C   UNL     1      33.891 -23.178 -16.551  0.00  0.00    +0.000 C 
ATOM     28  C   UNL     1      35.880 -23.693 -15.283  0.00  0.00    +0.031 C 
ATOM     29  C   UNL     1      34.508 -23.824 -15.479  0.00  0.00    +0.003 C 
BRANCH  28  32
ATOM     30  N   UNL     1      35.885 -25.398 -13.478  0.00  0.00    -0.343 N 
ATOM     31  N   UNL     1      37.730 -23.997 -13.780  0.00  0.00    -0.285 NA
ATOM     32  C   UNL     1      36.521 -24.365 -14.164  0.00  0.00    +0.117 C 
ATOM     33  H   UNL     1      36.338 -25.840 -12.723  0.00  0.00    +0.144 HD
ATOM     34  H   UNL     1      34.983 -25.686 -13.747  0.00  0.00    +0.144 HD
ATOM     35  H   UNL     1      38.166 -24.451 -13.023  0.00  0.00    +0.188 HD
ENDBRANCH  28  32
ENDBRANCH   3  20
TORSDOF 4
ENDMDL
MODEL 5
REMARK VINA RESULT:     -10.9      8.671     15.268
REMARK  Name = 447736
REMARK  4 active torsions:
REMARK  status: ('A' for Active; 'I' for Inactive)
REMARK    1  A    between atoms: N_2  and  C_13
REMARK    2  A    between atoms: C_3  and  C_20
REMARK    3  A    between atoms: C_6  and  C_17
REMARK    4  A    between atoms: C_28  and  C_32
REMARK                            x       y       z     vdW  Elec       q    Type
REMARK                         _______ _______ _______ _____ _____    ______ ____
ROOT
ATOM      1  O   UNL     1      34.304 -10.613 -24.375  0.00  0.00    -0.270 OA
ATOM      2  N   UNL     1      32.754 -10.878 -22.627  0.00  0.00    -0.280 N 
ATOM      3  C   UNL     1      33.649 -11.316 -23.613  0.00  0.00    +0.249 C 
ATOM      4  H   UNL     1      32.311 -11.584 -22.102  0.00  0.00    +0.155 HD
ENDROOT
BRANCH   2  13
ATOM      5  N   UNL     1      32.221  -4.759 -23.418  0.00  0.00    +0.388 N 
ATOM      6  C   UNL     1      32.319  -6.120 -23.983  0.00  0.00    -0.039 C 
ATOM      7  C   UNL     1      32.212  -7.224 -22.939  0.00  0.00    -0.045 C 
ATOM      8  C   UNL     1      31.700  -6.940 -21.656  0.00  0.00    -0.030 C 
ATOM      9  C   UNL     1      31.313  -5.533 -21.278  0.00  0.00    +0.003 C 
ATOM     10  C   UNL     1      31.085  -4.653 -22.504  0.00  0.00    -0.076 C 
ATOM     11  C   UNL     1      32.540  -8.553 -23.251  0.00  0.00    +0.008 C 
ATOM     12  C   UNL     1      31.588  -7.961 -20.702  0.00  0.00    -0.003 C 
ATOM     13  C   UNL     1      32.414  -9.566 -22.297  0.00  0.00    +0.050 C 
ATOM     14  C   UNL     1      31.944  -9.269 -21.022  0.00  0.00    +0.014 C 
ATOM     15  H   UNL     1      32.101  -4.090 -24.178  0.00  0.00    -0.084 HD
ATOM     16  H   UNL     1      33.076  -4.560 -22.898  0.00  0.00    -0.084 HD
BRANCH   6  17
ATOM     17  C   UNL     1      33.627  -6.168 -24.784  0.00  0.00    -0.015 C 
ATOM     18  C   UNL     1      33.753  -4.933 -25.669  0.00  0.00    -0.002 C 
ATOM     19  C   UNL     1      34.820  -6.285 -23.843  0.00  0.00    -0.002 C 
ENDBRANCH   6  17
ENDBRANCH   2  13
BRANCH   3  20
ATOM     20  C   UNL     1      33.779 -12.790 -23.744  0.00  0.00    +0.054 C 
ATOM     21  C   UNL     1      34.364 -14.911 -22.771  0.00  0.00    +0.000 C 
ATOM     22  C   UNL     1      34.234 -13.516 -22.662  0.00  0.00    +0.005 C 
ATOM     23  C   UNL     1      34.025 -15.545 -23.990  0.00  0.00    +0.000 C 
ATOM     24  C   UNL     1      33.444 -13.382 -24.939  0.00  0.00    +0.005 C 
ATOM     25  C   UNL     1      33.567 -14.766 -25.065  0.00  0.00    +0.000 C 
ATOM     26  C   UNL     1      34.155 -16.939 -24.098  0.00  0.00    +0.003 C 
ATOM     27  C   UNL     1      34.822 -15.689 -21.696  0.00  0.00    +0.000 C 
ATOM     28  C   UNL     1      34.611 -17.697 -23.020  0.00  0.00    +0.031 C 
ATOM     29  C   UNL     1      34.944 -17.073 -21.821  0.00  0.00    +0.003 C 
BRANCH  28  32
ATOM     30  N   UNL     1      34.569 -19.777 -24.375  0.00  0.00    -0.343 N 
ATOM     31  N   UNL     1      35.026 -19.872 -22.086  0.00  0.00    -0.285 NA
ATOM     32  C   UNL     1      34.741 -19.140 -23.148  0.00  0.00    +0.117 C 
ATOM     33  H   UNL     1      34.662 -20.755 -24.440  0.00  0.00    +0.144 HD
ATOM     34  H   UNL     1      34.354 -19.249 -25.178  0.00  0.00    +0.144 HD
ATOM     35  H   UNL     1      35.114 -20.849 -22.171  0.00  0.00    +0.188 HD
ENDBRANCH  28  32
ENDBRANCH   3  20
TORSDOF 4
ENDMDL
MODEL 6
REMARK VINA RESULT:     -10.7      2.369     10.500
REMARK  Name = 447736
REMARK  4 active torsions:
REMARK  status: ('A' for Active; 'I' for Inactive)
REMARK    1  A    between atoms: N_2  and  C_13
REMARK    2  A    between atoms: C_3  and  C_20
REMARK    3  A    between atoms: C_6  and  C_17
REMARK    4  A    between atoms: C_28  and  C_32
REMARK                            x       y       z     vdW  Elec       q    Type
REMARK                         _______ _______ _______ _____ _____    ______ ____
ROOT
ATOM      1  O   UNL     1      32.551 -20.730 -20.538  0.00  0.00    -0.270 OA
ATOM      2  N   UNL     1      34.725 -19.871 -20.790  0.00  0.00    -0.280 N 
ATOM      3  C   UNL     1      33.724 -20.648 -20.191  0.00  0.00    +0.249 C 
ATOM      4  H   UNL     1      35.617 -19.925 -20.378  0.00  0.00    +0.155 HD
ENDROOT
BRANCH   2  13
ATOM      5  N   UNL     1      34.119 -14.520 -23.848  0.00  0.00    +0.388 N 
ATOM      6  C   UNL     1      34.549 -15.269 -22.651  0.00  0.00    -0.039 C 
ATOM      7  C   UNL     1      34.505 -16.782 -22.828  0.00  0.00    -0.045 C 
ATOM      8  C   UNL     1      34.421 -17.343 -24.119  0.00  0.00    -0.030 C 
ATOM      9  C   UNL     1      34.311 -16.459 -25.335  0.00  0.00    +0.003 C 
ATOM     10  C   UNL     1      34.776 -15.033 -25.049  0.00  0.00    -0.076 C 
ATOM     11  C   UNL     1      34.626 -17.646 -21.727  0.00  0.00    +0.008 C 
ATOM     12  C   UNL     1      34.396 -18.736 -24.279  0.00  0.00    -0.003 C 
ATOM     13  C   UNL     1      34.612 -19.032 -21.899  0.00  0.00    +0.050 C 
ATOM     14  C   UNL     1      34.490 -19.576 -23.173  0.00  0.00    +0.014 C 
ATOM     15  H   UNL     1      34.360 -13.536 -23.731  0.00  0.00    -0.084 HD
ATOM     16  H   UNL     1      33.111 -14.631 -23.957  0.00  0.00    -0.084 HD
BRANCH   6  17
ATOM     17  C   UNL     1      33.683 -14.770 -21.487  0.00  0.00    -0.015 C 
ATOM     18  C   UNL     1      34.561 -14.353 -20.313  0.00  0.00    -0.002 C 
ATOM     19  C   UNL     1      32.801 -13.612 -21.942  0.00  0.00    -0.002 C 
ENDBRANCH   6  17
ENDBRANCH   2  13
BRANCH   3  20
ATOM     20  C   UNL     1      34.149 -21.422 -18.996  0.00  0.00    +0.054 C 
ATOM     21  C   UNL     1      35.879 -22.054 -17.448  0.00  0.00    +0.000 C 
ATOM     22  C   UNL     1      35.460 -21.327 -18.576  0.00  0.00    +0.005 C 
ATOM     23  C   UNL     1      34.946 -22.870 -16.764  0.00  0.00    +0.000 C 
ATOM     24  C   UNL     1      33.224 -22.207 -18.350  0.00  0.00    +0.005 C 
ATOM     25  C   UNL     1      33.622 -22.936 -17.228  0.00  0.00    +0.000 C 
ATOM     26  C   UNL     1      35.365 -23.595 -15.638  0.00  0.00    +0.003 C 
ATOM     27  C   UNL     1      37.202 -21.987 -16.985  0.00  0.00    +0.000 C 
ATOM     28  C   UNL     1      36.684 -23.517 -15.191  0.00  0.00    +0.031 C 
ATOM     29  C   UNL     1      37.601 -22.714 -15.864  0.00  0.00    +0.003 C 
BRANCH  28  32
ATOM     30  N   UNL     1      36.692 -23.917 -12.740  0.00  0.00    -0.343 N 
ATOM     31  N   UNL     1      37.890 -25.327 -14.168  0.00  0.00    -0.285 NA
ATOM     32  C   UNL     1      37.102 -24.276 -14.023  0.00  0.00    +0.117 C 
ATOM     33  H   UNL     1      36.986 -24.446 -11.963  0.00  0.00    +0.144 HD
ATOM     34  H   UNL     1      36.107 -23.136 -12.611  0.00  0.00    +0.144 HD
ATOM     35  H   UNL     1      38.173 -25.842 -13.378  0.00  0.00    +0.188 HD
ENDBRANCH  28  32
ENDBRANCH   3  20
TORSDOF 4
ENDMDL
MODEL 7
REMARK VINA RESULT:     -10.6      9.562     16.280
REMARK  Name = 447736
REMARK  4 active torsions:
REMARK  status: ('A' for Active; 'I' for Inactive)
REMARK    1  A    between atoms: N_2  and  C_13
REMARK    2  A    between atoms: C_3  and  C_20
REMARK    3  A    between atoms: C_6  and  C_17
REMARK    4  A    between atoms: C_28  and  C_32
REMARK                            x       y       z     vdW  Elec       q    Type
REMARK                         _______ _______ _______ _____ _____    ______ ____
ROOT
ATOM      1  O   UNL     1      30.435 -10.197 -21.748  0.00  0.00    -0.270 OA
ATOM      2  N   UNL     1      32.561  -9.227 -22.003  0.00  0.00    -0.280 N 
ATOM      3  C   UNL     1      31.658 -10.278 -21.797  0.00  0.00    +0.249 C 
ATOM      4  H   UNL     1      33.515  -9.473 -22.012  0.00  0.00    +0.155 HD
ENDROOT
BRANCH   2  13
ATOM      5  N   UNL     1      32.587  -3.754 -24.899  0.00  0.00    +0.388 N 
ATOM      6  C   UNL     1      32.661  -5.228 -24.946  0.00  0.00    -0.039 C 
ATOM      7  C   UNL     1      32.334  -5.898 -23.618  0.00  0.00    -0.045 C 
ATOM      8  C   UNL     1      31.677  -5.174 -22.601  0.00  0.00    -0.030 C 
ATOM      9  C   UNL     1      31.346  -3.716 -22.787  0.00  0.00    +0.003 C 
ATOM     10  C   UNL     1      31.350  -3.312 -24.260  0.00  0.00    -0.076 C 
ATOM     11  C   UNL     1      32.604  -7.259 -23.405  0.00  0.00    +0.008 C 
ATOM     12  C   UNL     1      31.364  -5.798 -21.385  0.00  0.00    -0.003 C 
ATOM     13  C   UNL     1      32.276  -7.875 -22.195  0.00  0.00    +0.050 C 
ATOM     14  C   UNL     1      31.663  -7.144 -21.183  0.00  0.00    +0.014 C 
ATOM     15  H   UNL     1      32.620  -3.387 -25.851  0.00  0.00    -0.084 HD
ATOM     16  H   UNL     1      33.377  -3.405 -24.355  0.00  0.00    -0.084 HD
BRANCH   6  17
ATOM     17  C   UNL     1      34.057  -5.580 -25.475  0.00  0.00    -0.015 C 
ATOM     18  C   UNL     1      34.628  -4.417 -26.280  0.00  0.00    -0.002 C 
ATOM     19  C   UNL     1      34.984  -5.948 -24.322  0.00  0.00    -0.002 C 
ENDBRANCH   6  17
ENDBRANCH   2  13
BRANCH   3  20
ATOM     20  C   UNL     1      32.273 -11.615 -21.593  0.00  0.00    +0.054 C 
ATOM     21  C   UNL     1      33.585 -13.441 -22.448  0.00  0.00    +0.000 C 
ATOM     22  C   UNL     1      32.998 -12.177 -22.624  0.00  0.00    +0.005 C 
ATOM     23  C   UNL     1      33.421 -14.115 -21.214  0.00  0.00    +0.000 C 
ATOM     24  C   UNL     1      32.099 -12.249 -20.385  0.00  0.00    +0.005 C 
ATOM     25  C   UNL     1      32.674 -13.505 -20.193  0.00  0.00    +0.000 C 
ATOM     26  C   UNL     1      34.008 -15.378 -21.038  0.00  0.00    +0.003 C 
ATOM     27  C   UNL     1      34.331 -14.050 -23.469  0.00  0.00    +0.000 C 
ATOM     28  C   UNL     1      34.747 -15.969 -22.064  0.00  0.00    +0.031 C 
ATOM     29  C   UNL     1      34.908 -15.306 -23.277  0.00  0.00    +0.003 C 
BRANCH  28  32
ATOM     30  N   UNL     1      35.336 -17.901 -20.619  0.00  0.00    -0.343 N 
ATOM     31  N   UNL     1      35.922 -17.899 -22.882  0.00  0.00    -0.285 NA
ATOM     32  C   UNL     1      35.348 -17.278 -21.866  0.00  0.00    +0.117 C 
ATOM     33  H   UNL     1      35.748 -18.788 -20.508  0.00  0.00    +0.144 HD
ATOM     34  H   UNL     1      34.915 -17.454 -19.850  0.00  0.00    +0.144 HD
ATOM     35  H   UNL     1      36.329 -18.786 -22.750  0.00  0.00    +0.188 HD
ENDBRANCH  28  32
ENDBRANCH   3  20
TORSDOF 4
ENDMDL
MODEL 8
REMARK VINA RESULT:     -10.6      8.813     15.585
REMARK  Name = 447736
REMARK  4 active torsions:
REMARK  status: ('A' for Active; 'I' for Inactive)
REMARK    1  A    between atoms: N_2  and  C_13
REMARK    2  A    between atoms: C_3  and  C_20
REMARK    3  A    between atoms: C_6  and  C_17
REMARK    4  A    between atoms: C_28  and  C_32
REMARK                            x       y       z     vdW  Elec       q    Type
REMARK                         _______ _______ _______ _____ _____    ______ ____
ROOT
ATOM      1  O   UNL     1      31.186 -11.412 -21.561  0.00  0.00    -0.270 OA
ATOM      2  N   UNL     1      32.998 -10.238 -22.490  0.00  0.00    -0.280 N 
ATOM      3  C   UNL     1      32.280 -11.381 -22.113  0.00  0.00    +0.249 C 
ATOM      4  H   UNL     1      33.867 -10.397 -22.925  0.00  0.00    +0.155 HD
ENDROOT
BRANCH   2  13
ATOM      5  N   UNL     1      32.323  -4.279 -24.036  0.00  0.00    +0.388 N 
ATOM      6  C   UNL     1      32.443  -5.698 -24.427  0.00  0.00    -0.039 C 
ATOM      7  C   UNL     1      32.373  -6.663 -23.251  0.00  0.00    -0.045 C 
ATOM      8  C   UNL     1      31.872  -6.230 -22.006  0.00  0.00    -0.030 C 
ATOM      9  C   UNL     1      31.460  -4.794 -21.802  0.00  0.00    +0.003 C 
ATOM     10  C   UNL     1      31.197  -4.081 -23.126  0.00  0.00    -0.076 C 
ATOM     11  C   UNL     1      32.726  -8.014 -23.398  0.00  0.00    +0.008 C 
ATOM     12  C   UNL     1      31.795  -7.125 -20.930  0.00  0.00    -0.003 C 
ATOM     13  C   UNL     1      32.634  -8.901 -22.323  0.00  0.00    +0.050 C 
ATOM     14  C   UNL     1      32.175  -8.456 -21.088  0.00  0.00    +0.014 C 
ATOM     15  H   UNL     1      32.178  -3.713 -24.873  0.00  0.00    -0.084 HD
ATOM     16  H   UNL     1      33.180  -3.999 -23.559  0.00  0.00    -0.084 HD
BRANCH   6  17
ATOM     17  C   UNL     1      33.741  -5.821 -25.236  0.00  0.00    -0.015 C 
ATOM     18  C   UNL     1      33.896  -4.629 -26.174  0.00  0.00    -0.002 C 
ATOM     19  C   UNL     1      34.939  -5.935 -24.301  0.00  0.00    -0.002 C 
ENDBRANCH   6  17
ENDBRANCH   2  13
BRANCH   3  20
ATOM     20  C   UNL     1      32.950 -12.676 -22.401  0.00  0.00    +0.054 C 
ATOM     21  C   UNL     1      33.968 -14.702 -21.599  0.00  0.00    +0.000 C 
ATOM     22  C   UNL     1      33.333 -13.475 -21.344  0.00  0.00    +0.005 C 
ATOM     23  C   UNL     1      34.204 -15.094 -22.938  0.00  0.00    +0.000 C 
ATOM     24  C   UNL     1      33.167 -13.034 -23.711  0.00  0.00    +0.005 C 
ATOM     25  C   UNL     1      33.797 -14.248 -23.983  0.00  0.00    +0.000 C 
ATOM     26  C   UNL     1      34.839 -16.320 -23.193  0.00  0.00    +0.003 C 
ATOM     27  C   UNL     1      34.374 -15.547 -20.554  0.00  0.00    +0.000 C 
ATOM     28  C   UNL     1      35.235 -17.148 -22.143  0.00  0.00    +0.031 C 
ATOM     29  C   UNL     1      35.004 -16.762 -20.825  0.00  0.00    +0.003 C 
BRANCH  28  32
ATOM     30  N   UNL     1      37.249 -18.601 -22.161  0.00  0.00    -0.343 N 
ATOM     31  N   UNL     1      35.201 -19.415 -22.939  0.00  0.00    -0.285 NA
ATOM     32  C   UNL     1      35.893 -18.415 -22.423  0.00  0.00    +0.117 C 
ATOM     33  H   UNL     1      37.674 -19.468 -22.358  0.00  0.00    +0.144 HD
ATOM     34  H   UNL     1      37.782 -17.867 -21.778  0.00  0.00    +0.144 HD
ATOM     35  H   UNL     1      35.645 -20.273 -23.130  0.00  0.00    +0.188 HD
ENDBRANCH  28  32
ENDBRANCH   3  20
TORSDOF 4
ENDMDL
MODEL 9
REMARK VINA RESULT:     -10.6      2.827     10.554
REMARK  Name = 447736
REMARK  4 active torsions:
REMARK  status: ('A' for Active; 'I' for Inactive)
REMARK    1  A    between atoms: N_2  and  C_13
REMARK    2  A    between atoms: C_3  and  C_20
REMARK    3  A    between atoms: C_6  and  C_17
REMARK    4  A    between atoms: C_28  and  C_32
REMARK                            x       y       z     vdW  Elec       q    Type
REMARK                         _______ _______ _______ _____ _____    ______ ____
ROOT
ATOM      1  O   UNL     1      36.759 -21.099 -20.503  0.00  0.00    -0.270 OA
ATOM      2  N   UNL     1      34.722 -19.942 -20.303  0.00  0.00    -0.280 N 
ATOM      3  C   UNL     1      35.727 -20.832 -19.898  0.00  0.00    +0.249 C 
ATOM      4  H   UNL     1      33.956 -19.849 -19.691  0.00  0.00    +0.155 HD
ENDROOT
BRANCH   2  13
ATOM      5  N   UNL     1      34.343 -14.788 -23.715  0.00  0.00    +0.388 N 
ATOM      6  C   UNL     1      34.706 -15.465 -22.454  0.00  0.00    -0.039 C 
ATOM      7  C   UNL     1      34.646 -16.985 -22.538  0.00  0.00    -0.045 C 
ATOM      8  C   UNL     1      34.613 -17.625 -23.793  0.00  0.00    -0.030 C 
ATOM      9  C   UNL     1      34.573 -16.819 -25.066  0.00  0.00    +0.003 C 
ATOM     10  C   UNL     1      35.047 -15.384 -24.849  0.00  0.00    -0.076 C 
ATOM     11  C   UNL     1      34.702 -17.779 -21.381  0.00  0.00    +0.008 C 
ATOM     12  C   UNL     1      34.573 -19.025 -23.868  0.00  0.00    -0.003 C 
ATOM     13  C   UNL     1      34.674 -19.173 -21.466  0.00  0.00    +0.050 C 
ATOM     14  C   UNL     1      34.603 -19.796 -22.707  0.00  0.00    +0.014 C 
ATOM     15  H   UNL     1      34.595 -13.802 -23.648  0.00  0.00    -0.084 HD
ATOM     16  H   UNL     1      33.340 -14.892 -23.864  0.00  0.00    -0.084 HD
BRANCH   6  17
ATOM     17  C   UNL     1      33.795 -14.882 -21.366  0.00  0.00    -0.015 C 
ATOM     18  C   UNL     1      34.627 -14.379 -20.191  0.00  0.00    -0.002 C 
ATOM     19  C   UNL     1      32.934 -13.762 -21.940  0.00  0.00    -0.002 C 
ENDBRANCH   6  17
ENDBRANCH   2  13
BRANCH   3  20
ATOM     20  C   UNL     1      35.476 -21.532 -18.611  0.00  0.00    +0.054 C 
ATOM     21  C   UNL     1      33.947 -22.646 -17.126  0.00  0.00    +0.000 C 
ATOM     22  C   UNL     1      34.201 -21.984 -18.339  0.00  0.00    +0.005 C 
ATOM     23  C   UNL     1      35.006 -22.836 -16.205  0.00  0.00    +0.000 C 
ATOM     24  C   UNL     1      36.521 -21.704 -17.735  0.00  0.00    +0.005 C 
ATOM     25  C   UNL     1      36.287 -22.359 -16.525  0.00  0.00    +0.000 C 
ATOM     26  C   UNL     1      34.751 -23.498 -14.994  0.00  0.00    +0.003 C 
ATOM     27  C   UNL     1      32.666 -23.123 -16.807  0.00  0.00    +0.000 C 
ATOM     28  C   UNL     1      33.472 -23.966 -14.693  0.00  0.00    +0.031 C 
ATOM     29  C   UNL     1      32.431 -23.779 -15.598  0.00  0.00    +0.003 C 
BRANCH  28  32
ATOM     30  N   UNL     1      32.030 -25.326 -13.197  0.00  0.00    -0.343 N 
ATOM     31  N   UNL     1      34.145 -24.632 -12.484  0.00  0.00    -0.285 NA
ATOM     32  C   UNL     1      33.225 -24.649 -13.433  0.00  0.00    +0.117 C 
ATOM     33  H   UNL     1      31.884 -25.782 -12.337  0.00  0.00    +0.144 HD
ATOM     34  H   UNL     1      31.332 -25.348 -13.891  0.00  0.00    +0.144 HD
ATOM     35  H   UNL     1      33.979 -25.094 -11.630  0.00  0.00    +0.188 HD
ENDBRANCH  28  32
ENDBRANCH   3  20
TORSDOF 4
ENDMDL
