MODEL 1
REMARK VINA RESULT:     -12.2      0.000      0.000
REMARK  Name = 6419766
REMARK  1 active torsions:
REMARK  status: ('A' for Active; 'I' for Inactive)
REMARK    1  A    between atoms: C_9  and  C_20
REMARK                            x       y       z     vdW  Elec       q    Type
REMARK                         _______ _______ _______ _____ _____    ______ ____
ROOT
ATOM      1  N   UNL     1      34.265 -24.114 -14.174  0.00  0.00    -0.274 N 
ATOM      2  N   UNL     1      34.006 -23.029 -16.246  0.00  0.00    -0.328 NA
ATOM      3  N   UNL     1      31.817 -22.698 -17.195  0.00  0.00    -0.343 NA
ATOM      4  N   UNL     1      37.471 -25.177 -14.753  0.00  0.00    -0.239 N 
ATOM      5  N   UNL     1      36.329 -24.681 -15.259  0.00  0.00    -0.166 NA
ATOM      6  C   UNL     1      32.037 -23.808 -15.082  0.00  0.00    +0.143 C 
ATOM      7  C   UNL     1      33.413 -23.635 -15.201  0.00  0.00    +0.185 C 
ATOM      8  C   UNL     1      31.257 -23.308 -16.137  0.00  0.00    +0.133 C 
ATOM      9  C   UNL     1      33.161 -22.591 -17.193  0.00  0.00    +0.138 C 
ATOM     10  C   UNL     1      35.586 -24.590 -14.185  0.00  0.00    +0.152 C 
ATOM     11  C   UNL     1      31.441 -24.445 -13.979  0.00  0.00    -0.011 C 
ATOM     12  C   UNL     1      29.876 -23.464 -16.053  0.00  0.00    +0.029 C 
ATOM     13  C   UNL     1      36.177 -24.999 -13.002  0.00  0.00    +0.048 C 
ATOM     14  C   UNL     1      37.432 -25.387 -13.406  0.00  0.00    +0.046 C 
ATOM     15  C   UNL     1      30.058 -24.587 -13.923  0.00  0.00    -0.004 C 
ATOM     16  C   UNL     1      29.274 -24.096 -14.960  0.00  0.00    +0.002 C 
ATOM     17  C   UNL     1      38.582 -25.925 -12.662  0.00  0.00    +0.049 C 
ATOM     18  H   UNL     1      33.851 -24.113 -13.282  0.00  0.00    +0.156 HD
ATOM     19  H   UNL     1      38.263 -25.372 -15.304  0.00  0.00    +0.174 HD
ENDROOT
BRANCH   9  20
ATOM     20  C   UNL     1      33.753 -21.936 -18.330  0.00  0.00    +0.086 C 
ATOM     21  C   UNL     1      32.957 -21.205 -19.216  0.00  0.00    +0.012 C 
ATOM     22  C   UNL     1      35.130 -22.026 -18.556  0.00  0.00    +0.012 C 
ATOM     23  C   UNL     1      33.531 -20.569 -20.316  0.00  0.00    +0.001 C 
ATOM     24  C   UNL     1      35.705 -21.390 -19.656  0.00  0.00    +0.001 C 
ATOM     25  C   UNL     1      34.905 -20.661 -20.537  0.00  0.00    +0.000 C 
ENDBRANCH   9  20
TORSDOF 1
ENDMDL
MODEL 2
REMARK VINA RESULT:     -11.6      1.533      5.763
REMARK  Name = 6419766
REMARK  1 active torsions:
REMARK  status: ('A' for Active; 'I' for Inactive)
REMARK    1  A    between atoms: C_9  and  C_20
REMARK                            x       y       z     vdW  Elec       q    Type
REMARK                         _______ _______ _______ _____ _____    ______ ____
ROOT
ATOM      1  N   UNL     1      33.324 -22.615 -17.681  0.00  0.00    -0.274 N 
ATOM      2  N   UNL     1      34.748 -23.788 -16.221  0.00  0.00    -0.328 NA
ATOM      3  N   UNL     1      33.932 -24.620 -14.112  0.00  0.00    -0.343 NA
ATOM      4  N   UNL     1      35.822 -20.889 -19.268  0.00  0.00    -0.239 N 
ATOM      5  N   UNL     1      35.449 -21.638 -18.217  0.00  0.00    -0.166 NA
ATOM      6  C   UNL     1      32.448 -23.429 -15.572  0.00  0.00    +0.143 C 
ATOM      7  C   UNL     1      33.516 -23.299 -16.454  0.00  0.00    +0.185 C 
ATOM      8  C   UNL     1      32.713 -24.118 -14.377  0.00  0.00    +0.133 C 
ATOM      9  C   UNL     1      34.884 -24.427 -15.048  0.00  0.00    +0.138 C 
ATOM     10  C   UNL     1      34.188 -21.860 -18.490  0.00  0.00    +0.152 C 
ATOM     11  C   UNL     1      31.169 -22.909 -15.838  0.00  0.00    -0.011 C 
ATOM     12  C   UNL     1      31.669 -24.269 -13.469  0.00  0.00    +0.029 C 
ATOM     13  C   UNL     1      33.713 -21.298 -19.663  0.00  0.00    +0.048 C 
ATOM     14  C   UNL     1      34.820 -20.655 -20.163  0.00  0.00    +0.046 C 
ATOM     15  C   UNL     1      30.145 -23.074 -14.912  0.00  0.00    -0.004 C 
ATOM     16  C   UNL     1      30.394 -23.754 -13.726  0.00  0.00    +0.002 C 
ATOM     17  C   UNL     1      35.026 -19.856 -21.382  0.00  0.00    +0.049 C 
ATOM     18  H   UNL     1      32.408 -22.683 -18.034  0.00  0.00    +0.156 HD
ATOM     19  H   UNL     1      36.736 -20.540 -19.381  0.00  0.00    +0.174 HD
ENDROOT
BRANCH   9  20
ATOM     20  C   UNL     1      36.186 -24.968 -14.757  0.00  0.00    +0.086 C 
ATOM     21  C   UNL     1      37.290 -24.119 -14.635  0.00  0.00    +0.012 C 
ATOM     22  C   UNL     1      36.356 -26.346 -14.593  0.00  0.00    +0.012 C 
ATOM     23  C   UNL     1      38.551 -24.643 -14.351  0.00  0.00    +0.001 C 
ATOM     24  C   UNL     1      37.616 -26.870 -14.310  0.00  0.00    +0.001 C 
ATOM     25  C   UNL     1      38.715 -26.018 -14.188  0.00  0.00    +0.000 C 
ENDBRANCH   9  20
TORSDOF 1
ENDMDL
MODEL 3
REMARK VINA RESULT:     -11.6      1.258      4.946
REMARK  Name = 6419766
REMARK  1 active torsions:
REMARK  status: ('A' for Active; 'I' for Inactive)
REMARK    1  A    between atoms: C_9  and  C_20
REMARK                            x       y       z     vdW  Elec       q    Type
REMARK                         _______ _______ _______ _____ _____    ______ ____
ROOT
ATOM      1  N   UNL     1      35.735 -23.302 -15.754  0.00  0.00    -0.274 N 
ATOM      2  N   UNL     1      33.385 -23.363 -15.857  0.00  0.00    -0.328 NA
ATOM      3  N   UNL     1      32.210 -22.383 -17.717  0.00  0.00    -0.343 NA
ATOM      4  N   UNL     1      35.927 -23.555 -12.343  0.00  0.00    -0.239 N 
ATOM      5  N   UNL     1      35.167 -23.310 -13.423  0.00  0.00    -0.166 NA
ATOM      6  C   UNL     1      34.605 -22.299 -17.651  0.00  0.00    +0.143 C 
ATOM      7  C   UNL     1      34.537 -22.979 -16.439  0.00  0.00    +0.185 C 
ATOM      8  C   UNL     1      33.378 -22.014 -18.271  0.00  0.00    +0.133 C 
ATOM      9  C   UNL     1      32.276 -23.037 -16.540  0.00  0.00    +0.138 C 
ATOM     10  C   UNL     1      36.036 -23.455 -14.391  0.00  0.00    +0.152 C 
ATOM     11  C   UNL     1      35.821 -21.909 -18.239  0.00  0.00    -0.011 C 
ATOM     12  C   UNL     1      33.406 -21.334 -19.485  0.00  0.00    +0.029 C 
ATOM     13  C   UNL     1      37.325 -23.782 -14.006  0.00  0.00    +0.048 C 
ATOM     14  C   UNL     1      37.228 -23.842 -12.637  0.00  0.00    +0.046 C 
ATOM     15  C   UNL     1      35.819 -21.230 -19.453  0.00  0.00    -0.004 C 
ATOM     16  C   UNL     1      34.611 -20.942 -20.078  0.00  0.00    +0.002 C 
ATOM     17  C   UNL     1      38.221 -24.140 -11.592  0.00  0.00    +0.049 C 
ATOM     18  H   UNL     1      36.506 -23.446 -16.349  0.00  0.00    +0.156 HD
ATOM     19  H   UNL     1      35.578 -23.529 -11.423  0.00  0.00    +0.174 HD
ENDROOT
BRANCH   9  20
ATOM     20  C   UNL     1      31.022 -23.428 -15.953  0.00  0.00    +0.086 C 
ATOM     21  C   UNL     1      29.833 -22.811 -16.353  0.00  0.00    +0.012 C 
ATOM     22  C   UNL     1      30.982 -24.431 -14.979  0.00  0.00    +0.012 C 
ATOM     23  C   UNL     1      28.617 -23.192 -15.786  0.00  0.00    +0.001 C 
ATOM     24  C   UNL     1      29.767 -24.812 -14.412  0.00  0.00    +0.001 C 
ATOM     25  C   UNL     1      28.583 -24.193 -14.816  0.00  0.00    +0.000 C 
ENDBRANCH   9  20
TORSDOF 1
ENDMDL
MODEL 4
REMARK VINA RESULT:     -10.7      1.664      5.236
REMARK  Name = 6419766
REMARK  1 active torsions:
REMARK  status: ('A' for Active; 'I' for Inactive)
REMARK    1  A    between atoms: C_9  and  C_20
REMARK                            x       y       z     vdW  Elec       q    Type
REMARK                         _______ _______ _______ _____ _____    ______ ____
ROOT
ATOM      1  N   UNL     1      32.765 -23.926 -15.856  0.00  0.00    -0.274 N 
ATOM      2  N   UNL     1      33.901 -22.611 -17.442  0.00  0.00    -0.328 NA
ATOM      3  N   UNL     1      36.257 -22.166 -17.210  0.00  0.00    -0.343 NA
ATOM      4  N   UNL     1      29.674 -22.573 -16.453  0.00  0.00    -0.239 N 
ATOM      5  N   UNL     1      31.005 -22.478 -16.606  0.00  0.00    -0.166 NA
ATOM      6  C   UNL     1      35.137 -23.512 -15.572  0.00  0.00    +0.143 C 
ATOM      7  C   UNL     1      33.969 -23.330 -16.306  0.00  0.00    +0.185 C 
ATOM      8  C   UNL     1      36.291 -22.891 -16.078  0.00  0.00    +0.133 C 
ATOM      9  C   UNL     1      35.064 -22.065 -17.830  0.00  0.00    +0.138 C 
ATOM     10  C   UNL     1      31.417 -23.553 -15.984  0.00  0.00    +0.152 C 
ATOM     11  C   UNL     1      35.184 -24.269 -14.387  0.00  0.00    -0.011 C 
ATOM     12  C   UNL     1      37.478 -23.051 -15.370  0.00  0.00    +0.029 C 
ATOM     13  C   UNL     1      30.430 -24.350 -15.430  0.00  0.00    +0.048 C 
ATOM     14  C   UNL     1      29.277 -23.676 -15.754  0.00  0.00    +0.046 C 
ATOM     15  C   UNL     1      36.385 -24.410 -13.700  0.00  0.00    -0.004 C 
ATOM     16  C   UNL     1      37.533 -23.801 -14.191  0.00  0.00    +0.002 C 
ATOM     17  C   UNL     1      27.860 -23.962 -15.479  0.00  0.00    +0.049 C 
ATOM     18  H   UNL     1      32.899 -24.764 -15.357  0.00  0.00    +0.156 HD
ATOM     19  H   UNL     1      29.043 -21.908 -16.810  0.00  0.00    +0.174 HD
ENDROOT
BRANCH   9  20
ATOM     20  C   UNL     1      35.037 -21.287 -19.041  0.00  0.00    +0.086 C 
ATOM     21  C   UNL     1      33.819 -20.971 -19.649  0.00  0.00    +0.012 C 
ATOM     22  C   UNL     1      36.230 -20.840 -19.618  0.00  0.00    +0.012 C 
ATOM     23  C   UNL     1      33.792 -20.216 -20.821  0.00  0.00    +0.001 C 
ATOM     24  C   UNL     1      36.204 -20.085 -20.790  0.00  0.00    +0.001 C 
ATOM     25  C   UNL     1      34.985 -19.772 -21.392  0.00  0.00    +0.000 C 
ENDBRANCH   9  20
TORSDOF 1
ENDMDL
MODEL 5
REMARK VINA RESULT:     -10.5      1.786      6.486
REMARK  Name = 6419766
REMARK  1 active torsions:
REMARK  status: ('A' for Active; 'I' for Inactive)
REMARK    1  A    between atoms: C_9  and  C_20
REMARK                            x       y       z     vdW  Elec       q    Type
REMARK                         _______ _______ _______ _____ _____    ______ ____
ROOT
ATOM      1  N   UNL     1      36.464 -22.507 -16.300  0.00  0.00    -0.274 N 
ATOM      2  N   UNL     1      34.532 -23.305 -15.219  0.00  0.00    -0.328 NA
ATOM      3  N   UNL     1      34.697 -24.931 -13.449  0.00  0.00    -0.343 NA
ATOM      4  N   UNL     1      34.883 -21.648 -19.216  0.00  0.00    -0.239 N 
ATOM      5  N   UNL     1      34.837 -22.321 -18.055  0.00  0.00    -0.166 NA
ATOM      6  C   UNL     1      36.690 -24.142 -14.524  0.00  0.00    +0.143 C 
ATOM      7  C   UNL     1      35.874 -23.343 -15.319  0.00  0.00    +0.185 C 
ATOM      8  C   UNL     1      36.035 -24.944 -13.575  0.00  0.00    +0.133 C 
ATOM      9  C   UNL     1      34.017 -24.113 -14.278  0.00  0.00    +0.138 C 
ATOM     10  C   UNL     1      36.008 -22.036 -17.542  0.00  0.00    +0.152 C 
ATOM     11  C   UNL     1      38.090 -24.164 -14.647  0.00  0.00    -0.011 C 
ATOM     12  C   UNL     1      36.819 -25.758 -12.761  0.00  0.00    +0.029 C 
ATOM     13  C   UNL     1      36.819 -21.212 -18.303  0.00  0.00    +0.048 C 
ATOM     14  C   UNL     1      36.049 -20.967 -19.414  0.00  0.00    +0.046 C 
ATOM     15  C   UNL     1      38.848 -24.987 -13.821  0.00  0.00    -0.004 C 
ATOM     16  C   UNL     1      38.212 -25.786 -12.877  0.00  0.00    +0.002 C 
ATOM     17  C   UNL     1      36.295 -20.168 -20.626  0.00  0.00    +0.049 C 
ATOM     18  H   UNL     1      37.367 -22.196 -16.065  0.00  0.00    +0.156 HD
ATOM     19  H   UNL     1      34.143 -21.646 -19.866  0.00  0.00    +0.174 HD
ENDROOT
BRANCH   9  20
ATOM     20  C   UNL     1      32.585 -24.105 -14.137  0.00  0.00    +0.086 C 
ATOM     21  C   UNL     1      31.814 -23.167 -14.830  0.00  0.00    +0.012 C 
ATOM     22  C   UNL     1      31.954 -25.036 -13.306  0.00  0.00    +0.012 C 
ATOM     23  C   UNL     1      30.426 -23.161 -14.694  0.00  0.00    +0.001 C 
ATOM     24  C   UNL     1      30.567 -25.029 -13.170  0.00  0.00    +0.001 C 
ATOM     25  C   UNL     1      29.801 -24.092 -13.865  0.00  0.00    +0.000 C 
ENDBRANCH   9  20
TORSDOF 1
ENDMDL
MODEL 6
REMARK VINA RESULT:      -9.9      1.627      6.502
REMARK  Name = 6419766
REMARK  1 active torsions:
REMARK  status: ('A' for Active; 'I' for Inactive)
REMARK    1  A    between atoms: C_9  and  C_20
REMARK                            x       y       z     vdW  Elec       q    Type
REMARK                         _______ _______ _______ _____ _____    ______ ____
ROOT
ATOM      1  N   UNL     1      32.574 -23.082 -15.859  0.00  0.00    -0.274 N 
ATOM      2  N   UNL     1      34.686 -23.340 -14.855  0.00  0.00    -0.328 NA
ATOM      3  N   UNL     1      36.694 -22.741 -16.042  0.00  0.00    -0.343 NA
ATOM      4  N   UNL     1      31.010 -25.474 -13.970  0.00  0.00    -0.239 N 
ATOM      5  N   UNL     1      32.166 -24.933 -14.388  0.00  0.00    -0.166 NA
ATOM      6  C   UNL     1      34.562 -22.461 -17.102  0.00  0.00    +0.143 C 
ATOM      7  C   UNL     1      33.984 -22.959 -15.938  0.00  0.00    +0.185 C 
ATOM      8  C   UNL     1      35.963 -22.368 -17.107  0.00  0.00    +0.133 C 
ATOM      9  C   UNL     1      36.016 -23.207 -14.974  0.00  0.00    +0.138 C 
ATOM     10  C   UNL     1      31.737 -23.968 -15.163  0.00  0.00    +0.152 C 
ATOM     11  C   UNL     1      33.806 -22.068 -18.221  0.00  0.00    -0.011 C 
ATOM     12  C   UNL     1      36.577 -21.874 -18.255  0.00  0.00    +0.029 C 
ATOM     13  C   UNL     1      30.363 -23.847 -15.276  0.00  0.00    +0.048 C 
ATOM     14  C   UNL     1      29.900 -24.862 -14.473  0.00  0.00    +0.046 C 
ATOM     15  C   UNL     1      34.447 -21.579 -19.355  0.00  0.00    -0.004 C 
ATOM     16  C   UNL     1      35.833 -21.482 -19.372  0.00  0.00    +0.002 C 
ATOM     17  C   UNL     1      28.538 -25.305 -14.136  0.00  0.00    +0.049 C 
ATOM     18  H   UNL     1      32.087 -22.416 -16.397  0.00  0.00    +0.156 HD
ATOM     19  H   UNL     1      30.968 -26.243 -13.357  0.00  0.00    +0.174 HD
ENDROOT
BRANCH   9  20
ATOM     20  C   UNL     1      36.807 -23.604 -13.838  0.00  0.00    +0.086 C 
ATOM     21  C   UNL     1      36.559 -23.051 -12.579  0.00  0.00    +0.012 C 
ATOM     22  C   UNL     1      37.828 -24.548 -13.986  0.00  0.00    +0.012 C 
ATOM     23  C   UNL     1      37.324 -23.436 -11.478  0.00  0.00    +0.001 C 
ATOM     24  C   UNL     1      38.593 -24.934 -12.887  0.00  0.00    +0.001 C 
ATOM     25  C   UNL     1      38.341 -24.379 -11.631  0.00  0.00    +0.000 C 
ENDBRANCH   9  20
TORSDOF 1
ENDMDL
MODEL 7
REMARK VINA RESULT:      -9.8      1.752      5.305
REMARK  Name = 6419766
REMARK  1 active torsions:
REMARK  status: ('A' for Active; 'I' for Inactive)
REMARK    1  A    between atoms: C_9  and  C_20
REMARK                            x       y       z     vdW  Elec       q    Type
REMARK                         _______ _______ _______ _____ _____    ______ ____
ROOT
ATOM      1  N   UNL     1      33.105 -24.726 -13.741  0.00  0.00    -0.274 N 
ATOM      2  N   UNL     1      34.385 -23.542 -15.321  0.00  0.00    -0.328 NA
ATOM      3  N   UNL     1      36.572 -22.706 -14.754  0.00  0.00    -0.343 NA
ATOM      4  N   UNL     1      30.070 -23.987 -15.150  0.00  0.00    -0.239 N 
ATOM      5  N   UNL     1      31.383 -23.716 -15.073  0.00  0.00    -0.166 NA
ATOM      6  C   UNL     1      35.300 -23.908 -13.115  0.00  0.00    +0.143 C 
ATOM      7  C   UNL     1      34.298 -24.037 -14.073  0.00  0.00    +0.185 C 
ATOM      8  C   UNL     1      36.453 -23.213 -13.515  0.00  0.00    +0.133 C 
ATOM      9  C   UNL     1      35.532 -22.897 -15.590  0.00  0.00    +0.138 C 
ATOM     10  C   UNL     1      31.779 -24.592 -14.185  0.00  0.00    +0.152 C 
ATOM     11  C   UNL     1      35.186 -24.435 -11.816  0.00  0.00    -0.011 C 
ATOM     12  C   UNL     1      37.477 -23.064 -12.583  0.00  0.00    +0.029 C 
ATOM     13  C   UNL     1      30.798 -25.425 -13.675  0.00  0.00    +0.048 C 
ATOM     14  C   UNL     1      29.668 -25.003 -14.332  0.00  0.00    +0.046 C 
ATOM     15  C   UNL     1      36.226 -24.270 -10.906  0.00  0.00    -0.004 C 
ATOM     16  C   UNL     1      37.372 -23.584 -11.289  0.00  0.00    +0.002 C 
ATOM     17  C   UNL     1      28.268 -25.452 -14.270  0.00  0.00    +0.049 C 
ATOM     18  H   UNL     1      33.229 -25.435 -13.070  0.00  0.00    +0.156 HD
ATOM     19  H   UNL     1      29.454 -23.499 -15.742  0.00  0.00    +0.174 HD
ENDROOT
BRANCH   9  20
ATOM     20  C   UNL     1      35.667 -22.352 -16.915  0.00  0.00    +0.086 C 
ATOM     21  C   UNL     1      36.844 -21.699 -17.292  0.00  0.00    +0.012 C 
ATOM     22  C   UNL     1      34.621 -22.471 -17.836  0.00  0.00    +0.012 C 
ATOM     23  C   UNL     1      36.976 -21.172 -18.577  0.00  0.00    +0.001 C 
ATOM     24  C   UNL     1      34.752 -21.945 -19.120  0.00  0.00    +0.001 C 
ATOM     25  C   UNL     1      35.930 -21.295 -19.492  0.00  0.00    +0.000 C 
ENDBRANCH   9  20
TORSDOF 1
ENDMDL
