MODEL 1
REMARK VINA RESULT:     -11.6      0.000      0.000
REMARK  Name = 447994
REMARK  10 active torsions:
REMARK  status: ('A' for Active; 'I' for Inactive)
REMARK    1  A    between atoms: C_2  and  C_10
REMARK    2  A    between atoms: C_3  and  C_17
REMARK    3  A    between atoms: C_12  and  C_14
REMARK    4  A    between atoms: C_14  and  O_15
REMARK    5  A    between atoms: C_18  and  C_19
REMARK    6  A    between atoms: C_19  and  O_20
REMARK    7  A    between atoms: O_20  and  C_21
REMARK    8  A    between atoms: C_22  and  C_30
REMARK    9  A    between atoms: C_23  and  O_27
REMARK   10  A    between atoms: C_30  and  O_31
REMARK                            x       y       z     vdW  Elec       q    Type
REMARK                         _______ _______ _______ _____ _____    ______ ____
ROOT
ATOM      1  F   UNL     1      37.361 -17.911 -22.254  0.00  0.00    -0.204 F 
ATOM      2  C   UNL     1      35.177 -18.803 -21.953  0.00  0.00    +0.065 C 
ATOM      3  C   UNL     1      34.814 -20.456 -20.230  0.00  0.00    +0.000 C 
ATOM      4  C   UNL     1      34.322 -19.664 -21.266  0.00  0.00    +0.005 C 
ATOM      5  C   UNL     1      36.526 -18.734 -21.603  0.00  0.00    +0.143 C 
ATOM      6  C   UNL     1      36.163 -20.387 -19.880  0.00  0.00    +0.002 C 
ATOM      7  C   UNL     1      37.019 -19.526 -20.567  0.00  0.00    +0.030 C 
ENDROOT
BRANCH   2  10
ATOM      8  O   UNL     1      34.120 -18.664 -24.062  0.00  0.00    -0.353 OA
ATOM      9  N   UNL     1      33.671 -17.753 -25.011  0.00  0.00    -0.070 NA
ATOM     10  C   UNL     1      34.663 -17.985 -23.025  0.00  0.00    +0.179 C 
ATOM     11  C   UNL     1      34.590 -16.641 -23.249  0.00  0.00    +0.069 C 
ATOM     12  C   UNL     1      33.962 -16.552 -24.503  0.00  0.00    +0.198 C 
BRANCH  12  14
ATOM     13  O   UNL     1      33.941 -15.141 -26.415  0.00  0.00    -0.243 OA
ATOM     14  C   UNL     1      33.628 -15.366 -25.235  0.00  0.00    +0.359 C 
BRANCH  14  15
ATOM     15  O   UNL     1      32.906 -14.434 -24.532  0.00  0.00    -0.476 OA
ATOM     16  H   UNL     1      32.354 -13.827 -24.987  0.00  0.00    +0.295 HD
ENDBRANCH  14  15
ENDBRANCH  12  14
ENDBRANCH   2  10
BRANCH   3  17
ATOM     17  C   UNL     1      33.923 -21.354 -19.513  0.00  0.00    -0.001 C 
ATOM     18  C   UNL     1      34.275 -22.180 -18.501  0.00  0.00    +0.021 C 
BRANCH  18  19
ATOM     19  C   UNL     1      33.317 -23.077 -17.784  0.00  0.00    +0.232 C 
BRANCH  19  20
ATOM     20  O   UNL     1      34.014 -23.750 -16.745  0.00  0.00    -0.470 OA
BRANCH  20  21
ATOM     21  C   UNL     1      33.429 -23.750 -15.505  0.00  0.00    +0.148 C 
ATOM     22  C   UNL     1      34.093 -24.282 -14.406  0.00  0.00    +0.143 C 
ATOM     23  C   UNL     1      33.479 -24.271 -13.155  0.00  0.00    +0.143 C 
ATOM     24  C   UNL     1      32.156 -23.206 -15.366  0.00  0.00    +0.037 C 
ATOM     25  C   UNL     1      32.204 -23.726 -13.008  0.00  0.00    +0.037 C 
ATOM     26  C   UNL     1      31.543 -23.194 -14.114  0.00  0.00    +0.006 C 
BRANCH  23  27
ATOM     27  O   UNL     1      34.109 -24.785 -12.060  0.00  0.00    -0.505 OA
ATOM     28  H   UNL     1      33.746 -24.654 -11.206  0.00  0.00    +0.292 HD
ENDBRANCH  23  27
BRANCH  22  30
ATOM     29  O   UNL     1      35.666 -25.930 -15.112  0.00  0.00    -0.245 OA
ATOM     30  C   UNL     1      35.429 -24.851 -14.559  0.00  0.00    +0.347 C 
BRANCH  30  31
ATOM     31  O   UNL     1      36.382 -24.038 -14.013  0.00  0.00    -0.441 OA
ATOM     32  C   UNL     1      37.304 -23.429 -14.923  0.00  0.00    +0.256 C 
ENDBRANCH  30  31
ENDBRANCH  22  30
ENDBRANCH  20  21
ENDBRANCH  19  20
ENDBRANCH  18  19
ENDBRANCH   3  17
TORSDOF 10
ENDMDL
MODEL 2
REMARK VINA RESULT:     -11.4      2.687      3.569
REMARK  Name = 447994
REMARK  10 active torsions:
REMARK  status: ('A' for Active; 'I' for Inactive)
REMARK    1  A    between atoms: C_2  and  C_10
REMARK    2  A    between atoms: C_3  and  C_17
REMARK    3  A    between atoms: C_12  and  C_14
REMARK    4  A    between atoms: C_14  and  O_15
REMARK    5  A    between atoms: C_18  and  C_19
REMARK    6  A    between atoms: C_19  and  O_20
REMARK    7  A    between atoms: O_20  and  C_21
REMARK    8  A    between atoms: C_22  and  C_30
REMARK    9  A    between atoms: C_23  and  O_27
REMARK   10  A    between atoms: C_30  and  O_31
REMARK                            x       y       z     vdW  Elec       q    Type
REMARK                         _______ _______ _______ _____ _____    ______ ____
ROOT
ATOM      1  F   UNL     1      32.141 -20.382 -20.967  0.00  0.00    -0.204 F 
ATOM      2  C   UNL     1      34.450 -20.161 -20.443  0.00  0.00    +0.065 C 
ATOM      3  C   UNL     1      35.388 -21.531 -18.688  0.00  0.00    +0.000 C 
ATOM      4  C   UNL     1      35.543 -20.553 -19.670  0.00  0.00    +0.005 C 
ATOM      5  C   UNL     1      33.201 -20.748 -20.233  0.00  0.00    +0.143 C 
ATOM      6  C   UNL     1      34.140 -22.118 -18.479  0.00  0.00    +0.002 C 
ATOM      7  C   UNL     1      33.046 -21.726 -19.251  0.00  0.00    +0.030 C 
ENDROOT
BRANCH   2  10
ATOM      8  O   UNL     1      35.297 -18.046 -21.070  0.00  0.00    -0.353 OA
ATOM      9  N   UNL     1      35.376 -17.166 -22.142  0.00  0.00    -0.070 NA
ATOM     10  C   UNL     1      34.614 -19.149 -21.458  0.00  0.00    +0.179 C 
ATOM     11  C   UNL     1      34.233 -19.035 -22.762  0.00  0.00    +0.069 C 
ATOM     12  C   UNL     1      34.734 -17.778 -23.141  0.00  0.00    +0.198 C 
BRANCH  12  14
ATOM     13  O   UNL     1      33.945 -17.555 -25.372  0.00  0.00    -0.243 OA
ATOM     14  C   UNL     1      34.625 -17.139 -24.420  0.00  0.00    +0.359 C 
BRANCH  14  15
ATOM     15  O   UNL     1      35.349 -15.980 -24.554  0.00  0.00    -0.476 OA
ATOM     16  H   UNL     1      35.939 -15.714 -23.876  0.00  0.00    +0.295 HD
ENDBRANCH  14  15
ENDBRANCH  12  14
ENDBRANCH   2  10
BRANCH   3  17
ATOM     17  C   UNL     1      36.528 -21.940 -17.882  0.00  0.00    -0.001 C 
ATOM     18  C   UNL     1      36.549 -22.046 -16.534  0.00  0.00    +0.021 C 
BRANCH  18  19
ATOM     19  C   UNL     1      37.742 -22.486 -15.749  0.00  0.00    +0.232 C 
BRANCH  19  20
ATOM     20  O   UNL     1      37.568 -23.845 -15.377  0.00  0.00    -0.470 OA
BRANCH  20  21
ATOM     21  C   UNL     1      37.218 -24.090 -14.074  0.00  0.00    +0.148 C 
ATOM     22  C   UNL     1      37.254 -25.382 -13.560  0.00  0.00    +0.143 C 
ATOM     23  C   UNL     1      36.896 -25.608 -12.232  0.00  0.00    +0.143 C 
ATOM     24  C   UNL     1      36.828 -23.022 -13.274  0.00  0.00    +0.037 C 
ATOM     25  C   UNL     1      36.504 -24.542 -11.424  0.00  0.00    +0.037 C 
ATOM     26  C   UNL     1      36.470 -23.248 -11.945  0.00  0.00    +0.006 C 
BRANCH  23  27
ATOM     27  O   UNL     1      36.923 -26.864 -11.702  0.00  0.00    -0.505 OA
ATOM     28  H   UNL     1      36.131 -27.359 -11.628  0.00  0.00    +0.292 HD
ENDBRANCH  23  27
BRANCH  22  30
ATOM     29  O   UNL     1      36.969 -26.985 -15.303  0.00  0.00    -0.245 OA
ATOM     30  C   UNL     1      37.666 -26.499 -14.405  0.00  0.00    +0.347 C 
BRANCH  30  31
ATOM     31  O   UNL     1      38.917 -26.937 -14.078  0.00  0.00    -0.441 OA
ATOM     32  C   UNL     1      40.003 -26.048 -14.362  0.00  0.00    +0.256 C 
ENDBRANCH  30  31
ENDBRANCH  22  30
ENDBRANCH  20  21
ENDBRANCH  19  20
ENDBRANCH  18  19
ENDBRANCH   3  17
TORSDOF 10
ENDMDL
MODEL 3
REMARK VINA RESULT:     -11.2      0.993      1.236
REMARK  Name = 447994
REMARK  10 active torsions:
REMARK  status: ('A' for Active; 'I' for Inactive)
REMARK    1  A    between atoms: C_2  and  C_10
REMARK    2  A    between atoms: C_3  and  C_17
REMARK    3  A    between atoms: C_12  and  C_14
REMARK    4  A    between atoms: C_14  and  O_15
REMARK    5  A    between atoms: C_18  and  C_19
REMARK    6  A    between atoms: C_19  and  O_20
REMARK    7  A    between atoms: O_20  and  C_21
REMARK    8  A    between atoms: C_22  and  C_30
REMARK    9  A    between atoms: C_23  and  O_27
REMARK   10  A    between atoms: C_30  and  O_31
REMARK                            x       y       z     vdW  Elec       q    Type
REMARK                         _______ _______ _______ _____ _____    ______ ____
ROOT
ATOM      1  F   UNL     1      37.346 -17.998 -22.147  0.00  0.00    -0.204 F 
ATOM      2  C   UNL     1      35.161 -18.903 -21.899  0.00  0.00    +0.065 C 
ATOM      3  C   UNL     1      34.770 -20.568 -20.192  0.00  0.00    +0.000 C 
ATOM      4  C   UNL     1      34.296 -19.773 -21.235  0.00  0.00    +0.005 C 
ATOM      5  C   UNL     1      36.502 -18.829 -21.520  0.00  0.00    +0.143 C 
ATOM      6  C   UNL     1      36.111 -20.493 -19.813  0.00  0.00    +0.002 C 
ATOM      7  C   UNL     1      36.977 -19.624 -20.477  0.00  0.00    +0.030 C 
ENDROOT
BRANCH   2  10
ATOM      8  O   UNL     1      34.163 -18.759 -24.036  0.00  0.00    -0.353 OA
ATOM      9  N   UNL     1      33.727 -17.846 -24.989  0.00  0.00    -0.070 NA
ATOM     10  C   UNL     1      34.666 -18.082 -22.977  0.00  0.00    +0.179 C 
ATOM     11  C   UNL     1      34.579 -16.738 -23.191  0.00  0.00    +0.069 C 
ATOM     12  C   UNL     1      33.986 -16.646 -24.462  0.00  0.00    +0.198 C 
BRANCH  12  14
ATOM     13  O   UNL     1      33.892 -15.269 -26.396  0.00  0.00    -0.243 OA
ATOM     14  C   UNL     1      33.655 -15.458 -25.192  0.00  0.00    +0.359 C 
BRANCH  14  15
ATOM     15  O   UNL     1      33.031 -14.480 -24.458  0.00  0.00    -0.476 OA
ATOM     16  H   UNL     1      33.164 -14.432 -23.531  0.00  0.00    +0.295 HD
ENDBRANCH  14  15
ENDBRANCH  12  14
ENDBRANCH   2  10
BRANCH   3  17
ATOM     17  C   UNL     1      33.868 -21.475 -19.499  0.00  0.00    -0.001 C 
ATOM     18  C   UNL     1      34.114 -22.088 -18.319  0.00  0.00    +0.021 C 
BRANCH  18  19
ATOM     19  C   UNL     1      33.147 -23.003 -17.638  0.00  0.00    +0.232 C 
BRANCH  19  20
ATOM     20  O   UNL     1      33.367 -22.936 -16.236  0.00  0.00    -0.470 OA
BRANCH  20  21
ATOM     21  C   UNL     1      32.376 -23.430 -15.429  0.00  0.00    +0.148 C 
ATOM     22  C   UNL     1      32.685 -24.197 -14.311  0.00  0.00    +0.143 C 
ATOM     23  C   UNL     1      31.660 -24.688 -13.504  0.00  0.00    +0.143 C 
ATOM     24  C   UNL     1      31.051 -23.148 -15.748  0.00  0.00    +0.037 C 
ATOM     25  C   UNL     1      30.330 -24.409 -13.817  0.00  0.00    +0.037 C 
ATOM     26  C   UNL     1      30.026 -23.639 -14.940  0.00  0.00    +0.006 C 
BRANCH  23  27
ATOM     27  O   UNL     1      31.936 -25.441 -12.401  0.00  0.00    -0.505 OA
ATOM     28  H   UNL     1      32.556 -25.137 -11.768  0.00  0.00    +0.292 HD
ENDBRANCH  23  27
BRANCH  22  30
ATOM     29  O   UNL     1      34.850 -25.111 -14.717  0.00  0.00    -0.245 OA
ATOM     30  C   UNL     1      34.077 -24.488 -13.982  0.00  0.00    +0.347 C 
BRANCH  30  31
ATOM     31  O   UNL     1      34.415 -23.984 -12.758  0.00  0.00    -0.441 OA
ATOM     32  C   UNL     1      35.412 -24.700 -12.021  0.00  0.00    +0.256 C 
ENDBRANCH  30  31
ENDBRANCH  22  30
ENDBRANCH  20  21
ENDBRANCH  19  20
ENDBRANCH  18  19
ENDBRANCH   3  17
TORSDOF 10
ENDMDL
MODEL 4
REMARK VINA RESULT:     -11.1      7.139      8.309
REMARK  Name = 447994
REMARK  10 active torsions:
REMARK  status: ('A' for Active; 'I' for Inactive)
REMARK    1  A    between atoms: C_2  and  C_10
REMARK    2  A    between atoms: C_3  and  C_17
REMARK    3  A    between atoms: C_12  and  C_14
REMARK    4  A    between atoms: C_14  and  O_15
REMARK    5  A    between atoms: C_18  and  C_19
REMARK    6  A    between atoms: C_19  and  O_20
REMARK    7  A    between atoms: O_20  and  C_21
REMARK    8  A    between atoms: C_22  and  C_30
REMARK    9  A    between atoms: C_23  and  O_27
REMARK   10  A    between atoms: C_30  and  O_31
REMARK                            x       y       z     vdW  Elec       q    Type
REMARK                         _______ _______ _______ _____ _____    ______ ____
ROOT
ATOM      1  F   UNL     1      28.904 -25.439 -13.826  0.00  0.00    -0.204 F 
ATOM      2  C   UNL     1      30.233 -23.894 -15.052  0.00  0.00    +0.065 C 
ATOM      3  C   UNL     1      32.573 -23.664 -14.496  0.00  0.00    +0.000 C 
ATOM      4  C   UNL     1      31.474 -23.298 -15.273  0.00  0.00    +0.005 C 
ATOM      5  C   UNL     1      30.090 -24.857 -14.052  0.00  0.00    +0.143 C 
ATOM      6  C   UNL     1      32.430 -24.627 -13.496  0.00  0.00    +0.002 C 
ATOM      7  C   UNL     1      31.188 -25.223 -13.274  0.00  0.00    +0.030 C 
ENDROOT
BRANCH   2  10
ATOM      8  O   UNL     1      28.468 -24.532 -16.488  0.00  0.00    -0.353 OA
ATOM      9  N   UNL     1      27.404 -24.019 -17.221  0.00  0.00    -0.070 NA
ATOM     10  C   UNL     1      29.099 -23.513 -15.858  0.00  0.00    +0.179 C 
ATOM     11  C   UNL     1      28.488 -22.328 -16.147  0.00  0.00    +0.069 C 
ATOM     12  C   UNL     1      27.437 -22.701 -17.002  0.00  0.00    +0.198 C 
BRANCH  12  14
ATOM     13  O   UNL     1      26.135 -20.724 -17.207  0.00  0.00    -0.243 OA
ATOM     14  C   UNL     1      26.461 -21.849 -17.616  0.00  0.00    +0.359 C 
BRANCH  14  15
ATOM     15  O   UNL     1      25.867 -22.364 -18.742  0.00  0.00    -0.476 OA
ATOM     16  H   UNL     1      25.623 -23.268 -18.772  0.00  0.00    +0.295 HD
ENDBRANCH  14  15
ENDBRANCH  12  14
ENDBRANCH   2  10
BRANCH   3  17
ATOM     17  C   UNL     1      33.868 -23.043 -14.727  0.00  0.00    -0.001 C 
ATOM     18  C   UNL     1      34.846 -23.524 -15.527  0.00  0.00    +0.021 C 
BRANCH  18  19
ATOM     19  C   UNL     1      36.158 -22.841 -15.744  0.00  0.00    +0.232 C 
BRANCH  19  20
ATOM     20  O   UNL     1      37.184 -23.628 -15.158  0.00  0.00    -0.470 OA
BRANCH  20  21
ATOM     21  C   UNL     1      37.041 -23.945 -13.832  0.00  0.00    +0.148 C 
ATOM     22  C   UNL     1      37.024 -25.271 -13.416  0.00  0.00    +0.143 C 
ATOM     23  C   UNL     1      36.878 -25.570 -12.062  0.00  0.00    +0.143 C 
ATOM     24  C   UNL     1      36.915 -22.913 -12.908  0.00  0.00    +0.037 C 
ATOM     25  C   UNL     1      36.752 -24.541 -11.130  0.00  0.00    +0.037 C 
ATOM     26  C   UNL     1      36.771 -23.212 -11.553  0.00  0.00    +0.006 C 
BRANCH  23  27
ATOM     27  O   UNL     1      36.860 -26.862 -11.627  0.00  0.00    -0.505 OA
ATOM     28  H   UNL     1      36.218 -27.459 -11.959  0.00  0.00    +0.292 HD
ENDBRANCH  23  27
BRANCH  22  30
ATOM     29  O   UNL     1      36.278 -26.670 -15.198  0.00  0.00    -0.245 OA
ATOM     30  C   UNL     1      37.157 -26.349 -14.391  0.00  0.00    +0.347 C 
BRANCH  30  31
ATOM     31  O   UNL     1      38.378 -26.957 -14.299  0.00  0.00    -0.441 OA
ATOM     32  C   UNL     1      39.527 -26.109 -14.407  0.00  0.00    +0.256 C 
ENDBRANCH  30  31
ENDBRANCH  22  30
ENDBRANCH  20  21
ENDBRANCH  19  20
ENDBRANCH  18  19
ENDBRANCH   3  17
TORSDOF 10
ENDMDL
MODEL 5
REMARK VINA RESULT:     -11.0      2.098      3.794
REMARK  Name = 447994
REMARK  10 active torsions:
REMARK  status: ('A' for Active; 'I' for Inactive)
REMARK    1  A    between atoms: C_2  and  C_10
REMARK    2  A    between atoms: C_3  and  C_17
REMARK    3  A    between atoms: C_12  and  C_14
REMARK    4  A    between atoms: C_14  and  O_15
REMARK    5  A    between atoms: C_18  and  C_19
REMARK    6  A    between atoms: C_19  and  O_20
REMARK    7  A    between atoms: O_20  and  C_21
REMARK    8  A    between atoms: C_22  and  C_30
REMARK    9  A    between atoms: C_23  and  O_27
REMARK   10  A    between atoms: C_30  and  O_31
REMARK                            x       y       z     vdW  Elec       q    Type
REMARK                         _______ _______ _______ _____ _____    ______ ____
ROOT
ATOM      1  F   UNL     1      31.984 -20.253 -21.041  0.00  0.00    -0.204 F 
ATOM      2  C   UNL     1      34.343 -20.125 -20.770  0.00  0.00    +0.065 C 
ATOM      3  C   UNL     1      35.382 -21.351 -18.965  0.00  0.00    +0.000 C 
ATOM      4  C   UNL     1      35.487 -20.499 -20.064  0.00  0.00    +0.005 C 
ATOM      5  C   UNL     1      33.093 -20.603 -20.374  0.00  0.00    +0.143 C 
ATOM      6  C   UNL     1      34.132 -21.828 -18.570  0.00  0.00    +0.002 C 
ATOM      7  C   UNL     1      32.987 -21.454 -19.274  0.00  0.00    +0.030 C 
ENDROOT
BRANCH   2  10
ATOM      8  O   UNL     1      34.096 -19.785 -23.095  0.00  0.00    -0.353 OA
ATOM      9  N   UNL     1      34.255 -18.829 -24.091  0.00  0.00    -0.070 NA
ATOM     10  C   UNL     1      34.456 -19.245 -21.907  0.00  0.00    +0.179 C 
ATOM     11  C   UNL     1      34.852 -17.951 -22.076  0.00  0.00    +0.069 C 
ATOM     12  C   UNL     1      34.707 -17.742 -23.459  0.00  0.00    +0.198 C 
BRANCH  12  14
ATOM     13  O   UNL     1      34.673 -16.352 -25.386  0.00  0.00    -0.243 OA
ATOM     14  C   UNL     1      34.982 -16.546 -24.199  0.00  0.00    +0.359 C 
BRANCH  14  15
ATOM     15  O   UNL     1      35.641 -15.567 -23.498  0.00  0.00    -0.476 OA
ATOM     16  H   UNL     1      35.975 -14.813 -23.944  0.00  0.00    +0.295 HD
ENDBRANCH  14  15
ENDBRANCH  12  14
ENDBRANCH   2  10
BRANCH   3  17
ATOM     17  C   UNL     1      36.575 -21.741 -18.230  0.00  0.00    -0.001 C 
ATOM     18  C   UNL     1      36.657 -21.926 -16.893  0.00  0.00    +0.021 C 
BRANCH  18  19
ATOM     19  C   UNL     1      37.904 -22.343 -16.183  0.00  0.00    +0.232 C 
BRANCH  19  20
ATOM     20  O   UNL     1      37.554 -22.844 -14.901  0.00  0.00    -0.470 OA
BRANCH  20  21
ATOM     21  C   UNL     1      37.816 -24.168 -14.660  0.00  0.00    +0.148 C 
ATOM     22  C   UNL     1      36.782 -25.094 -14.580  0.00  0.00    +0.143 C 
ATOM     23  C   UNL     1      37.071 -26.435 -14.336  0.00  0.00    +0.143 C 
ATOM     24  C   UNL     1      39.138 -24.569 -14.498  0.00  0.00    +0.037 C 
ATOM     25  C   UNL     1      38.394 -26.845 -14.173  0.00  0.00    +0.037 C 
ATOM     26  C   UNL     1      39.427 -25.911 -14.254  0.00  0.00    +0.006 C 
BRANCH  23  27
ATOM     27  O   UNL     1      36.076 -27.364 -14.254  0.00  0.00    -0.505 OA
ATOM     28  H   UNL     1      35.398 -27.269 -13.615  0.00  0.00    +0.292 HD
ENDBRANCH  23  27
BRANCH  22  30
ATOM     29  O   UNL     1      34.915 -24.279 -15.823  0.00  0.00    -0.245 OA
ATOM     30  C   UNL     1      35.397 -24.665 -14.752  0.00  0.00    +0.347 C 
BRANCH  30  31
ATOM     31  O   UNL     1      34.701 -24.747 -13.579  0.00  0.00    -0.441 OA
ATOM     32  C   UNL     1      35.167 -23.934 -12.498  0.00  0.00    +0.256 C 
ENDBRANCH  30  31
ENDBRANCH  22  30
ENDBRANCH  20  21
ENDBRANCH  19  20
ENDBRANCH  18  19
ENDBRANCH   3  17
TORSDOF 10
ENDMDL
MODEL 6
REMARK VINA RESULT:     -10.8      1.776      2.792
REMARK  Name = 447994
REMARK  10 active torsions:
REMARK  status: ('A' for Active; 'I' for Inactive)
REMARK    1  A    between atoms: C_2  and  C_10
REMARK    2  A    between atoms: C_3  and  C_17
REMARK    3  A    between atoms: C_12  and  C_14
REMARK    4  A    between atoms: C_14  and  O_15
REMARK    5  A    between atoms: C_18  and  C_19
REMARK    6  A    between atoms: C_19  and  O_20
REMARK    7  A    between atoms: O_20  and  C_21
REMARK    8  A    between atoms: C_22  and  C_30
REMARK    9  A    between atoms: C_23  and  O_27
REMARK   10  A    between atoms: C_30  and  O_31
REMARK                            x       y       z     vdW  Elec       q    Type
REMARK                         _______ _______ _______ _____ _____    ______ ____
ROOT
ATOM      1  F   UNL     1      37.533 -18.219 -21.786  0.00  0.00    -0.204 F 
ATOM      2  C   UNL     1      35.286 -18.963 -21.565  0.00  0.00    +0.065 C 
ATOM      3  C   UNL     1      34.787 -20.732 -19.996  0.00  0.00    +0.000 C 
ATOM      4  C   UNL     1      34.363 -19.814 -20.957  0.00  0.00    +0.005 C 
ATOM      5  C   UNL     1      36.634 -19.030 -21.212  0.00  0.00    +0.143 C 
ATOM      6  C   UNL     1      36.135 -20.798 -19.643  0.00  0.00    +0.002 C 
ATOM      7  C   UNL     1      37.059 -19.947 -20.251  0.00  0.00    +0.030 C 
ENDROOT
BRANCH   2  10
ATOM      8  O   UNL     1      35.088 -16.716 -22.268  0.00  0.00    -0.353 OA
ATOM      9  N   UNL     1      34.611 -15.924 -23.306  0.00  0.00    -0.070 NA
ATOM     10  C   UNL     1      34.843 -18.015 -22.558  0.00  0.00    +0.179 C 
ATOM     11  C   UNL     1      34.214 -18.120 -23.764  0.00  0.00    +0.069 C 
ATOM     12  C   UNL     1      34.094 -16.785 -24.187  0.00  0.00    +0.198 C 
BRANCH  12  14
ATOM     13  O   UNL     1      33.984 -15.408 -26.122  0.00  0.00    -0.243 OA
ATOM     14  C   UNL     1      33.505 -16.299 -25.401  0.00  0.00    +0.359 C 
BRANCH  14  15
ATOM     15  O   UNL     1      32.320 -16.896 -25.752  0.00  0.00    -0.476 OA
ATOM     16  H   UNL     1      32.182 -17.185 -26.633  0.00  0.00    +0.295 HD
ENDBRANCH  14  15
ENDBRANCH  12  14
ENDBRANCH   2  10
BRANCH   3  17
ATOM     17  C   UNL     1      33.825 -21.619 -19.362  0.00  0.00    -0.001 C 
ATOM     18  C   UNL     1      34.076 -22.449 -18.324  0.00  0.00    +0.021 C 
BRANCH  18  19
ATOM     19  C   UNL     1      33.049 -23.334 -17.695  0.00  0.00    +0.232 C 
BRANCH  19  20
ATOM     20  O   UNL     1      32.579 -22.715 -16.506  0.00  0.00    -0.470 OA
BRANCH  20  21
ATOM     21  C   UNL     1      32.934 -23.303 -15.320  0.00  0.00    +0.148 C 
ATOM     22  C   UNL     1      31.993 -23.983 -14.555  0.00  0.00    +0.143 C 
ATOM     23  C   UNL     1      32.375 -24.574 -13.352  0.00  0.00    +0.143 C 
ATOM     24  C   UNL     1      34.255 -23.208 -14.894  0.00  0.00    +0.037 C 
ATOM     25  C   UNL     1      33.698 -24.483 -12.920  0.00  0.00    +0.037 C 
ATOM     26  C   UNL     1      34.638 -23.800 -13.691  0.00  0.00    +0.006 C 
BRANCH  23  27
ATOM     27  O   UNL     1      31.473 -25.248 -12.583  0.00  0.00    -0.505 OA
ATOM     28  H   UNL     1      30.569 -25.002 -12.597  0.00  0.00    +0.292 HD
ENDBRANCH  23  27
BRANCH  22  30
ATOM     29  O   UNL     1      30.060 -25.133 -15.349  0.00  0.00    -0.245 OA
ATOM     30  C   UNL     1      30.608 -24.079 -15.008  0.00  0.00    +0.347 C 
BRANCH  30  31
ATOM     31  O   UNL     1      29.997 -22.858 -15.004  0.00  0.00    -0.441 OA
ATOM     32  C   UNL     1      28.986 -22.643 -15.995  0.00  0.00    +0.256 C 
ENDBRANCH  30  31
ENDBRANCH  22  30
ENDBRANCH  20  21
ENDBRANCH  19  20
ENDBRANCH  18  19
ENDBRANCH   3  17
TORSDOF 10
ENDMDL
MODEL 7
REMARK VINA RESULT:     -10.7      2.177      3.298
REMARK  Name = 447994
REMARK  10 active torsions:
REMARK  status: ('A' for Active; 'I' for Inactive)
REMARK    1  A    between atoms: C_2  and  C_10
REMARK    2  A    between atoms: C_3  and  C_17
REMARK    3  A    between atoms: C_12  and  C_14
REMARK    4  A    between atoms: C_14  and  O_15
REMARK    5  A    between atoms: C_18  and  C_19
REMARK    6  A    between atoms: C_19  and  O_20
REMARK    7  A    between atoms: O_20  and  C_21
REMARK    8  A    between atoms: C_22  and  C_30
REMARK    9  A    between atoms: C_23  and  O_27
REMARK   10  A    between atoms: C_30  and  O_31
REMARK                            x       y       z     vdW  Elec       q    Type
REMARK                         _______ _______ _______ _____ _____    ______ ____
ROOT
ATOM      1  F   UNL     1      32.230 -20.500 -20.825  0.00  0.00    -0.204 F 
ATOM      2  C   UNL     1      34.519 -20.274 -20.221  0.00  0.00    +0.065 C 
ATOM      3  C   UNL     1      35.427 -21.721 -18.512  0.00  0.00    +0.000 C 
ATOM      4  C   UNL     1      35.595 -20.691 -19.437  0.00  0.00    +0.005 C 
ATOM      5  C   UNL     1      33.274 -20.888 -20.079  0.00  0.00    +0.143 C 
ATOM      6  C   UNL     1      34.182 -22.335 -18.371  0.00  0.00    +0.002 C 
ATOM      7  C   UNL     1      33.106 -21.918 -19.154  0.00  0.00    +0.030 C 
ENDROOT
BRANCH   2  10
ATOM      8  O   UNL     1      35.205 -18.059 -20.674  0.00  0.00    -0.353 OA
ATOM      9  N   UNL     1      35.321 -17.130 -21.701  0.00  0.00    -0.070 NA
ATOM     10  C   UNL     1      34.698 -19.209 -21.177  0.00  0.00    +0.179 C 
ATOM     11  C   UNL     1      34.470 -19.079 -22.515  0.00  0.00    +0.069 C 
ATOM     12  C   UNL     1      34.877 -17.762 -22.791  0.00  0.00    +0.198 C 
BRANCH  12  14
ATOM     13  O   UNL     1      34.254 -17.474 -25.066  0.00  0.00    -0.243 OA
ATOM     14  C   UNL     1      34.858 -17.084 -24.054  0.00  0.00    +0.359 C 
BRANCH  14  15
ATOM     15  O   UNL     1      35.582 -15.918 -24.098  0.00  0.00    -0.476 OA
ATOM     16  H   UNL     1      35.730 -15.489 -24.918  0.00  0.00    +0.295 HD
ENDBRANCH  14  15
ENDBRANCH  12  14
ENDBRANCH   2  10
BRANCH   3  17
ATOM     17  C   UNL     1      36.549 -22.156 -17.694  0.00  0.00    -0.001 C 
ATOM     18  C   UNL     1      36.557 -22.251 -16.345  0.00  0.00    +0.021 C 
BRANCH  18  19
ATOM     19  C   UNL     1      37.732 -22.718 -15.548  0.00  0.00    +0.232 C 
BRANCH  19  20
ATOM     20  O   UNL     1      37.401 -23.952 -14.928  0.00  0.00    -0.470 OA
BRANCH  20  21
ATOM     21  C   UNL     1      36.179 -24.027 -14.310  0.00  0.00    +0.148 C 
ATOM     22  C   UNL     1      36.078 -23.954 -12.925  0.00  0.00    +0.143 C 
ATOM     23  C   UNL     1      34.826 -24.031 -12.318  0.00  0.00    +0.143 C 
ATOM     24  C   UNL     1      35.041 -24.176 -15.095  0.00  0.00    +0.037 C 
ATOM     25  C   UNL     1      33.680 -24.180 -13.099  0.00  0.00    +0.037 C 
ATOM     26  C   UNL     1      33.788 -24.252 -14.487  0.00  0.00    +0.006 C 
BRANCH  23  27
ATOM     27  O   UNL     1      34.698 -23.961 -10.962  0.00  0.00    -0.505 OA
ATOM     28  H   UNL     1      35.461 -23.968 -10.419  0.00  0.00    +0.292 HD
ENDBRANCH  23  27
BRANCH  22  30
ATOM     29  O   UNL     1      37.963 -22.769 -12.069  0.00  0.00    -0.245 OA
ATOM     30  C   UNL     1      37.277 -23.796 -12.108  0.00  0.00    +0.347 C 
BRANCH  30  31
ATOM     31  O   UNL     1      37.543 -24.928 -11.391  0.00  0.00    -0.441 OA
ATOM     32  C   UNL     1      37.880 -26.100 -12.141  0.00  0.00    +0.256 C 
ENDBRANCH  30  31
ENDBRANCH  22  30
ENDBRANCH  20  21
ENDBRANCH  19  20
ENDBRANCH  18  19
ENDBRANCH   3  17
TORSDOF 10
ENDMDL
MODEL 8
REMARK VINA RESULT:     -10.5      3.232     10.679
REMARK  Name = 447994
REMARK  10 active torsions:
REMARK  status: ('A' for Active; 'I' for Inactive)
REMARK    1  A    between atoms: C_2  and  C_10
REMARK    2  A    between atoms: C_3  and  C_17
REMARK    3  A    between atoms: C_12  and  C_14
REMARK    4  A    between atoms: C_14  and  O_15
REMARK    5  A    between atoms: C_18  and  C_19
REMARK    6  A    between atoms: C_19  and  O_20
REMARK    7  A    between atoms: O_20  and  C_21
REMARK    8  A    between atoms: C_22  and  C_30
REMARK    9  A    between atoms: C_23  and  O_27
REMARK   10  A    between atoms: C_30  and  O_31
REMARK                            x       y       z     vdW  Elec       q    Type
REMARK                         _______ _______ _______ _____ _____    ______ ____
ROOT
ATOM      1  F   UNL     1      35.428 -23.054 -16.436  0.00  0.00    -0.204 F 
ATOM      2  C   UNL     1      33.801 -22.155 -17.919  0.00  0.00    +0.065 C 
ATOM      3  C   UNL     1      34.540 -20.909 -19.853  0.00  0.00    +0.000 C 
ATOM      4  C   UNL     1      33.507 -21.430 -19.074  0.00  0.00    +0.005 C 
ATOM      5  C   UNL     1      35.129 -22.359 -17.543  0.00  0.00    +0.143 C 
ATOM      6  C   UNL     1      35.868 -21.113 -19.476  0.00  0.00    +0.002 C 
ATOM      7  C   UNL     1      36.162 -21.838 -18.322  0.00  0.00    +0.030 C 
ENDROOT
BRANCH   2  10
ATOM      8  O   UNL     1      31.485 -22.295 -17.471  0.00  0.00    -0.353 OA
ATOM      9  N   UNL     1      30.562 -22.888 -16.617  0.00  0.00    -0.070 NA
ATOM     10  C   UNL     1      32.730 -22.693 -17.116  0.00  0.00    +0.179 C 
ATOM     11  C   UNL     1      32.669 -23.538 -16.048  0.00  0.00    +0.069 C 
ATOM     12  C   UNL     1      31.293 -23.625 -15.777  0.00  0.00    +0.198 C 
BRANCH  12  14
ATOM     13  O   UNL     1      29.628 -25.077 -14.900  0.00  0.00    -0.243 OA
ATOM     14  C   UNL     1      30.648 -24.386 -14.747  0.00  0.00    +0.359 C 
BRANCH  14  15
ATOM     15  O   UNL     1      31.241 -24.311 -13.511  0.00  0.00    -0.476 OA
ATOM     16  H   UNL     1      31.149 -25.017 -12.902  0.00  0.00    +0.295 HD
ENDBRANCH  14  15
ENDBRANCH  12  14
ENDBRANCH   2  10
BRANCH   3  17
ATOM     17  C   UNL     1      34.234 -20.153 -21.057  0.00  0.00    -0.001 C 
ATOM     18  C   UNL     1      34.962 -19.128 -21.556  0.00  0.00    +0.021 C 
BRANCH  18  19
ATOM     19  C   UNL     1      34.614 -18.390 -22.808  0.00  0.00    +0.232 C 
BRANCH  19  20
ATOM     20  O   UNL     1      35.366 -17.186 -22.851  0.00  0.00    -0.470 OA
BRANCH  20  21
ATOM     21  C   UNL     1      34.668 -16.014 -22.709  0.00  0.00    +0.148 C 
ATOM     22  C   UNL     1      34.037 -15.426 -23.799  0.00  0.00    +0.143 C 
ATOM     23  C   UNL     1      33.332 -14.235 -23.631  0.00  0.00    +0.143 C 
ATOM     24  C   UNL     1      34.602 -15.424 -21.451  0.00  0.00    +0.037 C 
ATOM     25  C   UNL     1      33.261 -13.638 -22.373  0.00  0.00    +0.037 C 
ATOM     26  C   UNL     1      33.896 -14.233 -21.283  0.00  0.00    +0.006 C 
BRANCH  23  27
ATOM     27  O   UNL     1      32.703 -13.638 -24.683  0.00  0.00    -0.505 OA
ATOM     28  H   UNL     1      33.032 -13.754 -25.553  0.00  0.00    +0.292 HD
ENDBRANCH  23  27
BRANCH  22  30
ATOM     29  O   UNL     1      35.164 -16.375 -25.675  0.00  0.00    -0.245 OA
ATOM     30  C   UNL     1      34.110 -16.051 -25.116  0.00  0.00    +0.347 C 
BRANCH  30  31
ATOM     31  O   UNL     1      32.866 -16.233 -25.651  0.00  0.00    -0.441 OA
ATOM     32  C   UNL     1      32.286 -17.534 -25.501  0.00  0.00    +0.256 C 
ENDBRANCH  30  31
ENDBRANCH  22  30
ENDBRANCH  20  21
ENDBRANCH  19  20
ENDBRANCH  18  19
ENDBRANCH   3  17
TORSDOF 10
ENDMDL
MODEL 9
REMARK VINA RESULT:     -10.5      4.912     11.795
REMARK  Name = 447994
REMARK  10 active torsions:
REMARK  status: ('A' for Active; 'I' for Inactive)
REMARK    1  A    between atoms: C_2  and  C_10
REMARK    2  A    between atoms: C_3  and  C_17
REMARK    3  A    between atoms: C_12  and  C_14
REMARK    4  A    between atoms: C_14  and  O_15
REMARK    5  A    between atoms: C_18  and  C_19
REMARK    6  A    between atoms: C_19  and  O_20
REMARK    7  A    between atoms: O_20  and  C_21
REMARK    8  A    between atoms: C_22  and  C_30
REMARK    9  A    between atoms: C_23  and  O_27
REMARK   10  A    between atoms: C_30  and  O_31
REMARK                            x       y       z     vdW  Elec       q    Type
REMARK                         _______ _______ _______ _____ _____    ______ ____
ROOT
ATOM      1  F   UNL     1      34.484 -19.757 -24.015  0.00  0.00    -0.204 F 
ATOM      2  C   UNL     1      34.941 -17.966 -22.518  0.00  0.00    +0.065 C 
ATOM      3  C   UNL     1      34.504 -15.701 -23.234  0.00  0.00    +0.000 C 
ATOM      4  C   UNL     1      34.946 -16.596 -22.261  0.00  0.00    +0.005 C 
ATOM      5  C   UNL     1      34.495 -18.443 -23.751  0.00  0.00    +0.143 C 
ATOM      6  C   UNL     1      34.058 -16.177 -24.468  0.00  0.00    +0.002 C 
ATOM      7  C   UNL     1      34.053 -17.548 -24.726  0.00  0.00    +0.030 C 
ENDROOT
BRANCH   2  10
ATOM      8  O   UNL     1      36.663 -18.686 -21.068  0.00  0.00    -0.353 OA
ATOM      9  N   UNL     1      36.964 -19.641 -20.105  0.00  0.00    -0.070 NA
ATOM     10  C   UNL     1      35.398 -18.889 -21.508  0.00  0.00    +0.179 C 
ATOM     11  C   UNL     1      34.840 -19.954 -20.865  0.00  0.00    +0.069 C 
ATOM     12  C   UNL     1      35.860 -20.386 -20.000  0.00  0.00    +0.198 C 
BRANCH  12  14
ATOM     13  O   UNL     1      35.133 -22.506 -19.211  0.00  0.00    -0.243 OA
ATOM     14  C   UNL     1      35.822 -21.483 -19.077  0.00  0.00    +0.359 C 
BRANCH  14  15
ATOM     15  O   UNL     1      36.628 -21.342 -17.974  0.00  0.00    -0.476 OA
ATOM     16  H   UNL     1      36.457 -21.844 -17.201  0.00  0.00    +0.295 HD
ENDBRANCH  14  15
ENDBRANCH  12  14
ENDBRANCH   2  10
BRANCH   3  17
ATOM     17  C   UNL     1      34.509 -14.271 -22.966  0.00  0.00    -0.001 C 
ATOM     18  C   UNL     1      33.719 -13.350 -23.563  0.00  0.00    +0.021 C 
BRANCH  18  19
ATOM     19  C   UNL     1      33.750 -11.890 -23.243  0.00  0.00    +0.232 C 
BRANCH  19  20
ATOM     20  O   UNL     1      32.420 -11.443 -23.025  0.00  0.00    -0.470 OA
BRANCH  20  21
ATOM     21  C   UNL     1      32.148 -10.878 -21.805  0.00  0.00    +0.148 C 
ATOM     22  C   UNL     1      32.167  -9.498 -21.641  0.00  0.00    +0.143 C 
ATOM     23  C   UNL     1      31.887  -8.945 -20.393  0.00  0.00    +0.143 C 
ATOM     24  C   UNL     1      31.851 -11.713 -20.733  0.00  0.00    +0.037 C 
ATOM     25  C   UNL     1      31.588  -9.776 -19.313  0.00  0.00    +0.037 C 
ATOM     26  C   UNL     1      31.570 -11.160 -19.484  0.00  0.00    +0.006 C 
BRANCH  23  27
ATOM     27  O   UNL     1      31.897  -7.595 -20.205  0.00  0.00    -0.505 OA
ATOM     28  H   UNL     1      31.579  -7.231 -19.401  0.00  0.00    +0.292 HD
ENDBRANCH  23  27
BRANCH  22  30
ATOM     29  O   UNL     1      31.631  -8.039 -23.451  0.00  0.00    -0.245 OA
ATOM     30  C   UNL     1      32.479  -8.627 -22.771  0.00  0.00    +0.347 C 
BRANCH  30  31
ATOM     31  O   UNL     1      33.826  -8.545 -22.980  0.00  0.00    -0.441 OA
ATOM     32  C   UNL     1      34.418  -7.248 -22.854  0.00  0.00    +0.256 C 
ENDBRANCH  30  31
ENDBRANCH  22  30
ENDBRANCH  20  21
ENDBRANCH  19  20
ENDBRANCH  18  19
ENDBRANCH   3  17
TORSDOF 10
ENDMDL
