MODEL 1
REMARK VINA RESULT:     -12.1      0.000      0.000
REMARK  Name = 10156987
REMARK  5 active torsions:
REMARK  status: ('A' for Active; 'I' for Inactive)
REMARK    1  A    between atoms: C_2  and  C_23
REMARK    2  A    between atoms: C_9  and  C_13
REMARK    3  A    between atoms: C_23  and  N_24
REMARK    4  A    between atoms: C_25  and  C_31
REMARK    5  A    between atoms: C_31  and  N_32
REMARK                            x       y       z     vdW  Elec       q    Type
REMARK                         _______ _______ _______ _____ _____    ______ ____
ROOT
ATOM      1  N   UNL     1      35.059 -21.684 -18.372  0.00  0.00    -0.312 N 
ATOM      2  C   UNL     1      35.179 -19.525 -21.871  0.00  0.00    -0.043 C 
ATOM      3  C   UNL     1      33.990 -20.001 -21.318  0.00  0.00    -0.005 C 
ATOM      4  C   UNL     1      36.405 -19.757 -21.259  0.00  0.00    -0.005 C 
ATOM      5  C   UNL     1      34.042 -20.733 -20.115  0.00  0.00    +0.014 C 
ATOM      6  C   UNL     1      35.286 -20.955 -19.518  0.00  0.00    +0.048 C 
ATOM      7  C   UNL     1      36.482 -20.481 -20.066  0.00  0.00    +0.014 C 
ATOM      8  C   UNL     1      33.066 -21.353 -19.288  0.00  0.00    +0.016 C 
ATOM      9  C   UNL     1      33.721 -21.930 -18.225  0.00  0.00    +0.053 C 
ATOM     10  H   UNL     1      35.760 -21.986 -17.749  0.00  0.00    +0.152 HD
ENDROOT
BRANCH   9  13
ATOM     11  O   UNL     1      35.516 -23.150 -16.367  0.00  0.00    -0.270 OA
ATOM     12  N   UNL     1      33.817 -23.975 -15.069  0.00  0.00    -0.280 N 
ATOM     13  C   UNL     1      33.293 -22.680 -17.085  0.00  0.00    +0.067 C 
ATOM     14  C   UNL     1      31.980 -22.840 -16.848  0.00  0.00    +0.007 C 
ATOM     15  C   UNL     1      34.311 -23.278 -16.155  0.00  0.00    +0.251 C 
ATOM     16  C   UNL     1      31.508 -23.593 -15.688  0.00  0.00    +0.014 C 
ATOM     17  C   UNL     1      32.447 -24.148 -14.813  0.00  0.00    +0.051 C 
ATOM     18  C   UNL     1      30.145 -23.767 -15.433  0.00  0.00    +0.001 C 
ATOM     19  C   UNL     1      32.034 -24.872 -13.692  0.00  0.00    +0.015 C 
ATOM     20  C   UNL     1      29.731 -24.491 -14.312  0.00  0.00    +0.000 C 
ATOM     21  C   UNL     1      30.673 -25.042 -13.444  0.00  0.00    +0.001 C 
ATOM     22  H   UNL     1      34.461 -24.373 -14.440  0.00  0.00    +0.155 HD
ENDBRANCH   9  13
BRANCH   2  23
ATOM     23  C   UNL     1      35.130 -18.747 -23.153  0.00  0.00    -0.050 C 
BRANCH  23  24
ATOM     24  N   UNL     1      34.495 -17.441 -22.976  0.00  0.00    +0.390 N 
ATOM     25  C   UNL     1      34.392 -14.511 -23.044  0.00  0.00    -0.026 C 
ATOM     26  C   UNL     1      34.534 -15.299 -21.738  0.00  0.00    -0.025 C 
ATOM     27  C   UNL     1      33.708 -15.383 -24.102  0.00  0.00    -0.025 C 
ATOM     28  C   UNL     1      35.217 -16.647 -21.973  0.00  0.00    -0.077 C 
ATOM     29  C   UNL     1      34.419 -16.729 -24.260  0.00  0.00    -0.077 C 
ATOM     30  H   UNL     1      33.543 -17.583 -22.639  0.00  0.00    -0.079 HD
BRANCH  25  31
ATOM     31  C   UNL     1      33.621 -13.213 -22.821  0.00  0.00    -0.086 C 
BRANCH  31  32
ATOM     32  N   UNL     1      34.187 -12.131 -23.612  0.00  0.00    +0.380 N 
ATOM     33  H   UNL     1      34.720 -11.510 -23.005  0.00  0.00    -0.089 HD
ATOM     34  H   UNL     1      33.434 -11.606 -24.058  0.00  0.00    -0.089 HD
ATOM     35  H   UNL     1      34.802 -12.518 -24.328  0.00  0.00    -0.089 HD
ENDBRANCH  31  32
ENDBRANCH  25  31
ENDBRANCH  23  24
ENDBRANCH   2  23
TORSDOF 5
ENDMDL
MODEL 2
REMARK VINA RESULT:     -12.1      2.028      2.836
REMARK  Name = 10156987
REMARK  5 active torsions:
REMARK  status: ('A' for Active; 'I' for Inactive)
REMARK    1  A    between atoms: C_2  and  C_23
REMARK    2  A    between atoms: C_9  and  C_13
REMARK    3  A    between atoms: C_23  and  N_24
REMARK    4  A    between atoms: C_25  and  C_31
REMARK    5  A    between atoms: C_31  and  N_32
REMARK                            x       y       z     vdW  Elec       q    Type
REMARK                         _______ _______ _______ _____ _____    ______ ____
ROOT
ATOM      1  N   UNL     1      36.122 -20.679 -19.342  0.00  0.00    -0.312 N 
ATOM      2  C   UNL     1      35.132 -18.602 -22.752  0.00  0.00    -0.043 C 
ATOM      3  C   UNL     1      34.208 -19.368 -22.040  0.00  0.00    -0.005 C 
ATOM      4  C   UNL     1      36.454 -18.497 -22.341  0.00  0.00    -0.005 C 
ATOM      5  C   UNL     1      34.635 -20.048 -20.881  0.00  0.00    +0.014 C 
ATOM      6  C   UNL     1      35.970 -19.928 -20.487  0.00  0.00    +0.048 C 
ATOM      7  C   UNL     1      36.901 -19.162 -21.195  0.00  0.00    +0.014 C 
ATOM      8  C   UNL     1      33.994 -20.895 -19.935  0.00  0.00    +0.016 C 
ATOM      9  C   UNL     1      34.934 -21.267 -19.001  0.00  0.00    +0.053 C 
ATOM     10  H   UNL     1      36.964 -20.779 -18.842  0.00  0.00    +0.152 HD
ENDROOT
BRANCH   9  13
ATOM     11  O   UNL     1      32.628 -22.733 -18.168  0.00  0.00    -0.270 OA
ATOM     12  N   UNL     1      33.693 -23.621 -16.343  0.00  0.00    -0.280 N 
ATOM     13  C   UNL     1      34.898 -22.090 -17.833  0.00  0.00    +0.067 C 
ATOM     14  C   UNL     1      35.994 -22.200 -17.062  0.00  0.00    +0.007 C 
ATOM     15  C   UNL     1      33.642 -22.834 -17.478  0.00  0.00    +0.251 C 
ATOM     16  C   UNL     1      35.994 -23.040 -15.867  0.00  0.00    +0.014 C 
ATOM     17  C   UNL     1      34.832 -23.742 -15.531  0.00  0.00    +0.051 C 
ATOM     18  C   UNL     1      37.127 -23.160 -15.056  0.00  0.00    +0.001 C 
ATOM     19  C   UNL     1      34.795 -24.557 -14.397  0.00  0.00    +0.015 C 
ATOM     20  C   UNL     1      37.092 -23.975 -13.922  0.00  0.00    +0.000 C 
ATOM     21  C   UNL     1      35.929 -24.671 -13.593  0.00  0.00    +0.001 C 
ATOM     22  H   UNL     1      32.886 -24.124 -16.089  0.00  0.00    +0.155 HD
ENDBRANCH   9  13
BRANCH   2  23
ATOM     23  C   UNL     1      34.683 -17.878 -23.987  0.00  0.00    -0.050 C 
BRANCH  23  24
ATOM     24  N   UNL     1      34.124 -16.562 -23.678  0.00  0.00    +0.390 N 
ATOM     25  C   UNL     1      34.154 -13.632 -23.546  0.00  0.00    -0.026 C 
ATOM     26  C   UNL     1      34.354 -14.514 -22.309  0.00  0.00    -0.025 C 
ATOM     27  C   UNL     1      33.354 -14.400 -24.604  0.00  0.00    -0.025 C 
ATOM     28  C   UNL     1      34.955 -15.870 -22.683  0.00  0.00    -0.077 C 
ATOM     29  C   UNL     1      33.987 -15.761 -24.902  0.00  0.00    -0.077 C 
ATOM     30  H   UNL     1      33.194 -16.687 -23.279  0.00  0.00    -0.079 HD
BRANCH  25  31
ATOM     31  C   UNL     1      33.463 -12.321 -23.181  0.00  0.00    -0.086 C 
BRANCH  31  32
ATOM     32  N   UNL     1      34.114 -11.193 -23.828  0.00  0.00    +0.380 N 
ATOM     33  H   UNL     1      34.473 -11.485 -24.737  0.00  0.00    -0.089 HD
ATOM     34  H   UNL     1      34.885 -10.866 -23.246  0.00  0.00    -0.089 HD
ATOM     35  H   UNL     1      33.440 -10.438 -23.955  0.00  0.00    -0.089 HD
ENDBRANCH  31  32
ENDBRANCH  25  31
ENDBRANCH  23  24
ENDBRANCH   2  23
TORSDOF 5
ENDMDL
MODEL 3
REMARK VINA RESULT:     -11.6      2.345      3.491
REMARK  Name = 10156987
REMARK  5 active torsions:
REMARK  status: ('A' for Active; 'I' for Inactive)
REMARK    1  A    between atoms: C_2  and  C_23
REMARK    2  A    between atoms: C_9  and  C_13
REMARK    3  A    between atoms: C_23  and  N_24
REMARK    4  A    between atoms: C_25  and  C_31
REMARK    5  A    between atoms: C_31  and  N_32
REMARK                            x       y       z     vdW  Elec       q    Type
REMARK                         _______ _______ _______ _____ _____    ______ ____
ROOT
ATOM      1  N   UNL     1      34.343 -22.126 -17.822  0.00  0.00    -0.312 N 
ATOM      2  C   UNL     1      35.105 -19.852 -21.163  0.00  0.00    -0.043 C 
ATOM      3  C   UNL     1      36.109 -20.266 -20.287  0.00  0.00    -0.005 C 
ATOM      4  C   UNL     1      33.775 -20.191 -20.951  0.00  0.00    -0.005 C 
ATOM      5  C   UNL     1      35.757 -21.045 -19.166  0.00  0.00    +0.014 C 
ATOM      6  C   UNL     1      34.413 -21.372 -18.972  0.00  0.00    +0.048 C 
ATOM      7  C   UNL     1      33.402 -20.961 -19.846  0.00  0.00    +0.014 C 
ATOM      8  C   UNL     1      36.487 -21.627 -18.093  0.00  0.00    +0.016 C 
ATOM      9  C   UNL     1      35.591 -22.285 -17.284  0.00  0.00    +0.053 C 
ATOM     10  H   UNL     1      33.514 -22.497 -17.441  0.00  0.00    +0.152 HD
ENDROOT
BRANCH   9  13
ATOM     11  O   UNL     1      33.361 -23.178 -15.736  0.00  0.00    -0.270 OA
ATOM     12  N   UNL     1      34.690 -24.222 -14.188  0.00  0.00    -0.280 N 
ATOM     13  C   UNL     1      35.716 -23.044 -16.078  0.00  0.00    +0.067 C 
ATOM     14  C   UNL     1      36.937 -23.369 -15.620  0.00  0.00    +0.007 C 
ATOM     15  C   UNL     1      34.485 -23.479 -15.335  0.00  0.00    +0.251 C 
ATOM     16  C   UNL     1      37.100 -24.150 -14.396  0.00  0.00    +0.014 C 
ATOM     17  C   UNL     1      35.961 -24.567 -13.701  0.00  0.00    +0.051 C 
ATOM     18  C   UNL     1      38.365 -24.493 -13.909  0.00  0.00    +0.001 C 
ATOM     19  C   UNL     1      36.077 -25.318 -12.528  0.00  0.00    +0.015 C 
ATOM     20  C   UNL     1      38.482 -25.244 -12.737  0.00  0.00    +0.000 C 
ATOM     21  C   UNL     1      37.342 -25.655 -12.049  0.00  0.00    +0.001 C 
ATOM     22  H   UNL     1      33.900 -24.525 -13.684  0.00  0.00    +0.155 HD
ENDBRANCH   9  13
BRANCH   2  23
ATOM     23  C   UNL     1      35.474 -19.022 -22.358  0.00  0.00    -0.050 C 
BRANCH  23  24
ATOM     24  N   UNL     1      34.759 -17.746 -22.381  0.00  0.00    +0.390 N 
ATOM     25  C   UNL     1      34.535 -14.836 -22.668  0.00  0.00    -0.026 C 
ATOM     26  C   UNL     1      34.489 -15.534 -21.304  0.00  0.00    -0.025 C 
ATOM     27  C   UNL     1      34.081 -15.808 -23.762  0.00  0.00    -0.025 C 
ATOM     28  C   UNL     1      35.264 -16.853 -21.328  0.00  0.00    -0.077 C 
ATOM     29  C   UNL     1      34.869 -17.119 -23.705  0.00  0.00    -0.077 C 
ATOM     30  H   UNL     1      33.771 -17.922 -22.197  0.00  0.00    -0.079 HD
BRANCH  25  31
ATOM     31  C   UNL     1      33.679 -13.573 -22.667  0.00  0.00    -0.086 C 
BRANCH  31  32
ATOM     32  N   UNL     1      34.250 -12.558 -23.538  0.00  0.00    +0.380 N 
ATOM     33  H   UNL     1      34.181 -12.865 -24.508  0.00  0.00    -0.089 HD
ATOM     34  H   UNL     1      35.231 -12.415 -23.296  0.00  0.00    -0.089 HD
ATOM     35  H   UNL     1      33.740 -11.682 -23.421  0.00  0.00    -0.089 HD
ENDBRANCH  31  32
ENDBRANCH  25  31
ENDBRANCH  23  24
ENDBRANCH   2  23
TORSDOF 5
ENDMDL
MODEL 4
REMARK VINA RESULT:     -11.3      3.801     11.631
REMARK  Name = 10156987
REMARK  5 active torsions:
REMARK  status: ('A' for Active; 'I' for Inactive)
REMARK    1  A    between atoms: C_2  and  C_23
REMARK    2  A    between atoms: C_9  and  C_13
REMARK    3  A    between atoms: C_23  and  N_24
REMARK    4  A    between atoms: C_25  and  C_31
REMARK    5  A    between atoms: C_31  and  N_32
REMARK                            x       y       z     vdW  Elec       q    Type
REMARK                         _______ _______ _______ _____ _____    ______ ____
ROOT
ATOM      1  N   UNL     1      33.234 -13.516 -23.912  0.00  0.00    -0.312 N 
ATOM      2  C   UNL     1      34.932 -17.216 -23.323  0.00  0.00    -0.043 C 
ATOM      3  C   UNL     1      35.029 -16.183 -22.389  0.00  0.00    -0.005 C 
ATOM      4  C   UNL     1      34.245 -17.048 -24.519  0.00  0.00    -0.005 C 
ATOM      5  C   UNL     1      34.416 -14.947 -22.674  0.00  0.00    +0.014 C 
ATOM      6  C   UNL     1      33.732 -14.800 -23.883  0.00  0.00    +0.048 C 
ATOM      7  C   UNL     1      33.629 -15.830 -24.823  0.00  0.00    +0.014 C 
ATOM      8  C   UNL     1      34.311 -13.709 -21.982  0.00  0.00    +0.016 C 
ATOM      9  C   UNL     1      33.579 -12.849 -22.768  0.00  0.00    +0.053 C 
ATOM     10  H   UNL     1      32.706 -13.133 -24.650  0.00  0.00    +0.152 HD
ENDROOT
BRANCH   9  13
ATOM     11  O   UNL     1      31.245 -12.080 -21.311  0.00  0.00    -0.270 OA
ATOM     12  N   UNL     1      31.571  -9.847 -21.716  0.00  0.00    -0.280 N 
ATOM     13  C   UNL     1      33.149 -11.494 -22.619  0.00  0.00    +0.067 C 
ATOM     14  C   UNL     1      33.859 -10.504 -23.188  0.00  0.00    +0.007 C 
ATOM     15  C   UNL     1      31.912 -11.182 -21.825  0.00  0.00    +0.251 C 
ATOM     16  C   UNL     1      33.452  -9.108 -23.048  0.00  0.00    +0.014 C 
ATOM     17  C   UNL     1      32.306  -8.806 -22.305  0.00  0.00    +0.051 C 
ATOM     18  C   UNL     1      34.181  -8.070 -23.635  0.00  0.00    +0.001 C 
ATOM     19  C   UNL     1      31.887  -7.483 -22.148  0.00  0.00    +0.015 C 
ATOM     20  C   UNL     1      33.764  -6.746 -23.478  0.00  0.00    +0.000 C 
ATOM     21  C   UNL     1      32.620  -6.453 -22.737  0.00  0.00    +0.001 C 
ATOM     22  H   UNL     1      30.768  -9.614 -21.196  0.00  0.00    +0.155 HD
ENDBRANCH   9  13
BRANCH   2  23
ATOM     23  C   UNL     1      35.584 -18.535 -23.026  0.00  0.00    -0.050 C 
BRANCH  23  24
ATOM     24  N   UNL     1      35.158 -19.078 -21.737  0.00  0.00    +0.390 N 
ATOM     25  C   UNL     1      34.362 -21.214 -19.892  0.00  0.00    -0.026 C 
ATOM     26  C   UNL     1      33.353 -20.236 -20.502  0.00  0.00    -0.025 C 
ATOM     27  C   UNL     1      35.750 -20.567 -19.852  0.00  0.00    -0.025 C 
ATOM     28  C   UNL     1      33.836 -19.709 -21.855  0.00  0.00    -0.077 C 
ATOM     29  C   UNL     1      36.155 -20.029 -21.226  0.00  0.00    -0.077 C 
ATOM     30  H   UNL     1      35.083 -18.312 -21.068  0.00  0.00    -0.079 HD
BRANCH  25  31
ATOM     31  C   UNL     1      33.923 -21.659 -18.500  0.00  0.00    -0.086 C 
BRANCH  31  32
ATOM     32  N   UNL     1      32.548 -22.133 -18.516  0.00  0.00    +0.380 N 
ATOM     33  H   UNL     1      32.235 -22.234 -19.481  0.00  0.00    -0.089 HD
ATOM     34  H   UNL     1      31.950 -21.461 -18.034  0.00  0.00    -0.089 HD
ATOM     35  H   UNL     1      32.493 -23.036 -18.044  0.00  0.00    -0.089 HD
ENDBRANCH  31  32
ENDBRANCH  25  31
ENDBRANCH  23  24
ENDBRANCH   2  23
TORSDOF 5
ENDMDL
MODEL 5
REMARK VINA RESULT:     -11.1      7.179     11.895
REMARK  Name = 10156987
REMARK  5 active torsions:
REMARK  status: ('A' for Active; 'I' for Inactive)
REMARK    1  A    between atoms: C_2  and  C_23
REMARK    2  A    between atoms: C_9  and  C_13
REMARK    3  A    between atoms: C_23  and  N_24
REMARK    4  A    between atoms: C_25  and  C_31
REMARK    5  A    between atoms: C_31  and  N_32
REMARK                            x       y       z     vdW  Elec       q    Type
REMARK                         _______ _______ _______ _____ _____    ______ ____
ROOT
ATOM      1  N   UNL     1      34.659 -11.450 -24.116  0.00  0.00    -0.312 N 
ATOM      2  C   UNL     1      33.546  -7.737 -22.742  0.00  0.00    -0.043 C 
ATOM      3  C   UNL     1      32.835  -8.898 -22.439  0.00  0.00    -0.005 C 
ATOM      4  C   UNL     1      34.686  -7.773 -23.535  0.00  0.00    -0.005 C 
ATOM      5  C   UNL     1      33.289 -10.129 -22.953  0.00  0.00    +0.014 C 
ATOM      6  C   UNL     1      34.436 -10.142 -23.749  0.00  0.00    +0.048 C 
ATOM      7  C   UNL     1      35.155  -8.982 -24.057  0.00  0.00    +0.014 C 
ATOM      8  C   UNL     1      32.833 -11.473 -22.857  0.00  0.00    +0.016 C 
ATOM      9  C   UNL     1      33.695 -12.262 -23.583  0.00  0.00    +0.053 C 
ATOM     10  H   UNL     1      35.405 -11.757 -24.682  0.00  0.00    +0.152 HD
ENDROOT
BRANCH   9  13
ATOM     11  O   UNL     1      32.722 -13.449 -25.992  0.00  0.00    -0.270 OA
ATOM     12  N   UNL     1      33.349 -15.560 -25.357  0.00  0.00    -0.280 N 
ATOM     13  C   UNL     1      33.762 -13.663 -23.859  0.00  0.00    +0.067 C 
ATOM     14  C   UNL     1      34.306 -14.495 -22.953  0.00  0.00    +0.007 C 
ATOM     15  C   UNL     1      33.234 -14.197 -25.160  0.00  0.00    +0.251 C 
ATOM     16  C   UNL     1      34.398 -15.930 -23.208  0.00  0.00    +0.014 C 
ATOM     17  C   UNL     1      33.915 -16.437 -24.418  0.00  0.00    +0.051 C 
ATOM     18  C   UNL     1      34.960 -16.805 -22.273  0.00  0.00    +0.001 C 
ATOM     19  C   UNL     1      33.988 -17.804 -24.698  0.00  0.00    +0.015 C 
ATOM     20  C   UNL     1      35.034 -18.172 -22.552  0.00  0.00    +0.000 C 
ATOM     21  C   UNL     1      34.549 -18.670 -23.761  0.00  0.00    +0.001 C 
ATOM     22  H   UNL     1      33.016 -15.937 -26.204  0.00  0.00    +0.155 HD
ENDBRANCH   9  13
BRANCH   2  23
ATOM     23  C   UNL     1      33.067  -6.422 -22.198  0.00  0.00    -0.050 C 
BRANCH  23  24
ATOM     24  N   UNL     1      32.330  -5.652 -23.199  0.00  0.00    +0.390 N 
ATOM     25  C   UNL     1      31.639  -3.228 -24.699  0.00  0.00    -0.026 C 
ATOM     26  C   UNL     1      30.747  -3.790 -23.587  0.00  0.00    -0.025 C 
ATOM     27  C   UNL     1      32.485  -4.355 -25.301  0.00  0.00    -0.025 C 
ATOM     28  C   UNL     1      31.566  -4.572 -22.559  0.00  0.00    -0.077 C 
ATOM     29  C   UNL     1      33.247  -5.119 -24.216  0.00  0.00    -0.077 C 
ATOM     30  H   UNL     1      31.668  -6.271 -23.667  0.00  0.00    -0.079 HD
BRANCH  25  31
ATOM     31  C   UNL     1      30.805  -2.535 -25.774  0.00  0.00    -0.086 C 
BRANCH  31  32
ATOM     32  N   UNL     1      29.442  -2.320 -25.315  0.00  0.00    +0.380 N 
ATOM     33  H   UNL     1      29.306  -1.331 -25.106  0.00  0.00    -0.089 HD
ATOM     34  H   UNL     1      29.276  -2.871 -24.473  0.00  0.00    -0.089 HD
ATOM     35  H   UNL     1      28.788  -2.606 -26.044  0.00  0.00    -0.089 HD
ENDBRANCH  31  32
ENDBRANCH  25  31
ENDBRANCH  23  24
ENDBRANCH   2  23
TORSDOF 5
ENDMDL
MODEL 6
REMARK VINA RESULT:     -11.0      5.289     11.980
REMARK  Name = 10156987
REMARK  5 active torsions:
REMARK  status: ('A' for Active; 'I' for Inactive)
REMARK    1  A    between atoms: C_2  and  C_23
REMARK    2  A    between atoms: C_9  and  C_13
REMARK    3  A    between atoms: C_23  and  N_24
REMARK    4  A    between atoms: C_25  and  C_31
REMARK    5  A    between atoms: C_31  and  N_32
REMARK                            x       y       z     vdW  Elec       q    Type
REMARK                         _______ _______ _______ _____ _____    ______ ____
ROOT
ATOM      1  N   UNL     1      33.427 -12.613 -24.758  0.00  0.00    -0.312 N 
ATOM      2  C   UNL     1      33.984 -16.663 -24.304  0.00  0.00    -0.043 C 
ATOM      3  C   UNL     1      34.218 -15.749 -23.276  0.00  0.00    -0.005 C 
ATOM      4  C   UNL     1      33.542 -16.249 -25.554  0.00  0.00    -0.005 C 
ATOM      5  C   UNL     1      34.001 -14.378 -23.520  0.00  0.00    +0.014 C 
ATOM      6  C   UNL     1      33.558 -13.984 -24.784  0.00  0.00    +0.048 C 
ATOM      7  C   UNL     1      33.320 -14.895 -25.819  0.00  0.00    +0.014 C 
ATOM      8  C   UNL     1      34.131 -13.198 -22.737  0.00  0.00    +0.016 C 
ATOM      9  C   UNL     1      33.771 -12.130 -23.525  0.00  0.00    +0.053 C 
ATOM     10  H   UNL     1      33.129 -12.061 -25.517  0.00  0.00    +0.152 HD
ENDROOT
BRANCH   9  13
ATOM     11  O   UNL     1      35.557 -10.249 -24.724  0.00  0.00    -0.270 OA
ATOM     12  N   UNL     1      34.529  -8.452 -23.741  0.00  0.00    -0.280 N 
ATOM     13  C   UNL     1      33.699 -10.719 -23.308  0.00  0.00    +0.067 C 
ATOM     14  C   UNL     1      32.750 -10.218 -22.497  0.00  0.00    +0.007 C 
ATOM     15  C   UNL     1      34.675  -9.803 -23.990  0.00  0.00    +0.251 C 
ATOM     16  C   UNL     1      32.642  -8.780 -22.261  0.00  0.00    +0.014 C 
ATOM     17  C   UNL     1      33.542  -7.919 -22.896  0.00  0.00    +0.051 C 
ATOM     18  C   UNL     1      31.661  -8.248 -21.419  0.00  0.00    +0.001 C 
ATOM     19  C   UNL     1      33.468  -6.538 -22.697  0.00  0.00    +0.015 C 
ATOM     20  C   UNL     1      31.585  -6.867 -21.219  0.00  0.00    +0.000 C 
ATOM     21  C   UNL     1      32.487  -6.015 -21.856  0.00  0.00    +0.001 C 
ATOM     22  H   UNL     1      35.152  -7.828 -24.180  0.00  0.00    +0.155 HD
ENDBRANCH   9  13
BRANCH   2  23
ATOM     23  C   UNL     1      34.215 -18.124 -24.050  0.00  0.00    -0.050 C 
BRANCH  23  24
ATOM     24  N   UNL     1      34.783 -18.367 -22.724  0.00  0.00    +0.390 N 
ATOM     25  C   UNL     1      36.186 -19.944 -20.689  0.00  0.00    -0.026 C 
ATOM     26  C   UNL     1      34.667 -19.745 -20.672  0.00  0.00    -0.025 C 
ATOM     27  C   UNL     1      36.852 -18.782 -21.433  0.00  0.00    -0.025 C 
ATOM     28  C   UNL     1      34.121 -19.511 -22.082  0.00  0.00    -0.077 C 
ATOM     29  C   UNL     1      36.234 -18.580 -22.818  0.00  0.00    -0.077 C 
ATOM     30  H   UNL     1      34.623 -17.544 -22.144  0.00  0.00    -0.079 HD
BRANCH  25  31
ATOM     31  C   UNL     1      36.739 -20.077 -19.272  0.00  0.00    -0.086 C 
BRANCH  31  32
ATOM     32  N   UNL     1      36.241 -21.284 -18.632  0.00  0.00    +0.380 N 
ATOM     33  H   UNL     1      35.237 -21.195 -18.473  0.00  0.00    -0.089 HD
ATOM     34  H   UNL     1      36.716 -21.416 -17.739  0.00  0.00    -0.089 HD
ATOM     35  H   UNL     1      36.420 -22.088 -19.234  0.00  0.00    -0.089 HD
ENDBRANCH  31  32
ENDBRANCH  25  31
ENDBRANCH  23  24
ENDBRANCH   2  23
TORSDOF 5
ENDMDL
MODEL 7
REMARK VINA RESULT:     -11.0      2.840     10.384
REMARK  Name = 10156987
REMARK  5 active torsions:
REMARK  status: ('A' for Active; 'I' for Inactive)
REMARK    1  A    between atoms: C_2  and  C_23
REMARK    2  A    between atoms: C_9  and  C_13
REMARK    3  A    between atoms: C_23  and  N_24
REMARK    4  A    between atoms: C_25  and  C_31
REMARK    5  A    between atoms: C_31  and  N_32
REMARK                            x       y       z     vdW  Elec       q    Type
REMARK                         _______ _______ _______ _____ _____    ______ ____
ROOT
ATOM      1  N   UNL     1      34.030 -19.386 -21.397  0.00  0.00    -0.312 N 
ATOM      2  C   UNL     1      36.117 -21.513 -18.562  0.00  0.00    -0.043 C 
ATOM      3  C   UNL     1      36.685 -20.466 -19.290  0.00  0.00    -0.005 C 
ATOM      4  C   UNL     1      34.797 -21.898 -18.758  0.00  0.00    -0.005 C 
ATOM      5  C   UNL     1      35.895 -19.791 -20.243  0.00  0.00    +0.014 C 
ATOM      6  C   UNL     1      34.571 -20.196 -20.424  0.00  0.00    +0.048 C 
ATOM      7  C   UNL     1      33.995 -21.244 -19.698  0.00  0.00    +0.014 C 
ATOM      8  C   UNL     1      36.129 -18.713 -21.140  0.00  0.00    +0.016 C 
ATOM      9  C   UNL     1      34.964 -18.487 -21.836  0.00  0.00    +0.053 C 
ATOM     10  H   UNL     1      33.105 -19.445 -21.730  0.00  0.00    +0.152 HD
ENDROOT
BRANCH   9  13
ATOM     11  O   UNL     1      34.168 -19.262 -24.469  0.00  0.00    -0.270 OA
ATOM     12  N   UNL     1      33.799 -17.100 -25.133  0.00  0.00    -0.280 N 
ATOM     13  C   UNL     1      34.583 -17.559 -22.854  0.00  0.00    +0.067 C 
ATOM     14  C   UNL     1      34.591 -16.240 -22.590  0.00  0.00    +0.007 C 
ATOM     15  C   UNL     1      34.168 -18.059 -24.209  0.00  0.00    +0.251 C 
ATOM     16  C   UNL     1      34.198 -15.265 -23.605  0.00  0.00    +0.014 C 
ATOM     17  C   UNL     1      33.804 -15.721 -24.867  0.00  0.00    +0.051 C 
ATOM     18  C   UNL     1      34.204 -13.892 -23.343  0.00  0.00    +0.001 C 
ATOM     19  C   UNL     1      33.419 -14.819 -25.862  0.00  0.00    +0.015 C 
ATOM     20  C   UNL     1      33.820 -12.989 -24.336  0.00  0.00    +0.000 C 
ATOM     21  C   UNL     1      33.429 -13.451 -25.593  0.00  0.00    +0.001 C 
ATOM     22  H   UNL     1      33.517 -17.400 -26.027  0.00  0.00    +0.155 HD
ENDBRANCH   9  13
BRANCH   2  23
ATOM     23  C   UNL     1      36.954 -22.236 -17.547  0.00  0.00    -0.050 C 
BRANCH  23  24
ATOM     24  N   UNL     1      36.250 -22.402 -16.276  0.00  0.00    +0.390 N 
ATOM     25  C   UNL     1      35.095 -23.946 -14.066  0.00  0.00    -0.026 C 
ATOM     26  C   UNL     1      34.234 -23.301 -15.158  0.00  0.00    -0.025 C 
ATOM     27  C   UNL     1      36.418 -23.185 -13.935  0.00  0.00    -0.025 C 
ATOM     28  C   UNL     1      35.009 -23.165 -16.470  0.00  0.00    -0.077 C 
ATOM     29  C   UNL     1      37.121 -23.052 -15.287  0.00  0.00    -0.077 C 
ATOM     30  H   UNL     1      36.000 -21.480 -15.917  0.00  0.00    -0.079 HD
BRANCH  25  31
ATOM     31  C   UNL     1      34.351 -23.988 -12.734  0.00  0.00    -0.086 C 
BRANCH  31  32
ATOM     32  N   UNL     1      35.225 -23.596 -11.639  0.00  0.00    +0.380 N 
ATOM     33  H   UNL     1      35.624 -22.679 -11.835  0.00  0.00    -0.089 HD
ATOM     34  H   UNL     1      35.977 -24.280 -11.543  0.00  0.00    -0.089 HD
ATOM     35  H   UNL     1      34.689 -23.556 -10.772  0.00  0.00    -0.089 HD
ENDBRANCH  31  32
ENDBRANCH  25  31
ENDBRANCH  23  24
ENDBRANCH   2  23
TORSDOF 5
ENDMDL
MODEL 8
REMARK VINA RESULT:     -11.0      6.531     10.742
REMARK  Name = 10156987
REMARK  5 active torsions:
REMARK  status: ('A' for Active; 'I' for Inactive)
REMARK    1  A    between atoms: C_2  and  C_23
REMARK    2  A    between atoms: C_9  and  C_13
REMARK    3  A    between atoms: C_23  and  N_24
REMARK    4  A    between atoms: C_25  and  C_31
REMARK    5  A    between atoms: C_31  and  N_32
REMARK                            x       y       z     vdW  Elec       q    Type
REMARK                         _______ _______ _______ _____ _____    ______ ____
ROOT
ATOM      1  N   UNL     1      32.551 -12.900 -21.993  0.00  0.00    -0.312 N 
ATOM      2  C   UNL     1      32.262  -8.804 -22.230  0.00  0.00    -0.043 C 
ATOM      3  C   UNL     1      33.087  -9.552 -23.071  0.00  0.00    -0.005 C 
ATOM      4  C   UNL     1      31.481  -9.411 -21.255  0.00  0.00    -0.005 C 
ATOM      5  C   UNL     1      33.124 -10.953 -22.919  0.00  0.00    +0.014 C 
ATOM      6  C   UNL     1      32.332 -11.542 -21.931  0.00  0.00    +0.048 C 
ATOM      7  C   UNL     1      31.502 -10.798 -21.085  0.00  0.00    +0.014 C 
ATOM      8  C   UNL     1      33.824 -12.004 -23.574  0.00  0.00    +0.016 C 
ATOM      9  C   UNL     1      33.451 -13.188 -22.983  0.00  0.00    +0.053 C 
ATOM     10  H   UNL     1      32.122 -13.567 -21.409  0.00  0.00    +0.152 HD
ENDROOT
BRANCH   9  13
ATOM     11  O   UNL     1      32.997 -14.578 -25.438  0.00  0.00    -0.270 OA
ATOM     12  N   UNL     1      33.923 -16.524 -24.657  0.00  0.00    -0.280 N 
ATOM     13  C   UNL     1      33.806 -14.557 -23.196  0.00  0.00    +0.067 C 
ATOM     14  C   UNL     1      34.384 -15.257 -22.205  0.00  0.00    +0.007 C 
ATOM     15  C   UNL     1      33.537 -15.203 -24.526  0.00  0.00    +0.251 C 
ATOM     16  C   UNL     1      34.767 -16.655 -22.392  0.00  0.00    +0.014 C 
ATOM     17  C   UNL     1      34.527 -17.263 -23.628  0.00  0.00    +0.051 C 
ATOM     18  C   UNL     1      35.367 -17.393 -21.369  0.00  0.00    +0.001 C 
ATOM     19  C   UNL     1      34.882 -18.597 -23.846  0.00  0.00    +0.015 C 
ATOM     20  C   UNL     1      35.722 -18.727 -21.585  0.00  0.00    +0.000 C 
ATOM     21  C   UNL     1      35.480 -19.327 -22.820  0.00  0.00    +0.001 C 
ATOM     22  H   UNL     1      33.764 -16.970 -25.520  0.00  0.00    +0.155 HD
ENDBRANCH   9  13
BRANCH   2  23
ATOM     23  C   UNL     1      32.219  -7.312 -22.386  0.00  0.00    -0.050 C 
BRANCH  23  24
ATOM     24  N   UNL     1      32.902  -6.869 -23.601  0.00  0.00    +0.390 N 
ATOM     25  C   UNL     1      34.440  -4.986 -25.243  0.00  0.00    -0.026 C 
ATOM     26  C   UNL     1      32.936  -5.209 -25.437  0.00  0.00    -0.025 C 
ATOM     27  C   UNL     1      35.070  -6.232 -24.611  0.00  0.00    -0.025 C 
ATOM     28  C   UNL     1      32.267  -5.656 -24.136  0.00  0.00    -0.077 C 
ATOM     29  C   UNL     1      34.330  -6.645 -23.336  0.00  0.00    -0.077 C 
ATOM     30  H   UNL     1      32.824  -7.601 -24.306  0.00  0.00    -0.079 HD
BRANCH  25  31
ATOM     31  C   UNL     1      35.119  -4.639 -26.565  0.00  0.00    -0.086 C 
BRANCH  31  32
ATOM     32  N   UNL     1      34.135  -4.452 -27.620  0.00  0.00    +0.380 N 
ATOM     33  H   UNL     1      33.318  -3.975 -27.241  0.00  0.00    -0.089 HD
ATOM     34  H   UNL     1      33.857  -5.361 -27.990  0.00  0.00    -0.089 HD
ATOM     35  H   UNL     1      34.541  -3.889 -28.368  0.00  0.00    -0.089 HD
ENDBRANCH  31  32
ENDBRANCH  25  31
ENDBRANCH  23  24
ENDBRANCH   2  23
TORSDOF 5
ENDMDL
MODEL 9
REMARK VINA RESULT:     -10.9      4.624     12.440
REMARK  Name = 10156987
REMARK  5 active torsions:
REMARK  status: ('A' for Active; 'I' for Inactive)
REMARK    1  A    between atoms: C_2  and  C_23
REMARK    2  A    between atoms: C_9  and  C_13
REMARK    3  A    between atoms: C_23  and  N_24
REMARK    4  A    between atoms: C_25  and  C_31
REMARK    5  A    between atoms: C_31  and  N_32
REMARK                            x       y       z     vdW  Elec       q    Type
REMARK                         _______ _______ _______ _____ _____    ______ ____
ROOT
ATOM      1  N   UNL     1      33.272 -12.160 -21.416  0.00  0.00    -0.312 N 
ATOM      2  C   UNL     1      34.740 -15.903 -22.285  0.00  0.00    -0.043 C 
ATOM      3  C   UNL     1      34.598 -14.906 -23.250  0.00  0.00    -0.005 C 
ATOM      4  C   UNL     1      34.389 -15.682 -20.958  0.00  0.00    -0.005 C 
ATOM      5  C   UNL     1      34.086 -13.651 -22.863  0.00  0.00    +0.014 C 
ATOM      6  C   UNL     1      33.739 -13.452 -21.525  0.00  0.00    +0.048 C 
ATOM      7  C   UNL     1      33.879 -14.447 -20.552  0.00  0.00    +0.014 C 
ATOM      8  C   UNL     1      33.811 -12.436 -23.551  0.00  0.00    +0.016 C 
ATOM      9  C   UNL     1      33.312 -11.540 -22.635  0.00  0.00    +0.053 C 
ATOM     10  H   UNL     1      32.955 -11.744 -20.582  0.00  0.00    +0.152 HD
ENDROOT
BRANCH   9  13
ATOM     11  O   UNL     1      30.817 -10.632 -21.578  0.00  0.00    -0.270 OA
ATOM     12  N   UNL     1      31.181  -8.465 -22.233  0.00  0.00    -0.280 N 
ATOM     13  C   UNL     1      32.862 -10.185 -22.719  0.00  0.00    +0.067 C 
ATOM     14  C   UNL     1      33.631  -9.264 -23.324  0.00  0.00    +0.007 C 
ATOM     15  C   UNL     1      31.538  -9.796 -22.124  0.00  0.00    +0.251 C 
ATOM     16  C   UNL     1      33.206  -7.869 -23.419  0.00  0.00    +0.014 C 
ATOM     17  C   UNL     1      31.978  -7.496 -22.863  0.00  0.00    +0.051 C 
ATOM     18  C   UNL     1      33.996  -6.903 -24.048  0.00  0.00    +0.001 C 
ATOM     19  C   UNL     1      31.538  -6.171 -22.932  0.00  0.00    +0.015 C 
ATOM     20  C   UNL     1      33.559  -5.578 -24.117  0.00  0.00    +0.000 C 
ATOM     21  C   UNL     1      32.333  -5.214 -23.561  0.00  0.00    +0.001 C 
ATOM     22  H   UNL     1      30.321  -8.182 -21.847  0.00  0.00    +0.155 HD
ENDBRANCH   9  13
BRANCH   2  23
ATOM     23  C   UNL     1      35.283 -17.242 -22.691  0.00  0.00    -0.050 C 
BRANCH  23  24
ATOM     24  N   UNL     1      35.337 -18.175 -21.566  0.00  0.00    +0.390 N 
ATOM     25  C   UNL     1      35.758 -20.791 -20.308  0.00  0.00    -0.026 C 
ATOM     26  C   UNL     1      34.361 -20.208 -20.547  0.00  0.00    -0.025 C 
ATOM     27  C   UNL     1      36.782 -19.655 -20.207  0.00  0.00    -0.025 C 
ATOM     28  C   UNL     1      34.354 -19.253 -21.742  0.00  0.00    -0.077 C 
ATOM     29  C   UNL     1      36.695 -18.717 -21.413  0.00  0.00    -0.077 C 
ATOM     30  H   UNL     1      35.103 -17.671 -20.711  0.00  0.00    -0.079 HD
BRANCH  25  31
ATOM     31  C   UNL     1      35.782 -21.664 -19.057  0.00  0.00    -0.086 C 
BRANCH  31  32
ATOM     32  N   UNL     1      36.706 -21.129 -18.068  0.00  0.00    +0.380 N 
ATOM     33  H   UNL     1      36.290 -20.312 -17.623  0.00  0.00    -0.089 HD
ATOM     34  H   UNL     1      37.576 -20.860 -18.527  0.00  0.00    -0.089 HD
ATOM     35  H   UNL     1      36.898 -21.840 -17.362  0.00  0.00    -0.089 HD
ENDBRANCH  31  32
ENDBRANCH  25  31
ENDBRANCH  23  24
ENDBRANCH   2  23
TORSDOF 5
ENDMDL
