MODEL 1
REMARK VINA RESULT:     -12.3      0.000      0.000
REMARK  Name = 58212050
REMARK  2 active torsions:
REMARK  status: ('A' for Active; 'I' for Inactive)
REMARK    1  A    between atoms: C_2  and  C_13
REMARK    2  A    between atoms: C_10  and  C_26
REMARK                            x       y       z     vdW  Elec       q    Type
REMARK                         _______ _______ _______ _____ _____    ______ ____
ROOT
ATOM      1  N   UNL     1      36.947 -22.967 -16.561  0.00  0.00    +0.389 N 
ATOM      2  C   UNL     1      34.497 -23.208 -16.824  0.00  0.00    +0.023 C 
ATOM      3  C   UNL     1      35.680 -23.097 -15.832  0.00  0.00    -0.068 C 
ATOM      4  C   UNL     1      34.582 -22.198 -17.962  0.00  0.00    -0.026 C 
ATOM      5  C   UNL     1      35.781 -21.495 -18.190  0.00  0.00    -0.047 C 
ATOM      6  C   UNL     1      36.973 -21.683 -17.281  0.00  0.00    -0.050 C 
ATOM      7  C   UNL     1      33.508 -22.013 -18.848  0.00  0.00    -0.004 C 
ATOM      8  C   UNL     1      35.859 -20.576 -19.247  0.00  0.00    -0.005 C 
ATOM      9  C   UNL     1      38.084 -23.059 -15.645  0.00  0.00    -0.100 C 
ATOM     10  C   UNL     1      34.773 -20.382 -20.099  0.00  0.00    +0.019 C 
ATOM     11  C   UNL     1      33.601 -21.106 -19.904  0.00  0.00    +0.001 C 
ATOM     12  H   UNL     1      37.021 -23.730 -17.234  0.00  0.00    -0.079 HD
ENDROOT
BRANCH   2  13
ATOM     13  C   UNL     1      33.186 -23.169 -16.048  0.00  0.00    -0.020 C 
ATOM     14  C   UNL     1      31.977 -23.022 -16.728  0.00  0.00    -0.004 C 
ATOM     15  C   UNL     1      33.196 -23.281 -14.661  0.00  0.00    -0.004 C 
ATOM     16  C   UNL     1      30.761 -22.983 -16.028  0.00  0.00    -0.000 C 
ATOM     17  C   UNL     1      30.771 -23.096 -14.617  0.00  0.00    -0.000 C 
ATOM     18  C   UNL     1      31.997 -23.244 -13.949  0.00  0.00    -0.000 C 
ATOM     19  C   UNL     1      29.535 -22.835 -16.697  0.00  0.00    -0.000 C 
ATOM     20  C   UNL     1      29.555 -23.057 -13.916  0.00  0.00    -0.000 C 
ATOM     21  C   UNL     1      28.336 -22.798 -15.985  0.00  0.00    -0.000 C 
ATOM     22  C   UNL     1      28.345 -22.909 -14.597  0.00  0.00    -0.000 C 
ENDBRANCH   2  13
BRANCH  10  26
ATOM     23  N   UNL     1      35.432 -18.250 -20.880  0.00  0.00    -0.147 NA
ATOM     24  N   UNL     1      35.559 -17.303 -21.849  0.00  0.00    -0.133 NA
ATOM     25  N   UNL     1      35.249 -16.591 -24.103  0.00  0.00    -0.341 N 
ATOM     26  C   UNL     1      34.868 -19.437 -21.189  0.00  0.00    +0.103 C 
ATOM     27  C   UNL     1      34.407 -19.742 -22.455  0.00  0.00    +0.024 C 
ATOM     28  C   UNL     1      34.537 -18.779 -23.440  0.00  0.00    +0.037 C 
ATOM     29  C   UNL     1      35.118 -17.575 -23.095  0.00  0.00    +0.147 C 
ATOM     30  H   UNL     1      35.659 -15.722 -23.891  0.00  0.00    +0.144 HD
ATOM     31  H   UNL     1      34.931 -16.776 -25.016  0.00  0.00    +0.144 HD
ENDBRANCH  10  26
TORSDOF 2
ENDMDL
MODEL 2
REMARK VINA RESULT:     -10.7     11.320     15.876
REMARK  Name = 58212050
REMARK  2 active torsions:
REMARK  status: ('A' for Active; 'I' for Inactive)
REMARK    1  A    between atoms: C_2  and  C_13
REMARK    2  A    between atoms: C_10  and  C_26
REMARK                            x       y       z     vdW  Elec       q    Type
REMARK                         _______ _______ _______ _____ _____    ______ ____
ROOT
ATOM      1  N   UNL     1      31.131  -5.237 -21.613  0.00  0.00    +0.389 N 
ATOM      2  C   UNL     1      32.551  -7.253 -21.836  0.00  0.00    +0.023 C 
ATOM      3  C   UNL     1      31.139  -6.702 -21.524  0.00  0.00    -0.068 C 
ATOM      4  C   UNL     1      33.187  -6.594 -23.054  0.00  0.00    -0.026 C 
ATOM      5  C   UNL     1      32.630  -5.417 -23.588  0.00  0.00    -0.047 C 
ATOM      6  C   UNL     1      31.366  -4.826 -23.007  0.00  0.00    -0.050 C 
ATOM      7  C   UNL     1      34.378  -7.093 -23.608  0.00  0.00    -0.004 C 
ATOM      8  C   UNL     1      33.226  -4.806 -24.701  0.00  0.00    -0.005 C 
ATOM      9  C   UNL     1      29.860  -4.696 -21.131  0.00  0.00    -0.100 C 
ATOM     10  C   UNL     1      34.391  -5.331 -25.257  0.00  0.00    +0.019 C 
ATOM     11  C   UNL     1      34.970  -6.470 -24.706  0.00  0.00    +0.001 C 
ATOM     12  H   UNL     1      31.877  -4.867 -21.024  0.00  0.00    -0.079 HD
ENDROOT
BRANCH   2  13
ATOM     13  C   UNL     1      32.492  -8.775 -21.905  0.00  0.00    -0.020 C 
ATOM     14  C   UNL     1      33.185  -9.454 -22.907  0.00  0.00    -0.004 C 
ATOM     15  C   UNL     1      31.746  -9.484 -20.969  0.00  0.00    -0.004 C 
ATOM     16  C   UNL     1      33.141 -10.855 -22.985  0.00  0.00    -0.000 C 
ATOM     17  C   UNL     1      32.382 -11.577 -22.034  0.00  0.00    -0.000 C 
ATOM     18  C   UNL     1      31.690 -10.877 -21.032  0.00  0.00    -0.000 C 
ATOM     19  C   UNL     1      33.832 -11.555 -23.987  0.00  0.00    -0.000 C 
ATOM     20  C   UNL     1      32.336 -12.979 -22.112  0.00  0.00    -0.000 C 
ATOM     21  C   UNL     1      33.776 -12.948 -24.050  0.00  0.00    -0.000 C 
ATOM     22  C   UNL     1      33.030 -13.658 -23.115  0.00  0.00    -0.000 C 
ENDBRANCH   2  13
BRANCH  10  26
ATOM     23  N   UNL     1      34.142  -4.122 -27.274  0.00  0.00    -0.147 NA
ATOM     24  N   UNL     1      34.634  -3.497 -28.377  0.00  0.00    -0.133 NA
ATOM     25  N   UNL     1      36.482  -2.809 -29.718  0.00  0.00    -0.341 N 
ATOM     26  C   UNL     1      35.001  -4.689 -26.401  0.00  0.00    +0.103 C 
ATOM     27  C   UNL     1      36.371  -4.666 -26.573  0.00  0.00    +0.024 C 
ATOM     28  C   UNL     1      36.871  -4.030 -27.695  0.00  0.00    +0.037 C 
ATOM     29  C   UNL     1      35.970  -3.459 -28.571  0.00  0.00    +0.147 C 
ATOM     30  H   UNL     1      35.866  -2.392 -30.363  0.00  0.00    +0.144 HD
ATOM     31  H   UNL     1      37.454  -2.775 -29.872  0.00  0.00    +0.144 HD
ENDBRANCH  10  26
TORSDOF 2
ENDMDL
MODEL 3
REMARK VINA RESULT:     -10.6      8.112     13.723
REMARK  Name = 58212050
REMARK  2 active torsions:
REMARK  status: ('A' for Active; 'I' for Inactive)
REMARK    1  A    between atoms: C_2  and  C_13
REMARK    2  A    between atoms: C_10  and  C_26
REMARK                            x       y       z     vdW  Elec       q    Type
REMARK                         _______ _______ _______ _____ _____    ______ ____
ROOT
ATOM      1  N   UNL     1      31.181 -10.495 -20.062  0.00  0.00    +0.389 N 
ATOM      2  C   UNL     1      32.072  -9.823 -22.272  0.00  0.00    +0.023 C 
ATOM      3  C   UNL     1      31.816  -9.401 -20.805  0.00  0.00    -0.068 C 
ATOM      4  C   UNL     1      32.664 -11.222 -22.390  0.00  0.00    -0.026 C 
ATOM      5  C   UNL     1      32.656 -12.085 -21.277  0.00  0.00    -0.047 C 
ATOM      6  C   UNL     1      32.122 -11.621 -19.941  0.00  0.00    -0.050 C 
ATOM      7  C   UNL     1      33.144 -11.705 -23.619  0.00  0.00    -0.004 C 
ATOM      8  C   UNL     1      33.190 -13.377 -21.393  0.00  0.00    -0.005 C 
ATOM      9  C   UNL     1      30.757 -10.044 -18.737  0.00  0.00    -0.100 C 
ATOM     10  C   UNL     1      33.690 -13.829 -22.613  0.00  0.00    +0.019 C 
ATOM     11  C   UNL     1      33.661 -12.996 -23.726  0.00  0.00    +0.001 C 
ATOM     12  H   UNL     1      30.353 -10.804 -20.572  0.00  0.00    -0.079 HD
ENDROOT
BRANCH   2  13
ATOM     13  C   UNL     1      32.882  -8.739 -22.973  0.00  0.00    -0.020 C 
ATOM     14  C   UNL     1      32.243  -7.601 -23.465  0.00  0.00    -0.004 C 
ATOM     15  C   UNL     1      34.257  -8.885 -23.121  0.00  0.00    -0.004 C 
ATOM     16  C   UNL     1      32.974  -6.593 -24.114  0.00  0.00    -0.000 C 
ATOM     17  C   UNL     1      34.373  -6.742 -24.265  0.00  0.00    -0.000 C 
ATOM     18  C   UNL     1      35.000  -7.894 -23.764  0.00  0.00    -0.000 C 
ATOM     19  C   UNL     1      32.347  -5.441 -24.616  0.00  0.00    -0.000 C 
ATOM     20  C   UNL     1      35.105  -5.734 -24.915  0.00  0.00    -0.000 C 
ATOM     21  C   UNL     1      33.090  -4.449 -25.258  0.00  0.00    -0.000 C 
ATOM     22  C   UNL     1      34.466  -4.596 -25.408  0.00  0.00    -0.000 C 
ENDBRANCH   2  13
BRANCH  10  26
ATOM     23  N   UNL     1      34.648 -15.720 -21.563  0.00  0.00    -0.147 NA
ATOM     24  N   UNL     1      35.171 -16.975 -21.578  0.00  0.00    -0.133 NA
ATOM     25  N   UNL     1      35.805 -18.942 -22.769  0.00  0.00    -0.341 N 
ATOM     26  C   UNL     1      34.232 -15.166 -22.722  0.00  0.00    +0.103 C 
ATOM     27  C   UNL     1      34.312 -15.818 -23.937  0.00  0.00    +0.024 C 
ATOM     28  C   UNL     1      34.844 -17.095 -23.952  0.00  0.00    +0.037 C 
ATOM     29  C   UNL     1      35.261 -17.636 -22.752  0.00  0.00    +0.147 C 
ATOM     30  H   UNL     1      36.112 -19.357 -21.930  0.00  0.00    +0.144 HD
ATOM     31  H   UNL     1      35.877 -19.434 -23.618  0.00  0.00    +0.144 HD
ENDBRANCH  10  26
TORSDOF 2
ENDMDL
MODEL 4
REMARK VINA RESULT:     -10.2      2.381      5.770
REMARK  Name = 58212050
REMARK  2 active torsions:
REMARK  status: ('A' for Active; 'I' for Inactive)
REMARK    1  A    between atoms: C_2  and  C_13
REMARK    2  A    between atoms: C_10  and  C_26
REMARK                            x       y       z     vdW  Elec       q    Type
REMARK                         _______ _______ _______ _____ _____    ______ ____
ROOT
ATOM      1  N   UNL     1      32.131 -23.501 -15.258  0.00  0.00    +0.389 N 
ATOM      2  C   UNL     1      34.602 -23.534 -15.104  0.00  0.00    +0.023 C 
ATOM      3  C   UNL     1      33.288 -24.323 -14.885  0.00  0.00    -0.068 C 
ATOM      4  C   UNL     1      34.633 -22.797 -16.437  0.00  0.00    -0.026 C 
ATOM      5  C   UNL     1      33.449 -22.641 -17.183  0.00  0.00    -0.047 C 
ATOM      6  C   UNL     1      32.150 -23.252 -16.709  0.00  0.00    -0.050 C 
ATOM      7  C   UNL     1      35.812 -22.189 -16.900  0.00  0.00    -0.004 C 
ATOM      8  C   UNL     1      33.479 -21.950 -18.403  0.00  0.00    -0.005 C 
ATOM      9  C   UNL     1      30.882 -24.159 -14.872  0.00  0.00    -0.100 C 
ATOM     10  C   UNL     1      34.664 -21.378 -18.863  0.00  0.00    +0.019 C 
ATOM     11  C   UNL     1      35.828 -21.492 -18.109  0.00  0.00    +0.001 C 
ATOM     12  H   UNL     1      32.185 -22.610 -14.764  0.00  0.00    -0.079 HD
ENDROOT
BRANCH   2  13
ATOM     13  C   UNL     1      35.788 -24.463 -14.873  0.00  0.00    -0.020 C 
ATOM     14  C   UNL     1      37.076 -23.936 -14.772  0.00  0.00    -0.004 C 
ATOM     15  C   UNL     1      35.586 -25.835 -14.765  0.00  0.00    -0.004 C 
ATOM     16  C   UNL     1      38.180 -24.777 -14.560  0.00  0.00    -0.000 C 
ATOM     17  C   UNL     1      37.975 -26.173 -14.450  0.00  0.00    -0.000 C 
ATOM     18  C   UNL     1      36.672 -26.686 -14.555  0.00  0.00    -0.000 C 
ATOM     19  C   UNL     1      39.483 -24.263 -14.456  0.00  0.00    -0.000 C 
ATOM     20  C   UNL     1      39.079 -27.015 -14.239  0.00  0.00    -0.000 C 
ATOM     21  C   UNL     1      40.569 -25.114 -14.246  0.00  0.00    -0.000 C 
ATOM     22  C   UNL     1      40.367 -26.487 -14.138  0.00  0.00    -0.000 C 
ENDBRANCH   2  13
BRANCH  10  26
ATOM     23  N   UNL     1      33.471 -20.412 -20.662  0.00  0.00    -0.147 NA
ATOM     24  N   UNL     1      33.399 -19.743 -21.844  0.00  0.00    -0.133 NA
ATOM     25  N   UNL     1      34.467 -18.646 -23.673  0.00  0.00    -0.341 N 
ATOM     26  C   UNL     1      34.682 -20.661 -20.119  0.00  0.00    +0.103 C 
ATOM     27  C   UNL     1      35.865 -20.265 -20.710  0.00  0.00    +0.024 C 
ATOM     28  C   UNL     1      35.792 -19.584 -21.912  0.00  0.00    +0.037 C 
ATOM     29  C   UNL     1      34.541 -19.343 -22.443  0.00  0.00    +0.147 C 
ATOM     30  H   UNL     1      33.590 -18.459 -24.079  0.00  0.00    +0.144 HD
ATOM     31  H   UNL     1      35.292 -18.351 -24.121  0.00  0.00    +0.144 HD
ENDBRANCH  10  26
TORSDOF 2
ENDMDL
MODEL 5
REMARK VINA RESULT:      -9.7      5.384     10.882
REMARK  Name = 58212050
REMARK  2 active torsions:
REMARK  status: ('A' for Active; 'I' for Inactive)
REMARK    1  A    between atoms: C_2  and  C_13
REMARK    2  A    between atoms: C_10  and  C_26
REMARK                            x       y       z     vdW  Elec       q    Type
REMARK                         _______ _______ _______ _____ _____    ______ ____
ROOT
ATOM      1  N   UNL     1      33.820 -14.612 -25.788  0.00  0.00    +0.389 N 
ATOM      2  C   UNL     1      33.987 -13.366 -23.656  0.00  0.00    +0.023 C 
ATOM      3  C   UNL     1      33.233 -13.524 -24.998  0.00  0.00    -0.068 C 
ATOM      4  C   UNL     1      34.260 -14.698 -22.970  0.00  0.00    -0.026 C 
ATOM      5  C   UNL     1      34.096 -15.902 -23.682  0.00  0.00    -0.047 C 
ATOM      6  C   UNL     1      33.592 -15.897 -25.106  0.00  0.00    -0.050 C 
ATOM      7  C   UNL     1      34.757 -14.749 -21.657  0.00  0.00    -0.004 C 
ATOM      8  C   UNL     1      34.361 -17.127 -23.050  0.00  0.00    -0.005 C 
ATOM      9  C   UNL     1      33.247 -14.643 -27.134  0.00  0.00    -0.100 C 
ATOM     10  C   UNL     1      34.826 -17.160 -21.736  0.00  0.00    +0.019 C 
ATOM     11  C   UNL     1      35.030 -15.971 -21.043  0.00  0.00    +0.001 C 
ATOM     12  H   UNL     1      34.824 -14.453 -25.875  0.00  0.00    -0.079 HD
ENDROOT
BRANCH   2  13
ATOM     13  C   UNL     1      33.255 -12.350 -22.786  0.00  0.00    -0.020 C 
ATOM     14  C   UNL     1      33.442 -10.985 -23.001  0.00  0.00    -0.004 C 
ATOM     15  C   UNL     1      32.402 -12.787 -21.777  0.00  0.00    -0.004 C 
ATOM     16  C   UNL     1      32.776 -10.037 -22.208  0.00  0.00    -0.000 C 
ATOM     17  C   UNL     1      31.909 -10.481 -21.182  0.00  0.00    -0.000 C 
ATOM     18  C   UNL     1      31.732 -11.858 -20.979  0.00  0.00    -0.000 C 
ATOM     19  C   UNL     1      32.953  -8.658 -22.411  0.00  0.00    -0.000 C 
ATOM     20  C   UNL     1      31.243  -9.532 -20.388  0.00  0.00    -0.000 C 
ATOM     21  C   UNL     1      32.283  -7.730 -21.613  0.00  0.00    -0.000 C 
ATOM     22  C   UNL     1      31.430  -8.166 -20.603  0.00  0.00    -0.000 C 
ENDBRANCH   2  13
BRANCH  10  26
ATOM     23  N   UNL     1      36.344 -18.560 -20.586  0.00  0.00    -0.147 NA
ATOM     24  N   UNL     1      36.686 -19.723 -19.967  0.00  0.00    -0.133 NA
ATOM     25  N   UNL     1      36.129 -21.924 -19.239  0.00  0.00    -0.341 N 
ATOM     26  C   UNL     1      35.102 -18.428 -21.098  0.00  0.00    +0.103 C 
ATOM     27  C   UNL     1      34.150 -19.425 -21.025  0.00  0.00    +0.024 C 
ATOM     28  C   UNL     1      34.497 -20.607 -20.396  0.00  0.00    +0.037 C 
ATOM     29  C   UNL     1      35.774 -20.715 -19.882  0.00  0.00    +0.147 C 
ATOM     30  H   UNL     1      37.032 -22.033 -18.861  0.00  0.00    +0.144 HD
ATOM     31  H   UNL     1      35.474 -22.655 -19.170  0.00  0.00    +0.144 HD
ENDBRANCH  10  26
TORSDOF 2
ENDMDL
MODEL 6
REMARK VINA RESULT:      -9.5      3.341      8.411
REMARK  Name = 58212050
REMARK  2 active torsions:
REMARK  status: ('A' for Active; 'I' for Inactive)
REMARK    1  A    between atoms: C_2  and  C_13
REMARK    2  A    between atoms: C_10  and  C_26
REMARK                            x       y       z     vdW  Elec       q    Type
REMARK                         _______ _______ _______ _____ _____    ______ ____
ROOT
ATOM      1  N   UNL     1      31.135 -23.154 -16.535  0.00  0.00    +0.389 N 
ATOM      2  C   UNL     1      33.009 -22.625 -18.063  0.00  0.00    +0.023 C 
ATOM      3  C   UNL     1      31.565 -22.276 -17.630  0.00  0.00    -0.068 C 
ATOM      4  C   UNL     1      33.949 -22.828 -16.881  0.00  0.00    -0.026 C 
ATOM      5  C   UNL     1      33.423 -22.975 -15.583  0.00  0.00    -0.047 C 
ATOM      6  C   UNL     1      31.936 -22.873 -15.333  0.00  0.00    -0.050 C 
ATOM      7  C   UNL     1      35.335 -22.958 -17.071  0.00  0.00    -0.004 C 
ATOM      8  C   UNL     1      34.291 -23.175 -14.498  0.00  0.00    -0.005 C 
ATOM      9  C   UNL     1      29.711 -22.967 -16.251  0.00  0.00    -0.100 C 
ATOM     10  C   UNL     1      35.666 -23.271 -14.701  0.00  0.00    +0.019 C 
ATOM     11  C   UNL     1      36.187 -23.170 -15.987  0.00  0.00    +0.001 C 
ATOM     12  H   UNL     1      31.277 -24.124 -16.815  0.00  0.00    -0.079 HD
ENDROOT
BRANCH   2  13
ATOM     13  C   UNL     1      33.492 -21.595 -19.078  0.00  0.00    -0.020 C 
ATOM     14  C   UNL     1      34.854 -21.316 -19.195  0.00  0.00    -0.004 C 
ATOM     15  C   UNL     1      32.573 -20.932 -19.885  0.00  0.00    -0.004 C 
ATOM     16  C   UNL     1      35.314 -20.369 -20.123  0.00  0.00    -0.000 C 
ATOM     17  C   UNL     1      34.380 -19.695 -20.945  0.00  0.00    -0.000 C 
ATOM     18  C   UNL     1      33.013 -19.987 -20.813  0.00  0.00    -0.000 C 
ATOM     19  C   UNL     1      36.682 -20.077 -20.254  0.00  0.00    -0.000 C 
ATOM     20  C   UNL     1      34.840 -18.747 -21.873  0.00  0.00    -0.000 C 
ATOM     21  C   UNL     1      37.122 -19.132 -21.182  0.00  0.00    -0.000 C 
ATOM     22  C   UNL     1      36.203 -18.468 -21.990  0.00  0.00    -0.000 C 
ENDBRANCH   2  13
BRANCH  10  26
ATOM     23  N   UNL     1      37.765 -23.990 -13.881  0.00  0.00    -0.147 NA
ATOM     24  N   UNL     1      38.658 -24.220 -12.881  0.00  0.00    -0.133 NA
ATOM     25  N   UNL     1      39.235 -24.177 -10.568  0.00  0.00    -0.341 N 
ATOM     26  C   UNL     1      36.551 -23.485 -13.576  0.00  0.00    +0.103 C 
ATOM     27  C   UNL     1      36.165 -23.187 -12.284  0.00  0.00    +0.024 C 
ATOM     28  C   UNL     1      37.073 -23.421 -11.267  0.00  0.00    +0.037 C 
ATOM     29  C   UNL     1      38.306 -23.938 -11.608  0.00  0.00    +0.147 C 
ATOM     30  H   UNL     1      40.124 -24.545 -10.777  0.00  0.00    +0.144 HD
ATOM     31  H   UNL     1      38.991 -23.977  -9.636  0.00  0.00    +0.144 HD
ENDBRANCH  10  26
TORSDOF 2
ENDMDL
