MODEL 1
REMARK VINA RESULT:     -11.3      0.000      0.000
REMARK  Name = 5326866
REMARK  5 active torsions:
REMARK  status: ('A' for Active; 'I' for Inactive)
REMARK    1  A    between atoms: N_5  and  C_14
REMARK    2  A    between atoms: C_6  and  C_28
REMARK    3  A    between atoms: C_15  and  C_20
REMARK    4  A    between atoms: C_20  and  O_21
REMARK    5  A    between atoms: O_21  and  C_23
REMARK                            x       y       z     vdW  Elec       q    Type
REMARK                         _______ _______ _______ _____ _____    ______ ____
ROOT
ATOM      1  O   UNL     1      32.420 -13.479 -22.315  0.00  0.00    -0.252 OA
ATOM      2  N   UNL     1      31.573  -9.420 -21.563  0.00  0.00    -0.239 N 
ATOM      3  N   UNL     1      31.891 -10.696 -21.843  0.00  0.00    -0.166 NA
ATOM      4  N   UNL     1      33.545 -11.659 -23.271  0.00  0.00    -0.252 N 
ATOM      5  N   UNL     1      34.178 -13.808 -23.822  0.00  0.00    -0.268 N 
ATOM      6  C   UNL     1      32.352  -8.579 -22.229  0.00  0.00    +0.045 C 
ATOM      7  C   UNL     1      33.224  -9.231 -22.982  0.00  0.00    +0.048 C 
ATOM      8  C   UNL     1      32.899 -10.574 -22.711  0.00  0.00    +0.154 C 
ATOM      9  C   UNL     1      33.289 -13.034 -23.058  0.00  0.00    +0.309 C 
ATOM     10  H   UNL     1      30.857  -9.147 -20.945  0.00  0.00    +0.174 HD
ATOM     11  H   UNL     1      34.276 -11.448 -23.896  0.00  0.00    +0.158 HD
ATOM     12  H   UNL     1      34.823 -13.308 -24.372  0.00  0.00    +0.156 HD
ENDROOT
BRANCH   5  14
ATOM     13 CL   UNL     1      34.512 -19.699 -24.183  0.00  0.00    -0.082 Cl
ATOM     14  C   UNL     1      34.260 -15.219 -23.898  0.00  0.00    +0.051 C 
ATOM     15  C   UNL     1      34.771 -17.325 -22.870  0.00  0.00    +0.033 C 
ATOM     16  C   UNL     1      34.689 -15.934 -22.793  0.00  0.00    +0.015 C 
ATOM     17  C   UNL     1      33.912 -15.854 -25.079  0.00  0.00    +0.016 C 
ATOM     18  C   UNL     1      34.424 -17.980 -24.052  0.00  0.00    +0.057 C 
ATOM     19  C   UNL     1      33.994 -17.244 -25.156  0.00  0.00    +0.012 C 
BRANCH  15  20
ATOM     20  C   UNL     1      35.236 -18.076 -21.664  0.00  0.00    +0.233 C 
BRANCH  20  21
ATOM     21  O   UNL     1      34.230 -19.000 -21.270  0.00  0.00    -0.469 OA
BRANCH  21  23
ATOM     22  N   UNL     1      36.384 -21.159 -19.274  0.00  0.00    -0.239 NA
ATOM     23  C   UNL     1      34.612 -20.002 -20.417  0.00  0.00    +0.158 C 
ATOM     24  C   UNL     1      33.668 -20.843 -19.855  0.00  0.00    +0.040 C 
ATOM     25  C   UNL     1      35.941 -20.190 -20.106  0.00  0.00    +0.136 C 
ATOM     26  C   UNL     1      34.084 -21.852 -18.994  0.00  0.00    +0.024 C 
ATOM     27  C   UNL     1      35.442 -21.967 -18.738  0.00  0.00    +0.099 C 
ENDBRANCH  21  23
ENDBRANCH  20  21
ENDBRANCH  15  20
ENDBRANCH   5  14
BRANCH   6  28
ATOM     28  C   UNL     1      32.151  -7.055 -22.050  0.00  0.00    +0.033 C 
ATOM     29  C   UNL     1      33.190  -6.286 -22.895  0.00  0.00    +0.006 C 
ATOM     30  C   UNL     1      32.317  -6.674 -20.563  0.00  0.00    +0.006 C 
ATOM     31  C   UNL     1      30.754  -6.566 -22.491  0.00  0.00    +0.006 C 
ENDBRANCH   6  28
TORSDOF 5
ENDMDL
MODEL 2
REMARK VINA RESULT:     -11.2      2.874     11.238
REMARK  Name = 5326866
REMARK  5 active torsions:
REMARK  status: ('A' for Active; 'I' for Inactive)
REMARK    1  A    between atoms: N_5  and  C_14
REMARK    2  A    between atoms: C_6  and  C_28
REMARK    3  A    between atoms: C_15  and  C_20
REMARK    4  A    between atoms: C_20  and  O_21
REMARK    5  A    between atoms: O_21  and  C_23
REMARK                            x       y       z     vdW  Elec       q    Type
REMARK                         _______ _______ _______ _____ _____    ______ ____
ROOT
ATOM      1  O   UNL     1      34.229 -21.080 -19.586  0.00  0.00    -0.252 OA
ATOM      2  N   UNL     1      35.088 -23.375 -16.157  0.00  0.00    -0.239 N 
ATOM      3  N   UNL     1      34.875 -22.621 -17.250  0.00  0.00    -0.166 NA
ATOM      4  N   UNL     1      36.290 -21.136 -18.472  0.00  0.00    -0.252 N 
ATOM      5  N   UNL     1      36.038 -19.807 -20.342  0.00  0.00    -0.268 N 
ATOM      6  C   UNL     1      36.329 -23.232 -15.716  0.00  0.00    +0.045 C 
ATOM      7  C   UNL     1      37.011 -22.387 -16.473  0.00  0.00    +0.048 C 
ATOM      8  C   UNL     1      36.052 -22.019 -17.438  0.00  0.00    +0.154 C 
ATOM      9  C   UNL     1      35.394 -20.711 -19.482  0.00  0.00    +0.309 C 
ATOM     10  H   UNL     1      34.411 -23.957 -15.741  0.00  0.00    +0.174 HD
ATOM     11  H   UNL     1      37.197 -20.755 -18.513  0.00  0.00    +0.158 HD
ATOM     12  H   UNL     1      36.978 -19.606 -20.130  0.00  0.00    +0.156 HD
ENDROOT
BRANCH   5  14
ATOM     13 CL   UNL     1      33.789 -17.095 -25.088  0.00  0.00    -0.082 Cl
ATOM     14  C   UNL     1      35.502 -19.149 -21.474  0.00  0.00    +0.051 C 
ATOM     15  C   UNL     1      34.952 -17.116 -22.624  0.00  0.00    +0.033 C 
ATOM     16  C   UNL     1      35.482 -17.764 -21.507  0.00  0.00    +0.015 C 
ATOM     17  C   UNL     1      35.007 -19.904 -22.524  0.00  0.00    +0.016 C 
ATOM     18  C   UNL     1      34.450 -17.862 -23.691  0.00  0.00    +0.057 C 
ATOM     19  C   UNL     1      34.478 -19.256 -23.640  0.00  0.00    +0.012 C 
BRANCH  15  20
ATOM     20  C   UNL     1      34.942 -15.622 -22.638  0.00  0.00    +0.233 C 
BRANCH  20  21
ATOM     21  O   UNL     1      34.500 -15.144 -21.375  0.00  0.00    -0.469 OA
BRANCH  21  23
ATOM     22  N   UNL     1      32.704 -12.189 -22.526  0.00  0.00    -0.239 NA
ATOM     23  C   UNL     1      33.609 -14.103 -21.385  0.00  0.00    +0.158 C 
ATOM     24  C   UNL     1      32.749 -13.905 -20.320  0.00  0.00    +0.040 C 
ATOM     25  C   UNL     1      33.557 -13.235 -22.454  0.00  0.00    +0.136 C 
ATOM     26  C   UNL     1      31.857 -12.839 -20.357  0.00  0.00    +0.024 C 
ATOM     27  C   UNL     1      31.874 -12.018 -21.473  0.00  0.00    +0.099 C 
ENDBRANCH  21  23
ENDBRANCH  20  21
ENDBRANCH  15  20
ENDBRANCH   5  14
BRANCH   6  28
ATOM     28  C   UNL     1      36.783 -24.015 -14.460  0.00  0.00    +0.033 C 
ATOM     29  C   UNL     1      35.978 -25.326 -14.339  0.00  0.00    +0.006 C 
ATOM     30  C   UNL     1      36.558 -23.156 -13.196  0.00  0.00    +0.006 C 
ATOM     31  C   UNL     1      38.279 -24.400 -14.488  0.00  0.00    +0.006 C 
ENDBRANCH   6  28
TORSDOF 5
ENDMDL
MODEL 3
REMARK VINA RESULT:     -10.8      2.895     11.281
REMARK  Name = 5326866
REMARK  5 active torsions:
REMARK  status: ('A' for Active; 'I' for Inactive)
REMARK    1  A    between atoms: N_5  and  C_14
REMARK    2  A    between atoms: C_6  and  C_28
REMARK    3  A    between atoms: C_15  and  C_20
REMARK    4  A    between atoms: C_20  and  O_21
REMARK    5  A    between atoms: O_21  and  C_23
REMARK                            x       y       z     vdW  Elec       q    Type
REMARK                         _______ _______ _______ _____ _____    ______ ____
ROOT
ATOM      1  O   UNL     1      34.300 -21.083 -19.541  0.00  0.00    -0.252 OA
ATOM      2  N   UNL     1      35.229 -23.360 -16.119  0.00  0.00    -0.239 N 
ATOM      3  N   UNL     1      34.994 -22.611 -17.210  0.00  0.00    -0.166 NA
ATOM      4  N   UNL     1      36.377 -21.117 -18.457  0.00  0.00    -0.252 N 
ATOM      5  N   UNL     1      36.086 -19.795 -20.327  0.00  0.00    -0.268 N 
ATOM      6  C   UNL     1      36.476 -23.204 -15.696  0.00  0.00    +0.045 C 
ATOM      7  C   UNL     1      37.138 -22.355 -16.465  0.00  0.00    +0.048 C 
ATOM      8  C   UNL     1      36.163 -21.999 -17.417  0.00  0.00    +0.154 C 
ATOM      9  C   UNL     1      35.462 -20.703 -19.455  0.00  0.00    +0.309 C 
ATOM     10  H   UNL     1      34.564 -23.946 -15.692  0.00  0.00    +0.174 HD
ATOM     11  H   UNL     1      37.280 -20.728 -18.512  0.00  0.00    +0.158 HD
ATOM     12  H   UNL     1      37.027 -19.585 -20.130  0.00  0.00    +0.156 HD
ENDROOT
BRANCH   5  14
ATOM     13 CL   UNL     1      33.744 -17.118 -25.048  0.00  0.00    -0.082 Cl
ATOM     14  C   UNL     1      35.528 -19.146 -21.453  0.00  0.00    +0.051 C 
ATOM     15  C   UNL     1      34.939 -17.122 -22.599  0.00  0.00    +0.033 C 
ATOM     16  C   UNL     1      35.491 -17.762 -21.488  0.00  0.00    +0.015 C 
ATOM     17  C   UNL     1      35.028 -19.908 -22.496  0.00  0.00    +0.016 C 
ATOM     18  C   UNL     1      34.432 -17.875 -23.658  0.00  0.00    +0.057 C 
ATOM     19  C   UNL     1      34.477 -19.269 -23.605  0.00  0.00    +0.012 C 
BRANCH  15  20
ATOM     20  C   UNL     1      34.911 -15.627 -22.615  0.00  0.00    +0.233 C 
BRANCH  20  21
ATOM     21  O   UNL     1      34.360 -15.155 -21.392  0.00  0.00    -0.469 OA
BRANCH  21  23
ATOM     22  N   UNL     1      31.876 -12.664 -20.440  0.00  0.00    -0.239 NA
ATOM     23  C   UNL     1      33.554 -14.050 -21.464  0.00  0.00    +0.158 C 
ATOM     24  C   UNL     1      33.585 -13.231 -22.579  0.00  0.00    +0.040 C 
ATOM     25  C   UNL     1      32.698 -13.738 -20.431  0.00  0.00    +0.136 C 
ATOM     26  C   UNL     1      32.754 -12.117 -22.626  0.00  0.00    +0.024 C 
ATOM     27  C   UNL     1      31.926 -11.880 -21.540  0.00  0.00    +0.099 C 
ENDBRANCH  21  23
ENDBRANCH  20  21
ENDBRANCH  15  20
ENDBRANCH   5  14
BRANCH   6  28
ATOM     28  C   UNL     1      36.955 -23.979 -14.445  0.00  0.00    +0.033 C 
ATOM     29  C   UNL     1      36.847 -23.078 -13.196  0.00  0.00    +0.006 C 
ATOM     30  C   UNL     1      38.423 -24.421 -14.633  0.00  0.00    +0.006 C 
ATOM     31  C   UNL     1      36.129 -25.253 -14.161  0.00  0.00    +0.006 C 
ENDBRANCH   6  28
TORSDOF 5
ENDMDL
MODEL 4
REMARK VINA RESULT:     -10.0      7.332     10.979
REMARK  Name = 5326866
REMARK  5 active torsions:
REMARK  status: ('A' for Active; 'I' for Inactive)
REMARK    1  A    between atoms: N_5  and  C_14
REMARK    2  A    between atoms: C_6  and  C_28
REMARK    3  A    between atoms: C_15  and  C_20
REMARK    4  A    between atoms: C_20  and  O_21
REMARK    5  A    between atoms: O_21  and  C_23
REMARK                            x       y       z     vdW  Elec       q    Type
REMARK                         _______ _______ _______ _____ _____    ______ ____
ROOT
ATOM      1  O   UNL     1      34.008 -22.378 -17.292  0.00  0.00    -0.252 OA
ATOM      2  N   UNL     1      35.766 -20.322 -20.524  0.00  0.00    -0.239 N 
ATOM      3  N   UNL     1      35.146 -20.962 -19.517  0.00  0.00    -0.166 NA
ATOM      4  N   UNL     1      32.837 -21.278 -18.998  0.00  0.00    -0.252 N 
ATOM      5  N   UNL     1      31.670 -22.349 -17.320  0.00  0.00    -0.268 N 
ATOM      6  C   UNL     1      34.886 -19.782 -21.355  0.00  0.00    +0.045 C 
ATOM      7  C   UNL     1      33.646 -20.024 -20.962  0.00  0.00    +0.048 C 
ATOM      8  C   UNL     1      33.852 -20.777 -19.789  0.00  0.00    +0.154 C 
ATOM      9  C   UNL     1      32.949 -22.040 -17.811  0.00  0.00    +0.309 C 
ATOM     10  H   UNL     1      36.743 -20.262 -20.629  0.00  0.00    +0.174 HD
ATOM     11  H   UNL     1      31.920 -21.080 -19.298  0.00  0.00    +0.158 HD
ATOM     12  H   UNL     1      30.912 -22.007 -17.846  0.00  0.00    +0.156 HD
ENDROOT
BRANCH   5  14
ATOM     13 CL   UNL     1      30.239 -25.449 -12.494  0.00  0.00    -0.082 Cl
ATOM     14  C   UNL     1      31.337 -23.090 -16.162  0.00  0.00    +0.051 C 
ATOM     15  C   UNL     1      32.015 -24.222 -14.158  0.00  0.00    +0.033 C 
ATOM     16  C   UNL     1      32.344 -23.490 -15.299  0.00  0.00    +0.015 C 
ATOM     17  C   UNL     1      30.010 -23.404 -15.917  0.00  0.00    +0.016 C 
ATOM     18  C   UNL     1      30.684 -24.545 -13.896  0.00  0.00    +0.057 C 
ATOM     19  C   UNL     1      29.682 -24.136 -14.777  0.00  0.00    +0.012 C 
BRANCH  15  20
ATOM     20  C   UNL     1      33.119 -24.641 -13.241  0.00  0.00    +0.233 C 
BRANCH  20  21
ATOM     21  O   UNL     1      34.370 -24.322 -13.836  0.00  0.00    -0.469 OA
BRANCH  21  23
ATOM     22  N   UNL     1      37.570 -23.005 -12.695  0.00  0.00    -0.239 NA
ATOM     23  C   UNL     1      35.383 -23.961 -12.988  0.00  0.00    +0.158 C 
ATOM     24  C   UNL     1      35.267 -24.175 -11.626  0.00  0.00    +0.040 C 
ATOM     25  C   UNL     1      36.534 -23.383 -13.476  0.00  0.00    +0.136 C 
ATOM     26  C   UNL     1      36.312 -23.800 -10.789  0.00  0.00    +0.024 C 
ATOM     27  C   UNL     1      37.432 -23.224 -11.368  0.00  0.00    +0.099 C 
ENDBRANCH  21  23
ENDBRANCH  20  21
ENDBRANCH  15  20
ENDBRANCH   5  14
BRANCH   6  28
ATOM     28  C   UNL     1      35.391 -18.993 -22.587  0.00  0.00    +0.033 C 
ATOM     29  C   UNL     1      35.030 -19.753 -23.881  0.00  0.00    +0.006 C 
ATOM     30  C   UNL     1      36.924 -18.819 -22.507  0.00  0.00    +0.006 C 
ATOM     31  C   UNL     1      34.778 -17.580 -22.703  0.00  0.00    +0.006 C 
ENDBRANCH   6  28
TORSDOF 5
ENDMDL
MODEL 5
REMARK VINA RESULT:     -10.0      7.386     11.358
REMARK  Name = 5326866
REMARK  5 active torsions:
REMARK  status: ('A' for Active; 'I' for Inactive)
REMARK    1  A    between atoms: N_5  and  C_14
REMARK    2  A    between atoms: C_6  and  C_28
REMARK    3  A    between atoms: C_15  and  C_20
REMARK    4  A    between atoms: C_20  and  O_21
REMARK    5  A    between atoms: O_21  and  C_23
REMARK                            x       y       z     vdW  Elec       q    Type
REMARK                         _______ _______ _______ _____ _____    ______ ____
ROOT
ATOM      1  O   UNL     1      35.092 -22.790 -16.991  0.00  0.00    -0.252 OA
ATOM      2  N   UNL     1      34.500 -20.332 -20.363  0.00  0.00    -0.239 N 
ATOM      3  N   UNL     1      34.751 -21.097 -19.286  0.00  0.00    -0.166 NA
ATOM      4  N   UNL     1      36.736 -21.468 -18.012  0.00  0.00    -0.252 N 
ATOM      5  N   UNL     1      37.278 -22.740 -16.164  0.00  0.00    -0.268 N 
ATOM      6  C   UNL     1      35.590 -19.684 -20.750  0.00  0.00    +0.045 C 
ATOM      7  C   UNL     1      36.619 -19.971 -19.969  0.00  0.00    +0.048 C 
ATOM      8  C   UNL     1      36.046 -20.873 -19.050  0.00  0.00    +0.154 C 
ATOM      9  C   UNL     1      36.246 -22.379 -17.046  0.00  0.00    +0.309 C 
ATOM     10  H   UNL     1      33.623 -20.262 -20.805  0.00  0.00    +0.174 HD
ATOM     11  H   UNL     1      37.687 -21.227 -17.933  0.00  0.00    +0.158 HD
ATOM     12  H   UNL     1      38.155 -22.327 -16.335  0.00  0.00    +0.156 HD
ENDROOT
BRANCH   5  14
ATOM     13 CL   UNL     1      37.045 -26.440 -11.560  0.00  0.00    -0.082 Cl
ATOM     14  C   UNL     1      37.212 -23.624 -15.062  0.00  0.00    +0.051 C 
ATOM     15  C   UNL     1      35.967 -24.603 -13.259  0.00  0.00    +0.033 C 
ATOM     16  C   UNL     1      36.030 -23.732 -14.348  0.00  0.00    +0.015 C 
ATOM     17  C   UNL     1      38.333 -24.361 -14.717  0.00  0.00    +0.016 C 
ATOM     18  C   UNL     1      37.087 -25.352 -12.900  0.00  0.00    +0.057 C 
ATOM     19  C   UNL     1      38.270 -25.231 -13.629  0.00  0.00    +0.012 C 
BRANCH  15  20
ATOM     20  C   UNL     1      34.680 -24.703 -12.506  0.00  0.00    +0.233 C 
BRANCH  20  21
ATOM     21  O   UNL     1      33.822 -23.640 -12.898  0.00  0.00    -0.469 OA
BRANCH  21  23
ATOM     22  N   UNL     1      30.837 -25.503 -13.846  0.00  0.00    -0.239 NA
ATOM     23  C   UNL     1      32.682 -23.984 -13.574  0.00  0.00    +0.158 C 
ATOM     24  C   UNL     1      32.230 -23.208 -14.627  0.00  0.00    +0.040 C 
ATOM     25  C   UNL     1      31.968 -25.107 -13.220  0.00  0.00    +0.136 C 
ATOM     26  C   UNL     1      31.071 -23.583 -15.297  0.00  0.00    +0.024 C 
ATOM     27  C   UNL     1      30.417 -24.728 -14.871  0.00  0.00    +0.099 C 
ENDBRANCH  21  23
ENDBRANCH  20  21
ENDBRANCH  15  20
ENDBRANCH   5  14
BRANCH   6  28
ATOM     28  C   UNL     1      35.519 -18.746 -21.979  0.00  0.00    +0.033 C 
ATOM     29  C   UNL     1      36.924 -18.586 -22.598  0.00  0.00    +0.006 C 
ATOM     30  C   UNL     1      34.987 -17.360 -21.551  0.00  0.00    +0.006 C 
ATOM     31  C   UNL     1      34.586 -19.267 -23.093  0.00  0.00    +0.006 C 
ENDBRANCH   6  28
TORSDOF 5
ENDMDL
MODEL 6
REMARK VINA RESULT:      -9.2      2.386     10.957
REMARK  Name = 5326866
REMARK  5 active torsions:
REMARK  status: ('A' for Active; 'I' for Inactive)
REMARK    1  A    between atoms: N_5  and  C_14
REMARK    2  A    between atoms: C_6  and  C_28
REMARK    3  A    between atoms: C_15  and  C_20
REMARK    4  A    between atoms: C_20  and  O_21
REMARK    5  A    between atoms: O_21  and  C_23
REMARK                            x       y       z     vdW  Elec       q    Type
REMARK                         _______ _______ _______ _____ _____    ______ ____
ROOT
ATOM      1  O   UNL     1      36.603 -19.030 -19.994  0.00  0.00    -0.252 OA
ATOM      2  N   UNL     1      37.600 -21.315 -16.596  0.00  0.00    -0.239 N 
ATOM      3  N   UNL     1      37.233 -20.627 -17.692  0.00  0.00    -0.166 NA
ATOM      4  N   UNL     1      35.491 -20.968 -19.289  0.00  0.00    -0.252 N 
ATOM      5  N   UNL     1      34.773 -19.865 -21.184  0.00  0.00    -0.268 N 
ATOM      6  C   UNL     1      36.817 -22.369 -16.413  0.00  0.00    +0.045 C 
ATOM      7  C   UNL     1      35.895 -22.449 -17.358  0.00  0.00    +0.048 C 
ATOM      8  C   UNL     1      36.192 -21.325 -18.154  0.00  0.00    +0.154 C 
ATOM      9  C   UNL     1      35.716 -19.863 -20.144  0.00  0.00    +0.309 C 
ATOM     10  H   UNL     1      38.350 -21.068 -16.008  0.00  0.00    +0.174 HD
ATOM     11  H   UNL     1      34.740 -21.556 -19.533  0.00  0.00    +0.158 HD
ATOM     12  H   UNL     1      34.119 -20.602 -21.172  0.00  0.00    +0.156 HD
ENDROOT
BRANCH   5  14
ATOM     13 CL   UNL     1      34.233 -16.034 -25.653  0.00  0.00    -0.082 Cl
ATOM     14  C   UNL     1      34.647 -18.941 -22.248  0.00  0.00    +0.051 C 
ATOM     15  C   UNL     1      34.682 -16.678 -23.044  0.00  0.00    +0.033 C 
ATOM     16  C   UNL     1      34.808 -17.589 -21.994  0.00  0.00    +0.015 C 
ATOM     17  C   UNL     1      34.361 -19.408 -23.520  0.00  0.00    +0.016 C 
ATOM     18  C   UNL     1      34.395 -17.132 -24.331  0.00  0.00    +0.057 C 
ATOM     19  C   UNL     1      34.235 -18.497 -24.569  0.00  0.00    +0.012 C 
BRANCH  15  20
ATOM     20  C   UNL     1      34.862 -15.224 -22.746  0.00  0.00    +0.233 C 
BRANCH  20  21
ATOM     21  O   UNL     1      33.651 -14.700 -22.219  0.00  0.00    -0.469 OA
BRANCH  21  23
ATOM     22  N   UNL     1      32.147 -11.393 -21.917  0.00  0.00    -0.239 NA
ATOM     23  C   UNL     1      33.391 -13.377 -22.466  0.00  0.00    +0.158 C 
ATOM     24  C   UNL     1      34.068 -12.706 -23.468  0.00  0.00    +0.040 C 
ATOM     25  C   UNL     1      32.452 -12.696 -21.724  0.00  0.00    +0.136 C 
ATOM     26  C   UNL     1      33.782 -11.364 -23.699  0.00  0.00    +0.024 C 
ATOM     27  C   UNL     1      32.823 -10.760 -22.903  0.00  0.00    +0.099 C 
ENDBRANCH  21  23
ENDBRANCH  20  21
ENDBRANCH  15  20
ENDBRANCH   5  14
BRANCH   6  28
ATOM     28  C   UNL     1      37.070 -23.300 -15.203  0.00  0.00    +0.033 C 
ATOM     29  C   UNL     1      36.877 -22.516 -13.887  0.00  0.00    +0.006 C 
ATOM     30  C   UNL     1      38.509 -23.858 -15.261  0.00  0.00    +0.006 C 
ATOM     31  C   UNL     1      36.114 -24.512 -15.154  0.00  0.00    +0.006 C 
ENDBRANCH   6  28
TORSDOF 5
ENDMDL
MODEL 7
REMARK VINA RESULT:      -9.1      3.518      9.663
REMARK  Name = 5326866
REMARK  5 active torsions:
REMARK  status: ('A' for Active; 'I' for Inactive)
REMARK    1  A    between atoms: N_5  and  C_14
REMARK    2  A    between atoms: C_6  and  C_28
REMARK    3  A    between atoms: C_15  and  C_20
REMARK    4  A    between atoms: C_20  and  O_21
REMARK    5  A    between atoms: O_21  and  C_23
REMARK                            x       y       z     vdW  Elec       q    Type
REMARK                         _______ _______ _______ _____ _____    ______ ____
ROOT
ATOM      1  O   UNL     1      34.227 -12.595 -21.700  0.00  0.00    -0.252 OA
ATOM      2  N   UNL     1      34.727 -16.759 -21.287  0.00  0.00    -0.239 N 
ATOM      3  N   UNL     1      34.573 -15.438 -21.483  0.00  0.00    -0.166 NA
ATOM      4  N   UNL     1      34.567 -14.101 -23.462  0.00  0.00    -0.252 N 
ATOM      5  N   UNL     1      34.312 -11.853 -23.915  0.00  0.00    -0.268 N 
ATOM      6  C   UNL     1      34.905 -17.392 -22.438  0.00  0.00    +0.045 C 
ATOM      7  C   UNL     1      34.881 -16.547 -23.456  0.00  0.00    +0.048 C 
ATOM      8  C   UNL     1      34.669 -15.314 -22.809  0.00  0.00    +0.154 C 
ATOM      9  C   UNL     1      34.355 -12.821 -22.898  0.00  0.00    +0.309 C 
ATOM     10  H   UNL     1      34.709 -17.197 -20.406  0.00  0.00    +0.174 HD
ATOM     11  H   UNL     1      34.651 -14.132 -24.443  0.00  0.00    +0.158 HD
ATOM     12  H   UNL     1      34.431 -12.187 -24.834  0.00  0.00    +0.156 HD
ENDROOT
BRANCH   5  14
ATOM     13 CL   UNL     1      33.550  -6.016 -23.374  0.00  0.00    -0.082 Cl
ATOM     14  C   UNL     1      34.120 -10.458 -23.782  0.00  0.00    +0.051 C 
ATOM     15  C   UNL     1      32.678  -8.597 -23.319  0.00  0.00    +0.033 C 
ATOM     16  C   UNL     1      32.867  -9.974 -23.448  0.00  0.00    +0.015 C 
ATOM     17  C   UNL     1      35.191  -9.604 -23.993  0.00  0.00    +0.016 C 
ATOM     18  C   UNL     1      33.746  -7.724 -23.527  0.00  0.00    +0.057 C 
ATOM     19  C   UNL     1      35.002  -8.229 -23.864  0.00  0.00    +0.012 C 
BRANCH  15  20
ATOM     20  C   UNL     1      31.316  -8.099 -22.956  0.00  0.00    +0.233 C 
BRANCH  20  21
ATOM     21  O   UNL     1      31.296  -7.750 -21.578  0.00  0.00    -0.469 OA
BRANCH  21  23
ATOM     22  N   UNL     1      32.507  -9.522 -18.632  0.00  0.00    -0.239 NA
ATOM     23  C   UNL     1      31.499  -8.765 -20.681  0.00  0.00    +0.158 C 
ATOM     24  C   UNL     1      30.938 -10.012 -20.894  0.00  0.00    +0.040 C 
ATOM     25  C   UNL     1      32.266  -8.563 -19.555  0.00  0.00    +0.136 C 
ATOM     26  C   UNL     1      31.163 -11.024 -19.968  0.00  0.00    +0.024 C 
ATOM     27  C   UNL     1      31.947 -10.731 -18.864  0.00  0.00    +0.099 C 
ENDBRANCH  21  23
ENDBRANCH  20  21
ENDBRANCH  15  20
ENDBRANCH   5  14
BRANCH   6  28
ATOM     28  C   UNL     1      35.104 -18.927 -22.437  0.00  0.00    +0.033 C 
ATOM     29  C   UNL     1      36.600 -19.262 -22.260  0.00  0.00    +0.006 C 
ATOM     30  C   UNL     1      34.599 -19.523 -23.769  0.00  0.00    +0.006 C 
ATOM     31  C   UNL     1      34.340 -19.642 -21.300  0.00  0.00    +0.006 C 
ENDBRANCH   6  28
TORSDOF 5
ENDMDL
MODEL 8
REMARK VINA RESULT:      -9.1      7.079     11.159
REMARK  Name = 5326866
REMARK  5 active torsions:
REMARK  status: ('A' for Active; 'I' for Inactive)
REMARK    1  A    between atoms: N_5  and  C_14
REMARK    2  A    between atoms: C_6  and  C_28
REMARK    3  A    between atoms: C_15  and  C_20
REMARK    4  A    between atoms: C_20  and  O_21
REMARK    5  A    between atoms: O_21  and  C_23
REMARK                            x       y       z     vdW  Elec       q    Type
REMARK                         _______ _______ _______ _____ _____    ______ ____
ROOT
ATOM      1  O   UNL     1      31.960 -21.903 -18.048  0.00  0.00    -0.252 OA
ATOM      2  N   UNL     1      33.340 -19.769 -21.410  0.00  0.00    -0.239 N 
ATOM      3  N   UNL     1      32.962 -20.463 -20.322  0.00  0.00    -0.166 NA
ATOM      4  N   UNL     1      34.207 -21.639 -18.658  0.00  0.00    -0.252 N 
ATOM      5  N   UNL     1      33.672 -22.849 -16.767  0.00  0.00    -0.268 N 
ATOM      6  C   UNL     1      34.659 -19.768 -21.537  0.00  0.00    +0.045 C 
ATOM      7  C   UNL     1      35.234 -20.449 -20.559  0.00  0.00    +0.048 C 
ATOM      8  C   UNL     1      34.122 -20.877 -19.807  0.00  0.00    +0.154 C 
ATOM      9  C   UNL     1      33.151 -22.110 -17.843  0.00  0.00    +0.309 C 
ATOM     10  H   UNL     1      32.719 -19.321 -22.029  0.00  0.00    +0.174 HD
ATOM     11  H   UNL     1      35.116 -21.883 -18.370  0.00  0.00    +0.158 HD
ATOM     12  H   UNL     1      34.652 -22.929 -16.735  0.00  0.00    +0.156 HD
ENDROOT
BRANCH   5  14
ATOM     13 CL   UNL     1      30.738 -25.529 -12.391  0.00  0.00    -0.082 Cl
ATOM     14  C   UNL     1      32.961 -23.490 -15.726  0.00  0.00    +0.051 C 
ATOM     15  C   UNL     1      30.899 -24.332 -14.834  0.00  0.00    +0.033 C 
ATOM     16  C   UNL     1      31.599 -23.700 -15.863  0.00  0.00    +0.015 C 
ATOM     17  C   UNL     1      33.643 -23.892 -14.589  0.00  0.00    +0.016 C 
ATOM     18  C   UNL     1      31.571 -24.744 -13.683  0.00  0.00    +0.057 C 
ATOM     19  C   UNL     1      32.944 -24.524 -13.561  0.00  0.00    +0.012 C 
BRANCH  15  20
ATOM     20  C   UNL     1      29.430 -24.549 -15.005  0.00  0.00    +0.233 C 
BRANCH  20  21
ATOM     21  O   UNL     1      29.037 -24.102 -16.295  0.00  0.00    -0.469 OA
BRANCH  21  23
ATOM     22  N   UNL     1      26.379 -22.040 -17.698  0.00  0.00    -0.239 NA
ATOM     23  C   UNL     1      27.959 -23.258 -16.355  0.00  0.00    +0.158 C 
ATOM     24  C   UNL     1      27.379 -22.779 -15.194  0.00  0.00    +0.040 C 
ATOM     25  C   UNL     1      27.438 -22.871 -17.569  0.00  0.00    +0.136 C 
ATOM     26  C   UNL     1      26.288 -21.922 -15.284  0.00  0.00    +0.024 C 
ATOM     27  C   UNL     1      25.830 -21.586 -16.548  0.00  0.00    +0.099 C 
ENDBRANCH  21  23
ENDBRANCH  20  21
ENDBRANCH  15  20
ENDBRANCH   5  14
BRANCH   6  28
ATOM     28  C   UNL     1      35.306 -19.023 -22.730  0.00  0.00    +0.033 C 
ATOM     29  C   UNL     1      36.816 -18.829 -22.471  0.00  0.00    +0.006 C 
ATOM     30  C   UNL     1      34.636 -17.644 -22.913  0.00  0.00    +0.006 C 
ATOM     31  C   UNL     1      35.167 -19.778 -24.070  0.00  0.00    +0.006 C 
ENDBRANCH   6  28
TORSDOF 5
ENDMDL
MODEL 9
REMARK VINA RESULT:      -9.1      4.269     11.729
REMARK  Name = 5326866
REMARK  5 active torsions:
REMARK  status: ('A' for Active; 'I' for Inactive)
REMARK    1  A    between atoms: N_5  and  C_14
REMARK    2  A    between atoms: C_6  and  C_28
REMARK    3  A    between atoms: C_15  and  C_20
REMARK    4  A    between atoms: C_20  and  O_21
REMARK    5  A    between atoms: O_21  and  C_23
REMARK                            x       y       z     vdW  Elec       q    Type
REMARK                         _______ _______ _______ _____ _____    ______ ____
ROOT
ATOM      1  O   UNL     1      34.630 -22.102 -17.558  0.00  0.00    -0.252 OA
ATOM      2  N   UNL     1      32.117 -24.128 -14.850  0.00  0.00    -0.239 N 
ATOM      3  N   UNL     1      32.866 -23.466 -15.749  0.00  0.00    -0.166 NA
ATOM      4  N   UNL     1      32.301 -22.287 -17.746  0.00  0.00    -0.252 N 
ATOM      5  N   UNL     1      33.487 -21.123 -19.347  0.00  0.00    -0.268 N 
ATOM      6  C   UNL     1      30.834 -24.089 -15.179  0.00  0.00    +0.045 C 
ATOM      7  C   UNL     1      30.649 -23.411 -16.300  0.00  0.00    +0.048 C 
ATOM      8  C   UNL     1      31.965 -23.031 -16.633  0.00  0.00    +0.154 C 
ATOM      9  C   UNL     1      33.587 -21.861 -18.157  0.00  0.00    +0.309 C 
ATOM     10  H   UNL     1      32.475 -24.581 -14.052  0.00  0.00    +0.174 HD
ATOM     11  H   UNL     1      31.552 -22.018 -18.327  0.00  0.00    +0.158 HD
ATOM     12  H   UNL     1      32.579 -21.011 -19.711  0.00  0.00    +0.156 HD
ENDROOT
BRANCH   5  14
ATOM     13 CL   UNL     1      37.874 -18.623 -22.421  0.00  0.00    -0.082 Cl
ATOM     14  C   UNL     1      34.530 -20.520 -20.089  0.00  0.00    +0.051 C 
ATOM     15  C   UNL     1      35.247 -19.149 -21.923  0.00  0.00    +0.033 C 
ATOM     16  C   UNL     1      34.217 -19.742 -21.191  0.00  0.00    +0.015 C 
ATOM     17  C   UNL     1      35.844 -20.722 -19.698  0.00  0.00    +0.016 C 
ATOM     18  C   UNL     1      36.575 -19.342 -21.541  0.00  0.00    +0.057 C 
ATOM     19  C   UNL     1      36.872 -20.129 -20.428  0.00  0.00    +0.012 C 
BRANCH  15  20
ATOM     20  C   UNL     1      34.885 -18.314 -23.108  0.00  0.00    +0.233 C 
BRANCH  20  21
ATOM     21  O   UNL     1      34.893 -16.942 -22.736  0.00  0.00    -0.469 OA
BRANCH  21  23
ATOM     22  N   UNL     1      33.648 -15.594 -25.885  0.00  0.00    -0.239 NA
ATOM     23  C   UNL     1      34.362 -16.055 -23.635  0.00  0.00    +0.158 C 
ATOM     24  C   UNL     1      34.018 -14.775 -23.238  0.00  0.00    +0.040 C 
ATOM     25  C   UNL     1      34.165 -16.421 -24.948  0.00  0.00    +0.136 C 
ATOM     26  C   UNL     1      33.483 -13.895 -24.172  0.00  0.00    +0.024 C 
ATOM     27  C   UNL     1      33.319 -14.349 -25.471  0.00  0.00    +0.099 C 
ENDBRANCH  21  23
ENDBRANCH  20  21
ENDBRANCH  15  20
ENDBRANCH   5  14
BRANCH   6  28
ATOM     28  C   UNL     1      29.795 -24.795 -14.274  0.00  0.00    +0.033 C 
ATOM     29  C   UNL     1      28.499 -23.960 -14.213  0.00  0.00    +0.006 C 
ATOM     30  C   UNL     1      30.367 -24.960 -12.849  0.00  0.00    +0.006 C 
ATOM     31  C   UNL     1      29.406 -26.204 -14.774  0.00  0.00    +0.006 C 
ENDBRANCH   6  28
TORSDOF 5
ENDMDL
