MODEL 1
REMARK VINA RESULT:     -11.9      0.000      0.000
REMARK  Name = 448903
REMARK  11 active torsions:
REMARK  status: ('A' for Active; 'I' for Inactive)
REMARK    1  A    between atoms: N_1  and  C_22
REMARK    2  A    between atoms: C_8  and  N_11
REMARK    3  A    between atoms: C_12  and  C_14
REMARK    4  A    between atoms: C_14  and  C_15
REMARK    5  A    between atoms: C_15  and  C_16
REMARK    6  A    between atoms: C_22  and  C_23
REMARK    7  A    between atoms: C_23  and  C_24
REMARK    8  A    between atoms: C_24  and  N_25
REMARK    9  A    between atoms: C_24  and  C_35
REMARK   10  A    between atoms: C_29  and  C_32
REMARK   11  A    between atoms: C_35  and  O_36
REMARK                            x       y       z     vdW  Elec       q    Type
REMARK                         _______ _______ _______ _____ _____    ______ ____
ROOT
ATOM      1  N   UNL     1      33.383 -23.342 -16.031  0.00  0.00    -0.286 N 
ATOM      2  C   UNL     1      34.157 -22.709 -16.978  0.00  0.00    +0.053 C 
ATOM      3  C   UNL     1      35.473 -22.726 -16.509  0.00  0.00    +0.015 C 
ATOM      4  C   UNL     1      34.161 -23.757 -14.985  0.00  0.00    +0.065 C 
ATOM      5  C   UNL     1      35.459 -23.391 -15.251  0.00  0.00    +0.017 C 
ATOM      6  C   UNL     1      33.797 -22.130 -18.200  0.00  0.00    +0.029 C 
ATOM      7  C   UNL     1      36.481 -22.135 -17.297  0.00  0.00    +0.003 C 
ATOM      8  C   UNL     1      34.814 -21.551 -18.965  0.00  0.00    +0.052 C 
ATOM      9  C   UNL     1      36.136 -21.553 -18.522  0.00  0.00    +0.015 C 
ENDROOT
BRANCH   8  11
ATOM     10  O   UNL     1      35.961 -19.123 -20.318  0.00  0.00    -0.275 OA
ATOM     11  N   UNL     1      34.499 -20.963 -20.191  0.00  0.00    -0.284 N 
ATOM     12  C   UNL     1      35.075 -19.834 -20.785  0.00  0.00    +0.226 C 
ATOM     13  H   UNL     1      33.778 -21.398 -20.703  0.00  0.00    +0.155 HD
BRANCH  12  14
ATOM     14  C   UNL     1      34.455 -19.503 -22.133  0.00  0.00    +0.090 C 
BRANCH  14  15
ATOM     15  C   UNL     1      35.400 -18.670 -23.000  0.00  0.00    +0.036 C 
BRANCH  15  16
ATOM     16  C   UNL     1      34.821 -17.337 -23.405  0.00  0.00    -0.022 C 
ATOM     17  C   UNL     1      34.231 -17.184 -24.659  0.00  0.00    -0.004 C 
ATOM     18  C   UNL     1      34.875 -16.256 -22.524  0.00  0.00    -0.004 C 
ATOM     19  C   UNL     1      33.696 -15.952 -25.034  0.00  0.00    -0.000 C 
ATOM     20  C   UNL     1      34.339 -15.024 -22.899  0.00  0.00    -0.000 C 
ATOM     21  C   UNL     1      33.750 -14.871 -24.154  0.00  0.00    -0.000 C 
ENDBRANCH  15  16
ENDBRANCH  14  15
ENDBRANCH  12  14
ENDBRANCH   8  11
BRANCH   1  22
ATOM     22  C   UNL     1      31.952 -23.547 -16.115  0.00  0.00    +0.097 C 
BRANCH  22  23
ATOM     23  C   UNL     1      31.159 -22.952 -14.944  0.00  0.00    +0.040 C 
BRANCH  23  24
ATOM     24  C   UNL     1      29.830 -23.671 -14.619  0.00  0.00    +0.091 C 
BRANCH  24  25
ATOM     25  N   UNL     1      28.797 -23.496 -15.654  0.00  0.00    -0.246 NA
ATOM     26  N   UNL     1      27.355 -23.853 -17.305  0.00  0.00    -0.251 NA
ATOM     27  C   UNL     1      28.131 -22.335 -15.959  0.00  0.00    +0.125 C 
ATOM     28  C   UNL     1      28.307 -24.390 -16.483  0.00  0.00    +0.201 C 
ATOM     29  C   UNL     1      27.231 -22.531 -16.980  0.00  0.00    +0.124 C 
BRANCH  29  32
ATOM     30  O   UNL     1      26.108 -20.458 -17.150  0.00  0.00    -0.269 OA
ATOM     31  N   UNL     1      25.716 -21.991 -18.790  0.00  0.00    -0.324 N 
ATOM     32  C   UNL     1      26.343 -21.606 -17.599  0.00  0.00    +0.257 C 
ATOM     33  H   UNL     1      25.097 -21.374 -19.243  0.00  0.00    +0.145 HD
ATOM     34  H   UNL     1      25.894 -22.880 -19.175  0.00  0.00    +0.145 HD
ENDBRANCH  29  32
ENDBRANCH  24  25
BRANCH  24  35
ATOM     35  C   UNL     1      30.074 -25.166 -14.353  0.00  0.00    +0.153 C 
BRANCH  35  36
ATOM     36  O   UNL     1      30.456 -25.355 -12.995  0.00  0.00    -0.381 OA
ATOM     37  H   UNL     1      31.415 -25.238 -12.910  0.00  0.00    +0.210 HD
ENDBRANCH  35  36
ENDBRANCH  24  35
ENDBRANCH  23  24
ENDBRANCH  22  23
ENDBRANCH   1  22
TORSDOF 11
ENDMDL
MODEL 2
REMARK VINA RESULT:     -11.7      3.630      7.519
REMARK  Name = 448903
REMARK  11 active torsions:
REMARK  status: ('A' for Active; 'I' for Inactive)
REMARK    1  A    between atoms: N_1  and  C_22
REMARK    2  A    between atoms: C_8  and  N_11
REMARK    3  A    between atoms: C_12  and  C_14
REMARK    4  A    between atoms: C_14  and  C_15
REMARK    5  A    between atoms: C_15  and  C_16
REMARK    6  A    between atoms: C_22  and  C_23
REMARK    7  A    between atoms: C_23  and  C_24
REMARK    8  A    between atoms: C_24  and  N_25
REMARK    9  A    between atoms: C_24  and  C_35
REMARK   10  A    between atoms: C_29  and  C_32
REMARK   11  A    between atoms: C_35  and  O_36
REMARK                            x       y       z     vdW  Elec       q    Type
REMARK                         _______ _______ _______ _____ _____    ______ ____
ROOT
ATOM      1  N   UNL     1      32.417 -24.830 -13.635  0.00  0.00    -0.286 N 
ATOM      2  C   UNL     1      31.835 -24.084 -14.635  0.00  0.00    +0.053 C 
ATOM      3  C   UNL     1      30.455 -24.118 -14.421  0.00  0.00    +0.015 C 
ATOM      4  C   UNL     1      31.457 -25.332 -12.799  0.00  0.00    +0.065 C 
ATOM      5  C   UNL     1      30.232 -24.909 -13.259  0.00  0.00    +0.017 C 
ATOM      6  C   UNL     1      32.417 -23.389 -15.700  0.00  0.00    +0.029 C 
ATOM      7  C   UNL     1      29.613 -23.425 -15.314  0.00  0.00    +0.003 C 
ATOM      8  C   UNL     1      31.562 -22.708 -16.573  0.00  0.00    +0.052 C 
ATOM      9  C   UNL     1      30.181 -22.724 -16.384  0.00  0.00    +0.015 C 
ENDROOT
BRANCH   8  11
ATOM     10  O   UNL     1      33.733 -23.463 -18.511  0.00  0.00    -0.275 OA
ATOM     11  N   UNL     1      32.102 -22.001 -17.648  0.00  0.00    -0.284 N 
ATOM     12  C   UNL     1      33.109 -22.405 -18.533  0.00  0.00    +0.226 C 
ATOM     13  H   UNL     1      31.729 -21.103 -17.803  0.00  0.00    +0.155 HD
BRANCH  12  14
ATOM     14  C   UNL     1      33.426 -21.348 -19.579  0.00  0.00    +0.090 C 
BRANCH  14  15
ATOM     15  C   UNL     1      34.930 -21.103 -19.697  0.00  0.00    +0.036 C 
BRANCH  15  16
ATOM     16  C   UNL     1      35.286 -20.036 -20.704  0.00  0.00    -0.022 C 
ATOM     17  C   UNL     1      34.333 -19.600 -21.624  0.00  0.00    -0.004 C 
ATOM     18  C   UNL     1      36.568 -19.485 -20.713  0.00  0.00    -0.004 C 
ATOM     19  C   UNL     1      34.662 -18.614 -22.554  0.00  0.00    -0.000 C 
ATOM     20  C   UNL     1      36.896 -18.499 -21.643  0.00  0.00    -0.000 C 
ATOM     21  C   UNL     1      35.943 -18.064 -22.564  0.00  0.00    -0.000 C 
ENDBRANCH  15  16
ENDBRANCH  14  15
ENDBRANCH  12  14
ENDBRANCH   8  11
BRANCH   1  22
ATOM     22  C   UNL     1      33.837 -25.061 -13.477  0.00  0.00    +0.097 C 
BRANCH  22  23
ATOM     23  C   UNL     1      34.504 -24.184 -12.409  0.00  0.00    +0.040 C 
BRANCH  23  24
ATOM     24  C   UNL     1      35.813 -24.754 -11.816  0.00  0.00    +0.091 C 
BRANCH  24  25
ATOM     25  N   UNL     1      36.958 -24.680 -12.739  0.00  0.00    -0.246 NA
ATOM     26  N   UNL     1      38.429 -23.996 -14.256  0.00  0.00    -0.251 NA
ATOM     27  C   UNL     1      37.919 -25.641 -12.932  0.00  0.00    +0.125 C 
ATOM     28  C   UNL     1      37.295 -23.703 -13.551  0.00  0.00    +0.201 C 
ATOM     29  C   UNL     1      38.843 -25.240 -13.869  0.00  0.00    +0.124 C 
BRANCH  29  32
ATOM     30  O   UNL     1      40.368 -25.879 -15.558  0.00  0.00    -0.269 OA
ATOM     31  N   UNL     1      40.755 -26.666 -13.455  0.00  0.00    -0.324 N 
ATOM     32  C   UNL     1      39.991 -25.922 -14.362  0.00  0.00    +0.257 C 
ATOM     33  H   UNL     1      41.555 -27.149 -13.764  0.00  0.00    +0.145 HD
ATOM     34  H   UNL     1      40.493 -26.706 -12.506  0.00  0.00    +0.145 HD
ENDBRANCH  29  32
ENDBRANCH  24  25
BRANCH  24  35
ATOM     35  C   UNL     1      36.151 -24.061 -10.485  0.00  0.00    +0.153 C 
BRANCH  35  36
ATOM     36  O   UNL     1      35.376 -24.633  -9.437  0.00  0.00    -0.381 OA
ATOM     37  H   UNL     1      34.725 -23.984  -9.126  0.00  0.00    +0.210 HD
ENDBRANCH  35  36
ENDBRANCH  24  35
ENDBRANCH  23  24
ENDBRANCH  22  23
ENDBRANCH   1  22
TORSDOF 11
ENDMDL
MODEL 3
REMARK VINA RESULT:     -11.6      1.573      2.059
REMARK  Name = 448903
REMARK  11 active torsions:
REMARK  status: ('A' for Active; 'I' for Inactive)
REMARK    1  A    between atoms: N_1  and  C_22
REMARK    2  A    between atoms: C_8  and  N_11
REMARK    3  A    between atoms: C_12  and  C_14
REMARK    4  A    between atoms: C_14  and  C_15
REMARK    5  A    between atoms: C_15  and  C_16
REMARK    6  A    between atoms: C_22  and  C_23
REMARK    7  A    between atoms: C_23  and  C_24
REMARK    8  A    between atoms: C_24  and  N_25
REMARK    9  A    between atoms: C_24  and  C_35
REMARK   10  A    between atoms: C_29  and  C_32
REMARK   11  A    between atoms: C_35  and  O_36
REMARK                            x       y       z     vdW  Elec       q    Type
REMARK                         _______ _______ _______ _____ _____    ______ ____
ROOT
ATOM      1  N   UNL     1      34.704 -23.952 -14.492  0.00  0.00    -0.286 N 
ATOM      2  C   UNL     1      35.328 -23.240 -15.491  0.00  0.00    +0.053 C 
ATOM      3  C   UNL     1      36.679 -23.149 -15.147  0.00  0.00    +0.015 C 
ATOM      4  C   UNL     1      35.610 -24.314 -13.532  0.00  0.00    +0.065 C 
ATOM      5  C   UNL     1      36.841 -23.832 -13.909  0.00  0.00    +0.017 C 
ATOM      6  C   UNL     1      34.807 -22.676 -16.661  0.00  0.00    +0.029 C 
ATOM      7  C   UNL     1      37.554 -22.461 -16.012  0.00  0.00    +0.003 C 
ATOM      8  C   UNL     1      35.694 -21.998 -17.503  0.00  0.00    +0.052 C 
ATOM      9  C   UNL     1      37.047 -21.892 -17.185  0.00  0.00    +0.015 C 
ENDROOT
BRANCH   8  11
ATOM     10  O   UNL     1      32.886 -21.743 -18.548  0.00  0.00    -0.275 OA
ATOM     11  N   UNL     1      35.215 -21.422 -18.680  0.00  0.00    -0.284 N 
ATOM     12  C   UNL     1      33.888 -21.317 -19.116  0.00  0.00    +0.226 C 
ATOM     13  H   UNL     1      35.896 -21.041 -19.281  0.00  0.00    +0.155 HD
BRANCH  12  14
ATOM     14  C   UNL     1      33.770 -20.618 -20.461  0.00  0.00    +0.090 C 
BRANCH  14  15
ATOM     15  C   UNL     1      35.060 -19.886 -20.833  0.00  0.00    +0.036 C 
BRANCH  15  16
ATOM     16  C   UNL     1      34.881 -18.887 -21.949  0.00  0.00    -0.022 C 
ATOM     17  C   UNL     1      34.305 -19.284 -23.155  0.00  0.00    -0.004 C 
ATOM     18  C   UNL     1      35.291 -17.564 -21.774  0.00  0.00    -0.004 C 
ATOM     19  C   UNL     1      34.139 -18.360 -24.188  0.00  0.00    -0.000 C 
ATOM     20  C   UNL     1      35.125 -16.641 -22.807  0.00  0.00    -0.000 C 
ATOM     21  C   UNL     1      34.550 -17.039 -24.013  0.00  0.00    -0.000 C 
ENDBRANCH  15  16
ENDBRANCH  14  15
ENDBRANCH  12  14
ENDBRANCH   8  11
BRANCH   1  22
ATOM     22  C   UNL     1      33.294 -24.279 -14.447  0.00  0.00    +0.097 C 
BRANCH  22  23
ATOM     23  C   UNL     1      32.369 -23.065 -14.290  0.00  0.00    +0.040 C 
BRANCH  23  24
ATOM     24  C   UNL     1      30.919 -23.396 -13.869  0.00  0.00    +0.091 C 
BRANCH  24  25
ATOM     25  N   UNL     1      29.917 -23.055 -14.893  0.00  0.00    -0.246 NA
ATOM     26  N   UNL     1      28.909 -22.613 -16.822  0.00  0.00    -0.251 NA
ATOM     27  C   UNL     1      28.589 -22.780 -14.680  0.00  0.00    +0.125 C 
ATOM     28  C   UNL     1      30.077 -22.946 -16.193  0.00  0.00    +0.201 C 
ATOM     29  C   UNL     1      27.943 -22.503 -15.863  0.00  0.00    +0.124 C 
BRANCH  29  32
ATOM     30  O   UNL     1      25.679 -22.266 -15.225  0.00  0.00    -0.269 OA
ATOM     31  N   UNL     1      26.224 -21.691 -17.362  0.00  0.00    -0.324 N 
ATOM     32  C   UNL     1      26.578 -22.172 -16.096  0.00  0.00    +0.257 C 
ATOM     33  H   UNL     1      25.289 -21.452 -17.555  0.00  0.00    +0.145 HD
ATOM     34  H   UNL     1      26.912 -21.591 -18.061  0.00  0.00    +0.145 HD
ENDBRANCH  29  32
ENDBRANCH  24  25
BRANCH  24  35
ATOM     35  C   UNL     1      30.795 -24.875 -13.469  0.00  0.00    +0.153 C 
BRANCH  35  36
ATOM     36  O   UNL     1      30.223 -24.974 -12.170  0.00  0.00    -0.381 OA
ATOM     37  H   UNL     1      30.794 -25.517 -11.605  0.00  0.00    +0.210 HD
ENDBRANCH  35  36
ENDBRANCH  24  35
ENDBRANCH  23  24
ENDBRANCH  22  23
ENDBRANCH   1  22
TORSDOF 11
ENDMDL
MODEL 4
REMARK VINA RESULT:     -11.6      4.130      6.779
REMARK  Name = 448903
REMARK  11 active torsions:
REMARK  status: ('A' for Active; 'I' for Inactive)
REMARK    1  A    between atoms: N_1  and  C_22
REMARK    2  A    between atoms: C_8  and  N_11
REMARK    3  A    between atoms: C_12  and  C_14
REMARK    4  A    between atoms: C_14  and  C_15
REMARK    5  A    between atoms: C_15  and  C_16
REMARK    6  A    between atoms: C_22  and  C_23
REMARK    7  A    between atoms: C_23  and  C_24
REMARK    8  A    between atoms: C_24  and  N_25
REMARK    9  A    between atoms: C_24  and  C_35
REMARK   10  A    between atoms: C_29  and  C_32
REMARK   11  A    between atoms: C_35  and  O_36
REMARK                            x       y       z     vdW  Elec       q    Type
REMARK                         _______ _______ _______ _____ _____    ______ ____
ROOT
ATOM      1  N   UNL     1      36.159 -23.178 -15.515  0.00  0.00    -0.286 N 
ATOM      2  C   UNL     1      35.542 -22.703 -16.650  0.00  0.00    +0.053 C 
ATOM      3  C   UNL     1      34.214 -23.135 -16.606  0.00  0.00    +0.015 C 
ATOM      4  C   UNL     1      35.270 -23.892 -14.757  0.00  0.00    +0.065 C 
ATOM      5  C   UNL     1      34.058 -23.883 -15.406  0.00  0.00    +0.017 C 
ATOM      6  C   UNL     1      36.051 -21.932 -17.701  0.00  0.00    +0.029 C 
ATOM      7  C   UNL     1      33.351 -22.782 -17.664  0.00  0.00    +0.003 C 
ATOM      8  C   UNL     1      35.176 -21.593 -18.738  0.00  0.00    +0.052 C 
ATOM      9  C   UNL     1      33.847 -22.010 -18.721  0.00  0.00    +0.015 C 
ENDROOT
BRANCH   8  11
ATOM     10  O   UNL     1      33.697 -19.808 -20.652  0.00  0.00    -0.275 OA
ATOM     11  N   UNL     1      35.644 -20.824 -19.804  0.00  0.00    -0.284 N 
ATOM     12  C   UNL     1      34.911 -19.995 -20.662  0.00  0.00    +0.226 C 
ATOM     13  H   UNL     1      36.613 -20.871 -19.977  0.00  0.00    +0.155 HD
BRANCH  12  14
ATOM     14  C   UNL     1      35.784 -19.320 -21.708  0.00  0.00    +0.090 C 
BRANCH  14  15
ATOM     15  C   UNL     1      35.085 -19.249 -23.066  0.00  0.00    +0.036 C 
BRANCH  15  16
ATOM     16  C   UNL     1      34.690 -17.848 -23.464  0.00  0.00    -0.022 C 
ATOM     17  C   UNL     1      33.949 -17.635 -24.626  0.00  0.00    -0.004 C 
ATOM     18  C   UNL     1      35.065 -16.765 -22.668  0.00  0.00    -0.004 C 
ATOM     19  C   UNL     1      33.584 -16.340 -24.993  0.00  0.00    -0.000 C 
ATOM     20  C   UNL     1      34.700 -15.470 -23.035  0.00  0.00    -0.000 C 
ATOM     21  C   UNL     1      33.959 -15.257 -24.198  0.00  0.00    -0.000 C 
ENDBRANCH  15  16
ENDBRANCH  14  15
ENDBRANCH  12  14
ENDBRANCH   8  11
BRANCH   1  22
ATOM     22  C   UNL     1      37.545 -22.963 -15.159  0.00  0.00    +0.097 C 
BRANCH  22  23
ATOM     23  C   UNL     1      38.440 -24.198 -15.329  0.00  0.00    +0.040 C 
BRANCH  23  24
ATOM     24  C   UNL     1      39.114 -24.704 -14.033  0.00  0.00    +0.091 C 
BRANCH  24  25
ATOM     25  N   UNL     1      38.157 -25.048 -12.968  0.00  0.00    -0.246 NA
ATOM     26  N   UNL     1      36.748 -26.140 -11.644  0.00  0.00    -0.251 NA
ATOM     27  C   UNL     1      37.672 -24.207 -11.998  0.00  0.00    +0.125 C 
ATOM     28  C   UNL     1      37.581 -26.204 -12.727  0.00  0.00    +0.201 C 
ATOM     29  C   UNL     1      36.796 -24.861 -11.165  0.00  0.00    +0.124 C 
BRANCH  29  32
ATOM     30  O   UNL     1      35.170 -25.015  -9.456  0.00  0.00    -0.269 OA
ATOM     31  N   UNL     1      36.409 -23.104  -9.544  0.00  0.00    -0.324 N 
ATOM     32  C   UNL     1      36.074 -24.370 -10.040  0.00  0.00    +0.257 C 
ATOM     33  H   UNL     1      35.929 -22.737  -8.767  0.00  0.00    +0.145 HD
ATOM     34  H   UNL     1      37.126 -22.581  -9.972  0.00  0.00    +0.145 HD
ENDBRANCH  29  32
ENDBRANCH  24  25
BRANCH  24  35
ATOM     35  C   UNL     1      40.035 -25.897 -14.333  0.00  0.00    +0.153 C 
BRANCH  35  36
ATOM     36  O   UNL     1      40.266 -25.985 -15.735  0.00  0.00    -0.381 OA
ATOM     37  H   UNL     1      41.198 -25.790 -15.922  0.00  0.00    +0.210 HD
ENDBRANCH  35  36
ENDBRANCH  24  35
ENDBRANCH  23  24
ENDBRANCH  22  23
ENDBRANCH   1  22
TORSDOF 11
ENDMDL
MODEL 5
REMARK VINA RESULT:     -11.3      5.369     10.245
REMARK  Name = 448903
REMARK  11 active torsions:
REMARK  status: ('A' for Active; 'I' for Inactive)
REMARK    1  A    between atoms: N_1  and  C_22
REMARK    2  A    between atoms: C_8  and  N_11
REMARK    3  A    between atoms: C_12  and  C_14
REMARK    4  A    between atoms: C_14  and  C_15
REMARK    5  A    between atoms: C_15  and  C_16
REMARK    6  A    between atoms: C_22  and  C_23
REMARK    7  A    between atoms: C_23  and  C_24
REMARK    8  A    between atoms: C_24  and  N_25
REMARK    9  A    between atoms: C_24  and  C_35
REMARK   10  A    between atoms: C_29  and  C_32
REMARK   11  A    between atoms: C_35  and  O_36
REMARK                            x       y       z     vdW  Elec       q    Type
REMARK                         _______ _______ _______ _____ _____    ______ ____
ROOT
ATOM      1  N   UNL     1      34.554 -16.259 -23.121  0.00  0.00    -0.286 N 
ATOM      2  C   UNL     1      34.174 -15.067 -23.697  0.00  0.00    +0.053 C 
ATOM      3  C   UNL     1      33.765 -15.355 -25.002  0.00  0.00    +0.015 C 
ATOM      4  C   UNL     1      34.400 -17.285 -24.013  0.00  0.00    +0.065 C 
ATOM      5  C   UNL     1      33.912 -16.758 -25.186  0.00  0.00    +0.017 C 
ATOM      6  C   UNL     1      34.161 -13.771 -23.169  0.00  0.00    +0.029 C 
ATOM      7  C   UNL     1      33.321 -14.297 -25.821  0.00  0.00    +0.003 C 
ATOM      8  C   UNL     1      33.715 -12.739 -24.000  0.00  0.00    +0.052 C 
ATOM      9  C   UNL     1      33.301 -12.996 -25.306  0.00  0.00    +0.015 C 
ENDROOT
BRANCH   8  11
ATOM     10  O   UNL     1      35.240 -10.297 -24.867  0.00  0.00    -0.275 OA
ATOM     11  N   UNL     1      33.685 -11.432 -23.512  0.00  0.00    -0.284 N 
ATOM     12  C   UNL     1      34.410 -10.322 -23.963  0.00  0.00    +0.226 C 
ATOM     13  H   UNL     1      33.077 -11.270 -22.754  0.00  0.00    +0.155 HD
BRANCH  12  14
ATOM     14  C   UNL     1      34.100  -9.062 -23.169  0.00  0.00    +0.090 C 
BRANCH  14  15
ATOM     15  C   UNL     1      35.049  -7.919 -23.531  0.00  0.00    +0.036 C 
BRANCH  15  16
ATOM     16  C   UNL     1      34.340  -6.702 -24.075  0.00  0.00    -0.022 C 
ATOM     17  C   UNL     1      33.111  -6.316 -23.543  0.00  0.00    -0.004 C 
ATOM     18  C   UNL     1      34.917  -5.964 -25.109  0.00  0.00    -0.004 C 
ATOM     19  C   UNL     1      32.456  -5.191 -24.046  0.00  0.00    -0.000 C 
ATOM     20  C   UNL     1      34.261  -4.840 -25.612  0.00  0.00    -0.000 C 
ATOM     21  C   UNL     1      33.031  -4.453 -25.080  0.00  0.00    -0.000 C 
ENDBRANCH  15  16
ENDBRANCH  14  15
ENDBRANCH  12  14
ENDBRANCH   8  11
BRANCH   1  22
ATOM     22  C   UNL     1      35.048 -16.419 -21.770  0.00  0.00    +0.097 C 
BRANCH  22  23
ATOM     23  C   UNL     1      34.814 -17.813 -21.173  0.00  0.00    +0.040 C 
BRANCH  23  24
ATOM     24  C   UNL     1      36.097 -18.604 -20.830  0.00  0.00    +0.091 C 
BRANCH  24  25
ATOM     25  N   UNL     1      35.836 -19.869 -20.123  0.00  0.00    -0.246 NA
ATOM     26  N   UNL     1      36.066 -21.724 -18.923  0.00  0.00    -0.251 NA
ATOM     27  C   UNL     1      34.635 -20.527 -20.035  0.00  0.00    +0.125 C 
ATOM     28  C   UNL     1      36.677 -20.616 -19.442  0.00  0.00    +0.201 C 
ATOM     29  C   UNL     1      34.753 -21.681 -19.296  0.00  0.00    +0.124 C 
BRANCH  29  32
ATOM     30  O   UNL     1      33.847 -23.864 -19.263  0.00  0.00    -0.269 OA
ATOM     31  N   UNL     1      32.647 -22.224 -18.230  0.00  0.00    -0.324 N 
ATOM     32  C   UNL     1      33.764 -22.649 -18.960  0.00  0.00    +0.257 C 
ATOM     33  H   UNL     1      31.946 -22.869 -17.982  0.00  0.00    +0.145 HD
ATOM     34  H   UNL     1      32.563 -21.279 -17.965  0.00  0.00    +0.145 HD
ENDBRANCH  29  32
ENDBRANCH  24  25
BRANCH  24  35
ATOM     35  C   UNL     1      36.931 -18.858 -22.096  0.00  0.00    +0.153 C 
BRANCH  35  36
ATOM     36  O   UNL     1      38.274 -18.443 -21.876  0.00  0.00    -0.381 OA
ATOM     37  H   UNL     1      38.435 -18.359 -20.923  0.00  0.00    +0.210 HD
ENDBRANCH  35  36
ENDBRANCH  24  35
ENDBRANCH  23  24
ENDBRANCH  22  23
ENDBRANCH   1  22
TORSDOF 11
ENDMDL
MODEL 6
REMARK VINA RESULT:     -11.1      5.036      9.917
REMARK  Name = 448903
REMARK  11 active torsions:
REMARK  status: ('A' for Active; 'I' for Inactive)
REMARK    1  A    between atoms: N_1  and  C_22
REMARK    2  A    between atoms: C_8  and  N_11
REMARK    3  A    between atoms: C_12  and  C_14
REMARK    4  A    between atoms: C_14  and  C_15
REMARK    5  A    between atoms: C_15  and  C_16
REMARK    6  A    between atoms: C_22  and  C_23
REMARK    7  A    between atoms: C_23  and  C_24
REMARK    8  A    between atoms: C_24  and  N_25
REMARK    9  A    between atoms: C_24  and  C_35
REMARK   10  A    between atoms: C_29  and  C_32
REMARK   11  A    between atoms: C_35  and  O_36
REMARK                            x       y       z     vdW  Elec       q    Type
REMARK                         _______ _______ _______ _____ _____    ______ ____
ROOT
ATOM      1  N   UNL     1      34.657 -16.562 -23.071  0.00  0.00    -0.286 N 
ATOM      2  C   UNL     1      34.230 -15.397 -23.669  0.00  0.00    +0.053 C 
ATOM      3  C   UNL     1      33.798 -15.731 -24.955  0.00  0.00    +0.015 C 
ATOM      4  C   UNL     1      34.509 -17.616 -23.932  0.00  0.00    +0.065 C 
ATOM      5  C   UNL     1      33.979 -17.134 -25.105  0.00  0.00    +0.017 C 
ATOM      6  C   UNL     1      34.194 -14.089 -23.175  0.00  0.00    +0.029 C 
ATOM      7  C   UNL     1      33.306 -14.708 -25.791  0.00  0.00    +0.003 C 
ATOM      8  C   UNL     1      33.700 -13.091 -24.022  0.00  0.00    +0.052 C 
ATOM      9  C   UNL     1      33.263 -13.395 -25.310  0.00  0.00    +0.015 C 
ENDROOT
BRANCH   8  11
ATOM     10  O   UNL     1      35.032 -10.609 -25.073  0.00  0.00    -0.275 OA
ATOM     11  N   UNL     1      33.646 -11.773 -23.568  0.00  0.00    -0.284 N 
ATOM     12  C   UNL     1      34.278 -10.645 -24.104  0.00  0.00    +0.226 C 
ATOM     13  H   UNL     1      33.093 -11.616 -22.768  0.00  0.00    +0.155 HD
BRANCH  12  14
ATOM     14  C   UNL     1      33.972  -9.377 -23.322  0.00  0.00    +0.090 C 
BRANCH  14  15
ATOM     15  C   UNL     1      32.573  -9.418 -22.705  0.00  0.00    +0.036 C 
BRANCH  15  16
ATOM     16  C   UNL     1      32.097  -8.073 -22.213  0.00  0.00    -0.022 C 
ATOM     17  C   UNL     1      31.073  -7.407 -22.885  0.00  0.00    -0.004 C 
ATOM     18  C   UNL     1      32.681  -7.497 -21.084  0.00  0.00    -0.004 C 
ATOM     19  C   UNL     1      30.633  -6.164 -22.430  0.00  0.00    -0.000 C 
ATOM     20  C   UNL     1      32.241  -6.254 -20.629  0.00  0.00    -0.000 C 
ATOM     21  C   UNL     1      31.217  -5.588 -21.302  0.00  0.00    -0.000 C 
ENDBRANCH  15  16
ENDBRANCH  14  15
ENDBRANCH  12  14
ENDBRANCH   8  11
BRANCH   1  22
ATOM     22  C   UNL     1      35.187 -16.673 -21.729  0.00  0.00    +0.097 C 
BRANCH  22  23
ATOM     23  C   UNL     1      34.915 -18.023 -21.052  0.00  0.00    +0.040 C 
BRANCH  23  24
ATOM     24  C   UNL     1      36.176 -18.834 -20.675  0.00  0.00    +0.091 C 
BRANCH  24  25
ATOM     25  N   UNL     1      35.877 -20.098 -19.982  0.00  0.00    -0.246 NA
ATOM     26  N   UNL     1      36.049 -21.968 -18.795  0.00  0.00    -0.251 NA
ATOM     27  C   UNL     1      34.659 -20.727 -19.913  0.00  0.00    +0.125 C 
ATOM     28  C   UNL     1      36.692 -20.870 -19.298  0.00  0.00    +0.201 C 
ATOM     29  C   UNL     1      34.741 -21.889 -19.182  0.00  0.00    +0.124 C 
BRANCH  29  32
ATOM     30  O   UNL     1      33.779 -24.049 -19.182  0.00  0.00    -0.269 OA
ATOM     31  N   UNL     1      32.614 -22.391 -18.138  0.00  0.00    -0.324 N 
ATOM     32  C   UNL     1      33.725 -22.836 -18.865  0.00  0.00    +0.257 C 
ATOM     33  H   UNL     1      31.895 -23.022 -17.903  0.00  0.00    +0.145 HD
ATOM     34  H   UNL     1      32.552 -21.448 -17.862  0.00  0.00    +0.145 HD
ENDBRANCH  29  32
ENDBRANCH  24  25
BRANCH  24  35
ATOM     35  C   UNL     1      37.043 -19.095 -21.918  0.00  0.00    +0.153 C 
BRANCH  35  36
ATOM     36  O   UNL     1      38.254 -18.355 -21.822  0.00  0.00    -0.381 OA
ATOM     37  H   UNL     1      38.931 -18.898 -21.387  0.00  0.00    +0.210 HD
ENDBRANCH  35  36
ENDBRANCH  24  35
ENDBRANCH  23  24
ENDBRANCH  22  23
ENDBRANCH   1  22
TORSDOF 11
ENDMDL
MODEL 7
REMARK VINA RESULT:     -11.0      4.416      9.603
REMARK  Name = 448903
REMARK  11 active torsions:
REMARK  status: ('A' for Active; 'I' for Inactive)
REMARK    1  A    between atoms: N_1  and  C_22
REMARK    2  A    between atoms: C_8  and  N_11
REMARK    3  A    between atoms: C_12  and  C_14
REMARK    4  A    between atoms: C_14  and  C_15
REMARK    5  A    between atoms: C_15  and  C_16
REMARK    6  A    between atoms: C_22  and  C_23
REMARK    7  A    between atoms: C_23  and  C_24
REMARK    8  A    between atoms: C_24  and  N_25
REMARK    9  A    between atoms: C_24  and  C_35
REMARK   10  A    between atoms: C_29  and  C_32
REMARK   11  A    between atoms: C_35  and  O_36
REMARK                            x       y       z     vdW  Elec       q    Type
REMARK                         _______ _______ _______ _____ _____    ______ ____
ROOT
ATOM      1  N   UNL     1      34.637 -16.638 -23.112  0.00  0.00    -0.286 N 
ATOM      2  C   UNL     1      34.229 -15.465 -23.709  0.00  0.00    +0.053 C 
ATOM      3  C   UNL     1      33.750 -15.797 -24.979  0.00  0.00    +0.015 C 
ATOM      4  C   UNL     1      34.431 -17.694 -23.957  0.00  0.00    +0.065 C 
ATOM      5  C   UNL     1      33.884 -17.207 -25.120  0.00  0.00    +0.017 C 
ATOM      6  C   UNL     1      34.248 -14.152 -23.227  0.00  0.00    +0.029 C 
ATOM      7  C   UNL     1      33.266 -14.767 -25.810  0.00  0.00    +0.003 C 
ATOM      8  C   UNL     1      33.762 -13.147 -24.070  0.00  0.00    +0.052 C 
ATOM      9  C   UNL     1      33.278 -13.449 -25.342  0.00  0.00    +0.015 C 
ENDROOT
BRANCH   8  11
ATOM     10  O   UNL     1      35.032 -10.694 -25.255  0.00  0.00    -0.275 OA
ATOM     11  N   UNL     1      33.761 -11.824 -23.628  0.00  0.00    -0.284 N 
ATOM     12  C   UNL     1      34.361 -10.709 -24.227  0.00  0.00    +0.226 C 
ATOM     13  H   UNL     1      33.279 -11.651 -22.786  0.00  0.00    +0.155 HD
BRANCH  12  14
ATOM     14  C   UNL     1      34.136  -9.430 -23.437  0.00  0.00    +0.090 C 
BRANCH  14  15
ATOM     15  C   UNL     1      32.648  -9.161 -23.208  0.00  0.00    +0.036 C 
BRANCH  15  16
ATOM     16  C   UNL     1      32.213  -9.384 -21.780  0.00  0.00    -0.022 C 
ATOM     17  C   UNL     1      32.426  -8.393 -20.823  0.00  0.00    -0.004 C 
ATOM     18  C   UNL     1      31.596 -10.582 -21.418  0.00  0.00    -0.004 C 
ATOM     19  C   UNL     1      32.023  -8.599 -19.503  0.00  0.00    -0.000 C 
ATOM     20  C   UNL     1      31.193 -10.788 -20.098  0.00  0.00    -0.000 C 
ATOM     21  C   UNL     1      31.407  -9.796 -19.141  0.00  0.00    -0.000 C 
ENDBRANCH  15  16
ENDBRANCH  14  15
ENDBRANCH  12  14
ENDBRANCH   8  11
BRANCH   1  22
ATOM     22  C   UNL     1      35.202 -16.753 -21.785  0.00  0.00    +0.097 C 
BRANCH  22  23
ATOM     23  C   UNL     1      34.921 -18.093 -21.092  0.00  0.00    +0.040 C 
BRANCH  23  24
ATOM     24  C   UNL     1      36.176 -18.885 -20.661  0.00  0.00    +0.091 C 
BRANCH  24  25
ATOM     25  N   UNL     1      35.867 -20.140 -19.956  0.00  0.00    -0.246 NA
ATOM     26  N   UNL     1      36.022 -21.997 -18.747  0.00  0.00    -0.251 NA
ATOM     27  C   UNL     1      34.646 -20.764 -19.891  0.00  0.00    +0.125 C 
ATOM     28  C   UNL     1      36.673 -20.907 -19.257  0.00  0.00    +0.201 C 
ATOM     29  C   UNL     1      34.717 -21.918 -19.146  0.00  0.00    +0.124 C 
BRANCH  29  32
ATOM     30  O   UNL     1      33.745 -24.073 -19.137  0.00  0.00    -0.269 OA
ATOM     31  N   UNL     1      32.583 -22.403 -18.109  0.00  0.00    -0.324 N 
ATOM     32  C   UNL     1      33.695 -22.858 -18.828  0.00  0.00    +0.257 C 
ATOM     33  H   UNL     1      31.860 -23.028 -17.874  0.00  0.00    +0.145 HD
ATOM     34  H   UNL     1      32.524 -21.458 -17.840  0.00  0.00    +0.145 HD
ENDBRANCH  29  32
ENDBRANCH  24  25
BRANCH  24  35
ATOM     35  C   UNL     1      37.086 -19.158 -21.870  0.00  0.00    +0.153 C 
BRANCH  35  36
ATOM     36  O   UNL     1      38.234 -18.319 -21.805  0.00  0.00    -0.381 OA
ATOM     37  H   UNL     1      38.181 -17.644 -22.499  0.00  0.00    +0.210 HD
ENDBRANCH  35  36
ENDBRANCH  24  35
ENDBRANCH  23  24
ENDBRANCH  22  23
ENDBRANCH   1  22
TORSDOF 11
ENDMDL
MODEL 8
REMARK VINA RESULT:     -10.8      1.812      2.873
REMARK  Name = 448903
REMARK  11 active torsions:
REMARK  status: ('A' for Active; 'I' for Inactive)
REMARK    1  A    between atoms: N_1  and  C_22
REMARK    2  A    between atoms: C_8  and  N_11
REMARK    3  A    between atoms: C_12  and  C_14
REMARK    4  A    between atoms: C_14  and  C_15
REMARK    5  A    between atoms: C_15  and  C_16
REMARK    6  A    between atoms: C_22  and  C_23
REMARK    7  A    between atoms: C_23  and  C_24
REMARK    8  A    between atoms: C_24  and  N_25
REMARK    9  A    between atoms: C_24  and  C_35
REMARK   10  A    between atoms: C_29  and  C_32
REMARK   11  A    between atoms: C_35  and  O_36
REMARK                            x       y       z     vdW  Elec       q    Type
REMARK                         _______ _______ _______ _____ _____    ______ ____
ROOT
ATOM      1  N   UNL     1      34.598 -21.949 -18.360  0.00  0.00    -0.286 N 
ATOM      2  C   UNL     1      35.039 -21.063 -19.317  0.00  0.00    +0.053 C 
ATOM      3  C   UNL     1      36.402 -20.859 -19.088  0.00  0.00    +0.015 C 
ATOM      4  C   UNL     1      35.630 -22.311 -17.538  0.00  0.00    +0.065 C 
ATOM      5  C   UNL     1      36.761 -21.654 -17.964  0.00  0.00    +0.017 C 
ATOM      6  C   UNL     1      34.344 -20.434 -20.356  0.00  0.00    +0.029 C 
ATOM      7  C   UNL     1      37.108 -19.983 -19.938  0.00  0.00    +0.003 C 
ATOM      8  C   UNL     1      35.066 -19.570 -21.186  0.00  0.00    +0.052 C 
ATOM      9  C   UNL     1      36.427 -19.348 -20.982  0.00  0.00    +0.015 C 
ENDROOT
BRANCH   8  11
ATOM     10  O   UNL     1      35.041 -20.166 -24.133  0.00  0.00    -0.275 OA
ATOM     11  N   UNL     1      34.411 -18.924 -22.235  0.00  0.00    -0.284 N 
ATOM     12  C   UNL     1      34.422 -19.252 -23.597  0.00  0.00    +0.226 C 
ATOM     13  H   UNL     1      33.874 -18.137 -21.987  0.00  0.00    +0.155 HD
BRANCH  12  14
ATOM     14  C   UNL     1      33.580 -18.301 -24.432  0.00  0.00    +0.090 C 
BRANCH  14  15
ATOM     15  C   UNL     1      34.408 -17.130 -24.963  0.00  0.00    +0.036 C 
BRANCH  15  16
ATOM     16  C   UNL     1      34.154 -15.836 -24.230  0.00  0.00    -0.022 C 
ATOM     17  C   UNL     1      33.387 -14.836 -24.826  0.00  0.00    -0.004 C 
ATOM     18  C   UNL     1      34.686 -15.640 -22.955  0.00  0.00    -0.004 C 
ATOM     19  C   UNL     1      33.152 -13.639 -24.148  0.00  0.00    -0.000 C 
ATOM     20  C   UNL     1      34.452 -14.444 -22.278  0.00  0.00    -0.000 C 
ATOM     21  C   UNL     1      33.685 -13.443 -22.874  0.00  0.00    -0.000 C 
ENDBRANCH  15  16
ENDBRANCH  14  15
ENDBRANCH  12  14
ENDBRANCH   8  11
BRANCH   1  22
ATOM     22  C   UNL     1      33.241 -22.437 -18.228  0.00  0.00    +0.097 C 
BRANCH  22  23
ATOM     23  C   UNL     1      33.068 -23.552 -17.188  0.00  0.00    +0.040 C 
BRANCH  23  24
ATOM     24  C   UNL     1      32.478 -23.100 -15.833  0.00  0.00    +0.091 C 
BRANCH  24  25
ATOM     25  N   UNL     1      31.041 -23.389 -15.692  0.00  0.00    -0.246 NA
ATOM     26  N   UNL     1      29.098 -24.272 -15.079  0.00  0.00    -0.251 NA
ATOM     27  C   UNL     1      30.008 -22.738 -16.318  0.00  0.00    +0.125 C 
ATOM     28  C   UNL     1      30.459 -24.306 -14.953  0.00  0.00    +0.201 C 
ATOM     29  C   UNL     1      28.792 -23.268 -15.954  0.00  0.00    +0.124 C 
BRANCH  29  32
ATOM     30  O   UNL     1      27.023 -23.101 -17.513  0.00  0.00    -0.269 OA
ATOM     31  N   UNL     1      26.645 -22.286 -15.419  0.00  0.00    -0.324 N 
ATOM     32  C   UNL     1      27.480 -22.895 -16.363  0.00  0.00    +0.257 C 
ATOM     33  H   UNL     1      25.732 -22.017 -15.670  0.00  0.00    +0.145 HD
ATOM     34  H   UNL     1      26.970 -22.127 -14.503  0.00  0.00    +0.145 HD
ENDBRANCH  29  32
ENDBRANCH  24  25
BRANCH  24  35
ATOM     35  C   UNL     1      33.267 -23.715 -14.667  0.00  0.00    +0.153 C 
BRANCH  35  36
ATOM     36  O   UNL     1      34.407 -24.404 -15.169  0.00  0.00    -0.381 OA
ATOM     37  H   UNL     1      34.449 -25.289 -14.775  0.00  0.00    +0.210 HD
ENDBRANCH  35  36
ENDBRANCH  24  35
ENDBRANCH  23  24
ENDBRANCH  22  23
ENDBRANCH   1  22
TORSDOF 11
ENDMDL
MODEL 9
REMARK VINA RESULT:     -10.8      7.053     12.365
REMARK  Name = 448903
REMARK  11 active torsions:
REMARK  status: ('A' for Active; 'I' for Inactive)
REMARK    1  A    between atoms: N_1  and  C_22
REMARK    2  A    between atoms: C_8  and  N_11
REMARK    3  A    between atoms: C_12  and  C_14
REMARK    4  A    between atoms: C_14  and  C_15
REMARK    5  A    between atoms: C_15  and  C_16
REMARK    6  A    between atoms: C_22  and  C_23
REMARK    7  A    between atoms: C_23  and  C_24
REMARK    8  A    between atoms: C_24  and  N_25
REMARK    9  A    between atoms: C_24  and  C_35
REMARK   10  A    between atoms: C_29  and  C_32
REMARK   11  A    between atoms: C_35  and  O_36
REMARK                            x       y       z     vdW  Elec       q    Type
REMARK                         _______ _______ _______ _____ _____    ______ ____
ROOT
ATOM      1  N   UNL     1      32.747 -12.946 -22.011  0.00  0.00    -0.286 N 
ATOM      2  C   UNL     1      32.432 -11.639 -21.714  0.00  0.00    +0.053 C 
ATOM      3  C   UNL     1      31.830 -11.639 -20.453  0.00  0.00    +0.015 C 
ATOM      4  C   UNL     1      32.367 -13.769 -20.986  0.00  0.00    +0.065 C 
ATOM      5  C   UNL     1      31.797 -12.990 -20.007  0.00  0.00    +0.017 C 
ATOM      6  C   UNL     1      32.632 -10.470 -22.456  0.00  0.00    +0.029 C 
ATOM      7  C   UNL     1      31.405 -10.412 -19.905  0.00  0.00    +0.003 C 
ATOM      8  C   UNL     1      32.203  -9.264 -21.891  0.00  0.00    +0.052 C 
ATOM      9  C   UNL     1      31.599  -9.234 -20.635  0.00  0.00    +0.015 C 
ENDROOT
BRANCH   8  11
ATOM     10  O   UNL     1      30.190  -7.349 -23.038  0.00  0.00    -0.275 OA
ATOM     11  N   UNL     1      32.385  -8.075 -22.597  0.00  0.00    -0.284 N 
ATOM     12  C   UNL     1      31.407  -7.208 -23.101  0.00  0.00    +0.226 C 
ATOM     13  H   UNL     1      33.320  -7.811 -22.763  0.00  0.00    +0.155 HD
BRANCH  12  14
ATOM     14  C   UNL     1      32.006  -6.008 -23.817  0.00  0.00    +0.090 C 
BRANCH  14  15
ATOM     15  C   UNL     1      33.527  -6.115 -23.925  0.00  0.00    +0.036 C 
BRANCH  15  16
ATOM     16  C   UNL     1      34.096  -5.386 -25.118  0.00  0.00    -0.022 C 
ATOM     17  C   UNL     1      35.450  -5.504 -25.427  0.00  0.00    -0.004 C 
ATOM     18  C   UNL     1      33.265  -4.596 -25.913  0.00  0.00    -0.004 C 
ATOM     19  C   UNL     1      35.976  -4.831 -26.530  0.00  0.00    -0.000 C 
ATOM     20  C   UNL     1      33.791  -3.923 -27.016  0.00  0.00    -0.000 C 
ATOM     21  C   UNL     1      35.146  -4.040 -27.325  0.00  0.00    -0.000 C 
ENDBRANCH  15  16
ENDBRANCH  14  15
ENDBRANCH  12  14
ENDBRANCH   8  11
BRANCH   1  22
ATOM     22  C   UNL     1      33.387 -13.401 -23.227  0.00  0.00    +0.097 C 
BRANCH  22  23
ATOM     23  C   UNL     1      34.520 -14.412 -23.005  0.00  0.00    +0.040 C 
BRANCH  23  24
ATOM     24  C   UNL     1      34.569 -15.576 -24.021  0.00  0.00    +0.091 C 
BRANCH  24  25
ATOM     25  N   UNL     1      34.742 -16.897 -23.394  0.00  0.00    -0.246 NA
ATOM     26  N   UNL     1      34.687 -19.077 -22.973  0.00  0.00    -0.251 NA
ATOM     27  C   UNL     1      35.371 -17.163 -22.204  0.00  0.00    +0.125 C 
ATOM     28  C   UNL     1      34.342 -18.070 -23.832  0.00  0.00    +0.201 C 
ATOM     29  C   UNL     1      35.350 -18.509 -21.921  0.00  0.00    +0.124 C 
BRANCH  29  32
ATOM     30  O   UNL     1      35.269 -20.120 -20.193  0.00  0.00    -0.269 OA
ATOM     31  N   UNL     1      37.174 -18.880 -20.372  0.00  0.00    -0.324 N 
ATOM     32  C   UNL     1      35.883 -19.210 -20.802  0.00  0.00    +0.257 C 
ATOM     33  H   UNL     1      37.571 -19.347 -19.602  0.00  0.00    +0.145 HD
ATOM     34  H   UNL     1      37.685 -18.181 -20.841  0.00  0.00    +0.145 HD
ENDBRANCH  29  32
ENDBRANCH  24  25
BRANCH  24  35
ATOM     35  C   UNL     1      33.319 -15.565 -24.917  0.00  0.00    +0.153 C 
BRANCH  35  36
ATOM     36  O   UNL     1      33.708 -15.457 -26.281  0.00  0.00    -0.381 OA
ATOM     37  H   UNL     1      34.652 -15.237 -26.332  0.00  0.00    +0.210 HD
ENDBRANCH  35  36
ENDBRANCH  24  35
ENDBRANCH  23  24
ENDBRANCH  22  23
ENDBRANCH   1  22
TORSDOF 11
ENDMDL
