MODEL 1
REMARK VINA RESULT:     -11.0      0.000      0.000
REMARK  Name = 5243
REMARK  7 active torsions:
REMARK  status: ('A' for Active; 'I' for Inactive)
REMARK    1  A    between atoms: C_1  and  C_3
REMARK    2  A    between atoms: C_1  and  C_8
REMARK    3  A    between atoms: C_1  and  C_19
REMARK    4  A    between atoms: C_13  and  O_14
REMARK    5  A    between atoms: O_14  and  S_15
REMARK    6  A    between atoms: C_24  and  O_25
REMARK    7  A    between atoms: O_25  and  S_26
REMARK                            x       y       z     vdW  Elec       q    Type
REMARK                         _______ _______ _______ _____ _____    ______ ____
ROOT
ATOM      1  C   UNL     1      34.582 -23.009 -15.264  0.00  0.00    +0.085 C 
ENDROOT
BRANCH   1   3
ATOM      2  N   UNL     1      35.399 -25.284 -15.390  0.00  0.00    -0.248 NA
ATOM      3  C   UNL     1      35.469 -24.145 -14.708  0.00  0.00    +0.067 C 
ATOM      4  C   UNL     1      36.213 -23.875 -13.602  0.00  0.00    +0.015 C 
ATOM      5  C   UNL     1      36.999 -24.919 -13.127  0.00  0.00    +0.003 C 
ATOM      6  C   UNL     1      36.175 -26.276 -14.899  0.00  0.00    +0.098 C 
ATOM      7  C   UNL     1      36.986 -26.145 -13.782  0.00  0.00    +0.021 C 
ENDBRANCH   1   3
BRANCH   1   8
ATOM      8  C   UNL     1      33.111 -23.239 -15.181  0.00  0.00    -0.013 C 
ATOM      9  C   UNL     1      32.405 -23.652 -16.310  0.00  0.00    -0.000 C 
ATOM     10  C   UNL     1      32.442 -23.040 -13.973  0.00  0.00    -0.000 C 
ATOM     11  C   UNL     1      31.029 -23.866 -16.232  0.00  0.00    +0.040 C 
ATOM     12  C   UNL     1      31.065 -23.255 -13.895  0.00  0.00    +0.040 C 
ATOM     13  C   UNL     1      30.359 -23.668 -15.025  0.00  0.00    +0.176 C 
BRANCH  13  14
ATOM     14  O   UNL     1      29.016 -23.877 -14.950  0.00  0.00    -0.322 OA
BRANCH  14  15
ATOM     15  S   UNL     1      28.042 -23.225 -16.103  0.00  0.00    +0.282 S 
ATOM     16  O   UNL     1      26.715 -22.759 -15.276  0.00  0.00    -0.105 OA
ATOM     17  O   UNL     1      28.676 -22.033 -16.637  0.00  0.00    -0.012 OA
ATOM     18  O   UNL     1      27.642 -24.296 -16.998  0.00  0.00    -0.105 OA
ENDBRANCH  14  15
ENDBRANCH  13  14
ENDBRANCH   1   8
BRANCH   1  19
ATOM     19  C   UNL     1      35.097 -22.468 -16.618  0.00  0.00    -0.013 C 
ATOM     20  C   UNL     1      36.390 -22.026 -16.684  0.00  0.00    -0.000 C 
ATOM     21  C   UNL     1      34.231 -22.461 -17.678  0.00  0.00    -0.000 C 
ATOM     22  C   UNL     1      36.855 -21.538 -17.905  0.00  0.00    +0.040 C 
ATOM     23  C   UNL     1      34.696 -21.972 -18.900  0.00  0.00    +0.040 C 
ATOM     24  C   UNL     1      36.008 -21.511 -19.013  0.00  0.00    +0.176 C 
BRANCH  24  25
ATOM     25  O   UNL     1      36.461 -21.034 -20.205  0.00  0.00    -0.322 OA
BRANCH  25  26
ATOM     26  S   UNL     1      36.384 -19.418 -20.497  0.00  0.00    +0.282 S 
ATOM     27  O   UNL     1      36.894 -19.276 -22.041  0.00  0.00    -0.105 OA
ATOM     28  O   UNL     1      34.997 -18.994 -20.445  0.00  0.00    -0.012 OA
ATOM     29  O   UNL     1      37.370 -18.770 -19.652  0.00  0.00    -0.105 OA
ENDBRANCH  25  26
ENDBRANCH  24  25
ENDBRANCH   1  19
TORSDOF 7
ENDMDL
MODEL 2
REMARK VINA RESULT:     -11.0      4.044      5.814
REMARK  Name = 5243
REMARK  7 active torsions:
REMARK  status: ('A' for Active; 'I' for Inactive)
REMARK    1  A    between atoms: C_1  and  C_3
REMARK    2  A    between atoms: C_1  and  C_8
REMARK    3  A    between atoms: C_1  and  C_19
REMARK    4  A    between atoms: C_13  and  O_14
REMARK    5  A    between atoms: O_14  and  S_15
REMARK    6  A    between atoms: C_24  and  O_25
REMARK    7  A    between atoms: O_25  and  S_26
REMARK                            x       y       z     vdW  Elec       q    Type
REMARK                         _______ _______ _______ _____ _____    ______ ____
ROOT
ATOM      1  C   UNL     1      33.753 -23.390 -16.746  0.00  0.00    +0.085 C 
ENDROOT
BRANCH   1   3
ATOM      2  N   UNL     1      31.344 -23.191 -16.891  0.00  0.00    -0.248 NA
ATOM      3  C   UNL     1      32.386 -23.146 -16.067  0.00  0.00    +0.067 C 
ATOM      4  C   UNL     1      32.386 -22.915 -14.727  0.00  0.00    +0.015 C 
ATOM      5  C   UNL     1      31.141 -22.699 -14.146  0.00  0.00    +0.003 C 
ATOM      6  C   UNL     1      30.152 -22.976 -16.291  0.00  0.00    +0.098 C 
ATOM      7  C   UNL     1      29.997 -22.729 -14.936  0.00  0.00    +0.021 C 
ENDBRANCH   1   3
BRANCH   1   8
ATOM      8  C   UNL     1      34.910 -23.566 -15.822  0.00  0.00    -0.013 C 
ATOM      9  C   UNL     1      35.792 -22.509 -15.599  0.00  0.00    -0.000 C 
ATOM     10  C   UNL     1      35.110 -24.789 -15.181  0.00  0.00    -0.000 C 
ATOM     11  C   UNL     1      36.874 -22.674 -14.736  0.00  0.00    +0.040 C 
ATOM     12  C   UNL     1      36.193 -24.954 -14.317  0.00  0.00    +0.040 C 
ATOM     13  C   UNL     1      37.075 -23.897 -14.094  0.00  0.00    +0.176 C 
BRANCH  13  14
ATOM     14  O   UNL     1      38.131 -24.058 -13.252  0.00  0.00    -0.322 OA
BRANCH  14  15
ATOM     15  S   UNL     1      37.878 -23.966 -11.629  0.00  0.00    +0.282 S 
ATOM     16  O   UNL     1      36.514 -23.080 -11.496  0.00  0.00    -0.105 OA
ATOM     17  O   UNL     1      37.598 -25.295 -11.120  0.00  0.00    -0.012 OA
ATOM     18  O   UNL     1      38.960 -23.184 -11.059  0.00  0.00    -0.105 OA
ENDBRANCH  14  15
ENDBRANCH  13  14
ENDBRANCH   1   8
BRANCH   1  19
ATOM     19  C   UNL     1      33.994 -22.441 -17.943  0.00  0.00    -0.013 C 
ATOM     20  C   UNL     1      35.280 -22.272 -18.380  0.00  0.00    -0.000 C 
ATOM     21  C   UNL     1      32.909 -21.820 -18.500  0.00  0.00    -0.000 C 
ATOM     22  C   UNL     1      35.498 -21.415 -19.459  0.00  0.00    +0.040 C 
ATOM     23  C   UNL     1      33.127 -20.963 -19.579  0.00  0.00    +0.040 C 
ATOM     24  C   UNL     1      34.422 -20.761 -20.059  0.00  0.00    +0.176 C 
BRANCH  24  25
ATOM     25  O   UNL     1      34.635 -19.925 -21.111  0.00  0.00    -0.322 OA
BRANCH  25  26
ATOM     26  S   UNL     1      35.787 -18.758 -20.981  0.00  0.00    +0.282 S 
ATOM     27  O   UNL     1      36.304 -18.547 -22.514  0.00  0.00    -0.105 OA
ATOM     28  O   UNL     1      35.160 -17.523 -20.547  0.00  0.00    -0.012 OA
ATOM     29  O   UNL     1      36.892 -19.313 -20.222  0.00  0.00    -0.105 OA
ENDBRANCH  25  26
ENDBRANCH  24  25
ENDBRANCH   1  19
TORSDOF 7
ENDMDL
MODEL 3
REMARK VINA RESULT:     -11.0      4.023      6.890
REMARK  Name = 5243
REMARK  7 active torsions:
REMARK  status: ('A' for Active; 'I' for Inactive)
REMARK    1  A    between atoms: C_1  and  C_3
REMARK    2  A    between atoms: C_1  and  C_8
REMARK    3  A    between atoms: C_1  and  C_19
REMARK    4  A    between atoms: C_13  and  O_14
REMARK    5  A    between atoms: O_14  and  S_15
REMARK    6  A    between atoms: C_24  and  O_25
REMARK    7  A    between atoms: O_25  and  S_26
REMARK                            x       y       z     vdW  Elec       q    Type
REMARK                         _______ _______ _______ _____ _____    ______ ____
ROOT
ATOM      1  C   UNL     1      34.745 -23.092 -15.194  0.00  0.00    +0.085 C 
ENDROOT
BRANCH   1   3
ATOM      2  N   UNL     1      33.389 -24.543 -13.810  0.00  0.00    -0.248 NA
ATOM      3  C   UNL     1      33.360 -23.640 -14.785  0.00  0.00    +0.067 C 
ATOM      4  C   UNL     1      32.274 -23.157 -15.447  0.00  0.00    +0.015 C 
ATOM      5  C   UNL     1      31.043 -23.671 -15.055  0.00  0.00    +0.003 C 
ATOM      6  C   UNL     1      32.175 -25.021 -13.456  0.00  0.00    +0.098 C 
ATOM      7  C   UNL     1      30.984 -24.621 -14.041  0.00  0.00    +0.021 C 
ENDBRANCH   1   3
BRANCH   1   8
ATOM      8  C   UNL     1      34.864 -22.633 -16.608  0.00  0.00    -0.013 C 
ATOM      9  C   UNL     1      33.793 -22.793 -17.486  0.00  0.00    -0.000 C 
ATOM     10  C   UNL     1      36.049 -22.044 -17.051  0.00  0.00    -0.000 C 
ATOM     11  C   UNL     1      33.906 -22.365 -18.808  0.00  0.00    +0.040 C 
ATOM     12  C   UNL     1      36.162 -21.615 -18.374  0.00  0.00    +0.040 C 
ATOM     13  C   UNL     1      35.090 -21.776 -19.253  0.00  0.00    +0.176 C 
BRANCH  13  14
ATOM     14  O   UNL     1      35.199 -21.358 -20.543  0.00  0.00    -0.322 OA
BRANCH  14  15
ATOM     15  S   UNL     1      34.630 -19.870 -20.950  0.00  0.00    +0.282 S 
ATOM     16  O   UNL     1      34.853 -19.794 -22.566  0.00  0.00    -0.105 OA
ATOM     17  O   UNL     1      33.202 -19.825 -20.695  0.00  0.00    -0.012 OA
ATOM     18  O   UNL     1      35.506 -18.883 -20.345  0.00  0.00    -0.105 OA
ENDBRANCH  14  15
ENDBRANCH  13  14
ENDBRANCH   1   8
BRANCH   1  19
ATOM     19  C   UNL     1      35.905 -23.976 -14.680  0.00  0.00    -0.013 C 
ATOM     20  C   UNL     1      36.788 -23.424 -13.792  0.00  0.00    -0.000 C 
ATOM     21  C   UNL     1      35.986 -25.262 -15.141  0.00  0.00    -0.000 C 
ATOM     22  C   UNL     1      37.835 -24.221 -13.329  0.00  0.00    +0.040 C 
ATOM     23  C   UNL     1      37.033 -26.059 -14.678  0.00  0.00    +0.040 C 
ATOM     24  C   UNL     1      37.958 -25.539 -13.772  0.00  0.00    +0.176 C 
BRANCH  24  25
ATOM     25  O   UNL     1      38.979 -26.316 -13.320  0.00  0.00    -0.322 OA
BRANCH  25  26
ATOM     26  S   UNL     1      40.497 -26.049 -13.894  0.00  0.00    +0.282 S 
ATOM     27  O   UNL     1      40.320 -26.131 -15.515  0.00  0.00    -0.105 OA
ATOM     28  O   UNL     1      40.899 -24.696 -13.557  0.00  0.00    -0.012 OA
ATOM     29  O   UNL     1      41.324 -27.172 -13.491  0.00  0.00    -0.105 OA
ENDBRANCH  25  26
ENDBRANCH  24  25
ENDBRANCH   1  19
TORSDOF 7
ENDMDL
MODEL 4
REMARK VINA RESULT:     -11.0      4.044      5.915
REMARK  Name = 5243
REMARK  7 active torsions:
REMARK  status: ('A' for Active; 'I' for Inactive)
REMARK    1  A    between atoms: C_1  and  C_3
REMARK    2  A    between atoms: C_1  and  C_8
REMARK    3  A    between atoms: C_1  and  C_19
REMARK    4  A    between atoms: C_13  and  O_14
REMARK    5  A    between atoms: O_14  and  S_15
REMARK    6  A    between atoms: C_24  and  O_25
REMARK    7  A    between atoms: O_25  and  S_26
REMARK                            x       y       z     vdW  Elec       q    Type
REMARK                         _______ _______ _______ _____ _____    ______ ____
ROOT
ATOM      1  C   UNL     1      33.740 -23.387 -16.751  0.00  0.00    +0.085 C 
ENDROOT
BRANCH   1   3
ATOM      2  N   UNL     1      31.332 -23.183 -16.891  0.00  0.00    -0.248 NA
ATOM      3  C   UNL     1      32.375 -23.147 -16.068  0.00  0.00    +0.067 C 
ATOM      4  C   UNL     1      32.376 -22.926 -14.726  0.00  0.00    +0.015 C 
ATOM      5  C   UNL     1      31.132 -22.713 -14.143  0.00  0.00    +0.003 C 
ATOM      6  C   UNL     1      30.140 -22.970 -16.290  0.00  0.00    +0.098 C 
ATOM      7  C   UNL     1      29.988 -22.734 -14.932  0.00  0.00    +0.021 C 
ENDBRANCH   1   3
BRANCH   1   8
ATOM      8  C   UNL     1      34.899 -23.562 -15.829  0.00  0.00    -0.013 C 
ATOM      9  C   UNL     1      35.100 -24.781 -15.183  0.00  0.00    -0.000 C 
ATOM     10  C   UNL     1      35.783 -22.504 -15.613  0.00  0.00    -0.000 C 
ATOM     11  C   UNL     1      36.183 -24.944 -14.320  0.00  0.00    +0.040 C 
ATOM     12  C   UNL     1      36.868 -22.667 -14.750  0.00  0.00    +0.040 C 
ATOM     13  C   UNL     1      37.068 -23.887 -14.104  0.00  0.00    +0.176 C 
BRANCH  13  14
ATOM     14  O   UNL     1      38.125 -24.046 -13.262  0.00  0.00    -0.322 OA
BRANCH  14  15
ATOM     15  S   UNL     1      37.872 -23.958 -11.639  0.00  0.00    +0.282 S 
ATOM     16  O   UNL     1      36.516 -23.058 -11.504  0.00  0.00    -0.105 OA
ATOM     17  O   UNL     1      37.578 -25.286 -11.134  0.00  0.00    -0.012 OA
ATOM     18  O   UNL     1      38.961 -23.188 -11.066  0.00  0.00    -0.105 OA
ENDBRANCH  14  15
ENDBRANCH  13  14
ENDBRANCH   1   8
BRANCH   1  19
ATOM     19  C   UNL     1      33.977 -22.436 -17.946  0.00  0.00    -0.013 C 
ATOM     20  C   UNL     1      32.891 -21.807 -18.492  0.00  0.00    -0.000 C 
ATOM     21  C   UNL     1      35.260 -22.275 -18.395  0.00  0.00    -0.000 C 
ATOM     22  C   UNL     1      33.105 -20.949 -19.571  0.00  0.00    +0.040 C 
ATOM     23  C   UNL     1      35.474 -21.418 -19.475  0.00  0.00    +0.040 C 
ATOM     24  C   UNL     1      34.396 -20.754 -20.063  0.00  0.00    +0.176 C 
BRANCH  24  25
ATOM     25  O   UNL     1      34.604 -19.918 -21.116  0.00  0.00    -0.322 OA
BRANCH  25  26
ATOM     26  S   UNL     1      35.879 -18.880 -21.069  0.00  0.00    +0.282 S 
ATOM     27  O   UNL     1      35.220 -17.475 -20.563  0.00  0.00    -0.105 OA
ATOM     28  O   UNL     1      36.814 -19.326 -20.053  0.00  0.00    -0.012 OA
ATOM     29  O   UNL     1      36.333 -18.680 -22.433  0.00  0.00    -0.105 OA
ENDBRANCH  25  26
ENDBRANCH  24  25
ENDBRANCH   1  19
TORSDOF 7
ENDMDL
MODEL 5
REMARK VINA RESULT:     -10.5      3.927      8.113
REMARK  Name = 5243
REMARK  7 active torsions:
REMARK  status: ('A' for Active; 'I' for Inactive)
REMARK    1  A    between atoms: C_1  and  C_3
REMARK    2  A    between atoms: C_1  and  C_8
REMARK    3  A    between atoms: C_1  and  C_19
REMARK    4  A    between atoms: C_13  and  O_14
REMARK    5  A    between atoms: O_14  and  S_15
REMARK    6  A    between atoms: C_24  and  O_25
REMARK    7  A    between atoms: O_25  and  S_26
REMARK                            x       y       z     vdW  Elec       q    Type
REMARK                         _______ _______ _______ _____ _____    ______ ____
ROOT
ATOM      1  C   UNL     1      34.801 -22.685 -15.891  0.00  0.00    +0.085 C 
ENDROOT
BRANCH   1   3
ATOM      2  N   UNL     1      36.296 -21.998 -17.667  0.00  0.00    -0.248 NA
ATOM      3  C   UNL     1      35.025 -22.215 -17.346  0.00  0.00    +0.067 C 
ATOM      4  C   UNL     1      33.925 -22.072 -18.134  0.00  0.00    +0.015 C 
ATOM      5  C   UNL     1      34.161 -21.648 -19.438  0.00  0.00    +0.003 C 
ATOM      6  C   UNL     1      36.486 -21.586 -18.940  0.00  0.00    +0.098 C 
ATOM      7  C   UNL     1      35.463 -21.398 -19.856  0.00  0.00    +0.021 C 
ENDBRANCH   1   3
BRANCH   1   8
ATOM      8  C   UNL     1      35.828 -23.622 -15.352  0.00  0.00    -0.013 C 
ATOM      9  C   UNL     1      37.117 -23.165 -15.083  0.00  0.00    -0.000 C 
ATOM     10  C   UNL     1      35.497 -24.957 -15.116  0.00  0.00    -0.000 C 
ATOM     11  C   UNL     1      38.077 -24.042 -14.579  0.00  0.00    +0.040 C 
ATOM     12  C   UNL     1      36.458 -25.835 -14.612  0.00  0.00    +0.040 C 
ATOM     13  C   UNL     1      37.748 -25.377 -14.343  0.00  0.00    +0.176 C 
BRANCH  13  14
ATOM     14  O   UNL     1      38.685 -26.232 -13.852  0.00  0.00    -0.322 OA
BRANCH  14  15
ATOM     15  S   UNL     1      40.272 -25.950 -14.181  0.00  0.00    +0.282 S 
ATOM     16  O   UNL     1      41.052 -27.154 -13.402  0.00  0.00    -0.105 OA
ATOM     17  O   UNL     1      40.496 -26.121 -15.604  0.00  0.00    -0.012 OA
ATOM     18  O   UNL     1      40.640 -24.704 -13.533  0.00  0.00    -0.105 OA
ENDBRANCH  14  15
ENDBRANCH  13  14
ENDBRANCH   1   8
BRANCH   1  19
ATOM     19  C   UNL     1      33.330 -23.079 -15.619  0.00  0.00    -0.013 C 
ATOM     20  C   UNL     1      32.823 -22.839 -14.370  0.00  0.00    -0.000 C 
ATOM     21  C   UNL     1      32.617 -23.646 -16.639  0.00  0.00    -0.000 C 
ATOM     22  C   UNL     1      31.496 -23.195 -14.124  0.00  0.00    +0.040 C 
ATOM     23  C   UNL     1      31.291 -24.002 -16.392  0.00  0.00    +0.040 C 
ATOM     24  C   UNL     1      30.730 -23.776 -15.134  0.00  0.00    +0.176 C 
BRANCH  24  25
ATOM     25  O   UNL     1      29.437 -24.123 -14.893  0.00  0.00    -0.322 OA
BRANCH  25  26
ATOM     26  S   UNL     1      28.249 -23.468 -15.823  0.00  0.00    +0.282 S 
ATOM     27  O   UNL     1      28.979 -22.205 -16.555  0.00  0.00    -0.105 OA
ATOM     28  O   UNL     1      27.873 -24.422 -16.850  0.00  0.00    -0.012 OA
ATOM     29  O   UNL     1      27.239 -22.929 -14.931  0.00  0.00    -0.105 OA
ENDBRANCH  25  26
ENDBRANCH  24  25
ENDBRANCH   1  19
TORSDOF 7
ENDMDL
MODEL 6
REMARK VINA RESULT:      -8.8      4.023      6.539
REMARK  Name = 5243
REMARK  7 active torsions:
REMARK  status: ('A' for Active; 'I' for Inactive)
REMARK    1  A    between atoms: C_1  and  C_3
REMARK    2  A    between atoms: C_1  and  C_8
REMARK    3  A    between atoms: C_1  and  C_19
REMARK    4  A    between atoms: C_13  and  O_14
REMARK    5  A    between atoms: O_14  and  S_15
REMARK    6  A    between atoms: C_24  and  O_25
REMARK    7  A    between atoms: O_25  and  S_26
REMARK                            x       y       z     vdW  Elec       q    Type
REMARK                         _______ _______ _______ _____ _____    ______ ____
ROOT
ATOM      1  C   UNL     1      34.080 -24.584 -15.400  0.00  0.00    +0.085 C 
ENDROOT
BRANCH   1   3
ATOM      2  N   UNL     1      32.369 -25.418 -13.903  0.00  0.00    -0.248 NA
ATOM      3  C   UNL     1      32.922 -24.321 -14.410  0.00  0.00    +0.067 C 
ATOM      4  C   UNL     1      32.591 -23.025 -14.163  0.00  0.00    +0.015 C 
ATOM      5  C   UNL     1      31.546 -22.823 -13.269  0.00  0.00    +0.003 C 
ATOM      6  C   UNL     1      31.356 -25.183 -13.040  0.00  0.00    +0.098 C 
ATOM      7  C   UNL     1      30.911 -23.917 -12.692  0.00  0.00    +0.021 C 
ENDBRANCH   1   3
BRANCH   1   8
ATOM      8  C   UNL     1      35.380 -24.973 -14.782  0.00  0.00    -0.013 C 
ATOM      9  C   UNL     1      36.064 -24.071 -13.969  0.00  0.00    -0.000 C 
ATOM     10  C   UNL     1      35.911 -26.242 -15.019  0.00  0.00    -0.000 C 
ATOM     11  C   UNL     1      37.280 -24.436 -13.392  0.00  0.00    +0.040 C 
ATOM     12  C   UNL     1      37.128 -26.607 -14.441  0.00  0.00    +0.040 C 
ATOM     13  C   UNL     1      37.813 -25.704 -13.628  0.00  0.00    +0.176 C 
BRANCH  13  14
ATOM     14  O   UNL     1      38.999 -26.059 -13.065  0.00  0.00    -0.322 OA
BRANCH  14  15
ATOM     15  S   UNL     1      40.359 -26.033 -13.990  0.00  0.00    +0.282 S 
ATOM     16  O   UNL     1      40.982 -24.547 -13.728  0.00  0.00    -0.105 OA
ATOM     17  O   UNL     1      41.300 -27.009 -13.473  0.00  0.00    -0.012 OA
ATOM     18  O   UNL     1      39.946 -26.091 -15.381  0.00  0.00    -0.105 OA
ENDBRANCH  14  15
ENDBRANCH  13  14
ENDBRANCH   1   8
BRANCH   1  19
ATOM     19  C   UNL     1      34.164 -23.508 -16.507  0.00  0.00    -0.013 C 
ATOM     20  C   UNL     1      33.061 -23.306 -17.292  0.00  0.00    -0.000 C 
ATOM     21  C   UNL     1      35.337 -22.817 -16.644  0.00  0.00    -0.000 C 
ATOM     22  C   UNL     1      33.138 -22.336 -18.292  0.00  0.00    +0.040 C 
ATOM     23  C   UNL     1      35.414 -21.847 -17.644  0.00  0.00    +0.040 C 
ATOM     24  C   UNL     1      34.313 -21.606 -18.468  0.00  0.00    +0.176 C 
BRANCH  24  25
ATOM     25  O   UNL     1      34.388 -20.660 -19.443  0.00  0.00    -0.322 OA
BRANCH  25  26
ATOM     26  S   UNL     1      35.763 -20.545 -20.338  0.00  0.00    +0.282 S 
ATOM     27  O   UNL     1      36.275 -22.089 -20.467  0.00  0.00    -0.105 OA
ATOM     28  O   UNL     1      35.423 -20.075 -21.668  0.00  0.00    -0.012 OA
ATOM     29  O   UNL     1      36.744 -19.826 -19.545  0.00  0.00    -0.105 OA
ENDBRANCH  25  26
ENDBRANCH  24  25
ENDBRANCH   1  19
TORSDOF 7
ENDMDL
MODEL 7
REMARK VINA RESULT:      -8.5      1.462      7.103
REMARK  Name = 5243
REMARK  7 active torsions:
REMARK  status: ('A' for Active; 'I' for Inactive)
REMARK    1  A    between atoms: C_1  and  C_3
REMARK    2  A    between atoms: C_1  and  C_8
REMARK    3  A    between atoms: C_1  and  C_19
REMARK    4  A    between atoms: C_13  and  O_14
REMARK    5  A    between atoms: O_14  and  S_15
REMARK    6  A    between atoms: C_24  and  O_25
REMARK    7  A    between atoms: O_25  and  S_26
REMARK                            x       y       z     vdW  Elec       q    Type
REMARK                         _______ _______ _______ _____ _____    ______ ____
ROOT
ATOM      1  C   UNL     1      34.180 -24.264 -14.684  0.00  0.00    +0.085 C 
ENDROOT
BRANCH   1   3
ATOM      2  N   UNL     1      34.178 -23.805 -12.307  0.00  0.00    -0.248 NA
ATOM      3  C   UNL     1      34.814 -24.441 -13.286  0.00  0.00    +0.067 C 
ATOM      4  C   UNL     1      35.933 -25.209 -13.199  0.00  0.00    +0.015 C 
ATOM      5  C   UNL     1      36.479 -25.349 -11.927  0.00  0.00    +0.003 C 
ATOM      6  C   UNL     1      34.738 -23.963 -11.086  0.00  0.00    +0.098 C 
ATOM      7  C   UNL     1      35.876 -24.716 -10.846  0.00  0.00    +0.021 C 
ENDBRANCH   1   3
BRANCH   1   8
ATOM      8  C   UNL     1      34.907 -23.348 -15.610  0.00  0.00    -0.013 C 
ATOM      9  C   UNL     1      36.063 -22.696 -15.182  0.00  0.00    -0.000 C 
ATOM     10  C   UNL     1      34.429 -23.144 -16.905  0.00  0.00    -0.000 C 
ATOM     11  C   UNL     1      36.741 -21.839 -16.049  0.00  0.00    +0.040 C 
ATOM     12  C   UNL     1      35.109 -22.287 -17.772  0.00  0.00    +0.040 C 
ATOM     13  C   UNL     1      36.265 -21.634 -17.343  0.00  0.00    +0.176 C 
BRANCH  13  14
ATOM     14  O   UNL     1      36.928 -20.798 -18.188  0.00  0.00    -0.322 OA
BRANCH  14  15
ATOM     15  S   UNL     1      36.364 -20.604 -19.721  0.00  0.00    +0.282 S 
ATOM     16  O   UNL     1      37.248 -19.363 -20.307  0.00  0.00    -0.105 OA
ATOM     17  O   UNL     1      36.688 -21.787 -20.496  0.00  0.00    -0.012 OA
ATOM     18  O   UNL     1      34.988 -20.151 -19.629  0.00  0.00    -0.105 OA
ENDBRANCH  14  15
ENDBRANCH  13  14
ENDBRANCH   1   8
BRANCH   1  19
ATOM     19  C   UNL     1      32.649 -24.064 -14.616  0.00  0.00    -0.013 C 
ATOM     20  C   UNL     1      31.862 -25.175 -14.472  0.00  0.00    -0.000 C 
ATOM     21  C   UNL     1      32.162 -22.788 -14.705  0.00  0.00    -0.000 C 
ATOM     22  C   UNL     1      30.480 -24.995 -14.412  0.00  0.00    +0.040 C 
ATOM     23  C   UNL     1      30.780 -22.608 -14.644  0.00  0.00    +0.040 C 
ATOM     24  C   UNL     1      29.939 -23.712 -14.497  0.00  0.00    +0.176 C 
BRANCH  24  25
ATOM     25  O   UNL     1      28.590 -23.537 -14.439  0.00  0.00    -0.322 OA
BRANCH  25  26
ATOM     26  S   UNL     1      27.766 -23.224 -15.827  0.00  0.00    +0.282 S 
ATOM     27  O   UNL     1      28.656 -22.066 -16.556  0.00  0.00    -0.105 OA
ATOM     28  O   UNL     1      27.795 -24.405 -16.670  0.00  0.00    -0.012 OA
ATOM     29  O   UNL     1      26.495 -22.628 -15.460  0.00  0.00    -0.105 OA
ENDBRANCH  25  26
ENDBRANCH  24  25
ENDBRANCH   1  19
TORSDOF 7
ENDMDL
MODEL 8
REMARK VINA RESULT:      -8.3     14.851     18.460
REMARK  Name = 5243
REMARK  7 active torsions:
REMARK  status: ('A' for Active; 'I' for Inactive)
REMARK    1  A    between atoms: C_1  and  C_3
REMARK    2  A    between atoms: C_1  and  C_8
REMARK    3  A    between atoms: C_1  and  C_19
REMARK    4  A    between atoms: C_13  and  O_14
REMARK    5  A    between atoms: O_14  and  S_15
REMARK    6  A    between atoms: C_24  and  O_25
REMARK    7  A    between atoms: O_25  and  S_26
REMARK                            x       y       z     vdW  Elec       q    Type
REMARK                         _______ _______ _______ _____ _____    ______ ____
ROOT
ATOM      1  C   UNL     1      34.121  -7.048 -23.126  0.00  0.00    +0.085 C 
ENDROOT
BRANCH   1   3
ATOM      2  N   UNL     1      33.346  -7.096 -20.833  0.00  0.00    -0.248 NA
ATOM      3  C   UNL     1      33.075  -6.657 -22.058  0.00  0.00    +0.067 C 
ATOM      4  C   UNL     1      32.007  -5.921 -22.468  0.00  0.00    +0.015 C 
ATOM      5  C   UNL     1      31.084  -5.586 -21.483  0.00  0.00    +0.003 C 
ATOM      6  C   UNL     1      32.426  -6.752 -19.903  0.00  0.00    +0.098 C 
ATOM      7  C   UNL     1      31.290  -6.006 -20.174  0.00  0.00    +0.021 C 
ENDBRANCH   1   3
BRANCH   1   8
ATOM      8  C   UNL     1      34.234  -6.120 -24.288  0.00  0.00    -0.013 C 
ATOM      9  C   UNL     1      35.486  -5.827 -24.828  0.00  0.00    -0.000 C 
ATOM     10  C   UNL     1      33.086  -5.544 -24.833  0.00  0.00    -0.000 C 
ATOM     11  C   UNL     1      35.590  -4.959 -25.914  0.00  0.00    +0.040 C 
ATOM     12  C   UNL     1      33.191  -4.675 -25.920  0.00  0.00    +0.040 C 
ATOM     13  C   UNL     1      34.444  -4.382 -26.460  0.00  0.00    +0.176 C 
BRANCH  13  14
ATOM     14  O   UNL     1      34.547  -3.535 -27.520  0.00  0.00    -0.322 OA
BRANCH  14  15
ATOM     15  S   UNL     1      34.882  -4.154 -29.006  0.00  0.00    +0.282 S 
ATOM     16  O   UNL     1      35.021  -2.834 -29.957  0.00  0.00    -0.105 OA
ATOM     17  O   UNL     1      36.174  -4.811 -28.963  0.00  0.00    -0.012 OA
ATOM     18  O   UNL     1      33.710  -4.887 -29.451  0.00  0.00    -0.105 OA
ENDBRANCH  14  15
ENDBRANCH  13  14
ENDBRANCH   1   8
BRANCH   1  19
ATOM     19  C   UNL     1      34.072  -8.553 -23.477  0.00  0.00    -0.013 C 
ATOM     20  C   UNL     1      32.981  -9.272 -23.068  0.00  0.00    -0.000 C 
ATOM     21  C   UNL     1      35.120  -9.084 -24.177  0.00  0.00    -0.000 C 
ATOM     22  C   UNL     1      32.936 -10.630 -23.385  0.00  0.00    +0.040 C 
ATOM     23  C   UNL     1      35.075 -10.442 -24.494  0.00  0.00    +0.040 C 
ATOM     24  C   UNL     1      33.983 -11.215 -24.098  0.00  0.00    +0.176 C 
BRANCH  24  25
ATOM     25  O   UNL     1      33.939 -12.540 -24.406  0.00  0.00    -0.322 OA
BRANCH  25  26
ATOM     26  S   UNL     1      33.624 -13.626 -23.211  0.00  0.00    +0.282 S 
ATOM     27  O   UNL     1      33.625 -15.065 -23.981  0.00  0.00    -0.105 OA
ATOM     28  O   UNL     1      34.728 -13.623 -22.268  0.00  0.00    -0.012 OA
ATOM     29  O   UNL     1      32.272 -13.385 -22.742  0.00  0.00    -0.105 OA
ENDBRANCH  25  26
ENDBRANCH  24  25
ENDBRANCH   1  19
TORSDOF 7
ENDMDL
MODEL 9
REMARK VINA RESULT:      -8.1     14.783     18.397
REMARK  Name = 5243
REMARK  7 active torsions:
REMARK  status: ('A' for Active; 'I' for Inactive)
REMARK    1  A    between atoms: C_1  and  C_3
REMARK    2  A    between atoms: C_1  and  C_8
REMARK    3  A    between atoms: C_1  and  C_19
REMARK    4  A    between atoms: C_13  and  O_14
REMARK    5  A    between atoms: O_14  and  S_15
REMARK    6  A    between atoms: C_24  and  O_25
REMARK    7  A    between atoms: O_25  and  S_26
REMARK                            x       y       z     vdW  Elec       q    Type
REMARK                         _______ _______ _______ _____ _____    ______ ____
ROOT
ATOM      1  C   UNL     1      34.211  -7.147 -23.139  0.00  0.00    +0.085 C 
ENDROOT
BRANCH   1   3
ATOM      2  N   UNL     1      33.456  -7.340 -20.847  0.00  0.00    -0.248 NA
ATOM      3  C   UNL     1      33.227  -6.750 -22.016  0.00  0.00    +0.067 C 
ATOM      4  C   UNL     1      32.248  -5.859 -22.327  0.00  0.00    +0.015 C 
ATOM      5  C   UNL     1      31.379  -5.523 -21.294  0.00  0.00    +0.003 C 
ATOM      6  C   UNL     1      32.591  -6.991 -19.868  0.00  0.00    +0.098 C 
ATOM      7  C   UNL     1      31.547  -6.096 -20.039  0.00  0.00    +0.021 C 
ENDBRANCH   1   3
BRANCH   1   8
ATOM      8  C   UNL     1      34.289  -6.202 -24.291  0.00  0.00    -0.013 C 
ATOM      9  C   UNL     1      33.120  -5.706 -24.866  0.00  0.00    -0.000 C 
ATOM     10  C   UNL     1      35.532  -5.817 -24.793  0.00  0.00    -0.000 C 
ATOM     11  C   UNL     1      33.193  -4.824 -25.944  0.00  0.00    +0.040 C 
ATOM     12  C   UNL     1      35.606  -4.934 -25.871  0.00  0.00    +0.040 C 
ATOM     13  C   UNL     1      34.436  -4.438 -26.447  0.00  0.00    +0.176 C 
BRANCH  13  14
ATOM     14  O   UNL     1      34.507  -3.578 -27.498  0.00  0.00    -0.322 OA
BRANCH  14  15
ATOM     15  S   UNL     1      34.945  -4.157 -28.974  0.00  0.00    +0.282 S 
ATOM     16  O   UNL     1      35.179  -2.812 -29.868  0.00  0.00    -0.105 OA
ATOM     17  O   UNL     1      36.219  -4.840 -28.853  0.00  0.00    -0.012 OA
ATOM     18  O   UNL     1      33.799  -4.854 -29.530  0.00  0.00    -0.105 OA
ENDBRANCH  14  15
ENDBRANCH  13  14
ENDBRANCH   1   8
BRANCH   1  19
ATOM     19  C   UNL     1      34.110  -8.644 -23.510  0.00  0.00    -0.013 C 
ATOM     20  C   UNL     1      32.986  -9.326 -23.128  0.00  0.00    -0.000 C 
ATOM     21  C   UNL     1      35.148  -9.207 -24.201  0.00  0.00    -0.000 C 
ATOM     22  C   UNL     1      32.895 -10.677 -23.462  0.00  0.00    +0.040 C 
ATOM     23  C   UNL     1      35.057 -10.558 -24.535  0.00  0.00    +0.040 C 
ATOM     24  C   UNL     1      33.930 -11.294 -24.166  0.00  0.00    +0.176 C 
BRANCH  24  25
ATOM     25  O   UNL     1      33.840 -12.612 -24.492  0.00  0.00    -0.322 OA
BRANCH  25  26
ATOM     26  S   UNL     1      33.506 -13.704 -23.308  0.00  0.00    +0.282 S 
ATOM     27  O   UNL     1      34.753 -13.543 -22.266  0.00  0.00    -0.105 OA
ATOM     28  O   UNL     1      32.294 -13.299 -22.620  0.00  0.00    -0.012 OA
ATOM     29  O   UNL     1      33.598 -15.029 -23.893  0.00  0.00    -0.105 OA
ENDBRANCH  25  26
ENDBRANCH  24  25
ENDBRANCH   1  19
TORSDOF 7
ENDMDL
