MODEL 1
REMARK VINA RESULT:     -12.0      0.000      0.000
REMARK  Name = 17758361
REMARK  5 active torsions:
REMARK  status: ('A' for Active; 'I' for Inactive)
REMARK    1  A    between atoms: N_1  and  C_18
REMARK    2  A    between atoms: C_4  and  C_10
REMARK    3  A    between atoms: C_10  and  C_11
REMARK    4  A    between atoms: C_18  and  C_19
REMARK    5  A    between atoms: C_22  and  C_27
REMARK                            x       y       z     vdW  Elec       q    Type
REMARK                         _______ _______ _______ _____ _____    ______ ____
ROOT
ATOM      1  N   UNL     1      32.464 -22.447 -17.991  0.00  0.00    -0.314 N 
ATOM      2  N   UNL     1      30.537 -22.466 -16.640  0.00  0.00    -0.229 NA
ATOM      3  C   UNL     1      31.842 -22.781 -16.800  0.00  0.00    +0.129 C 
ATOM      4  C   UNL     1      31.998 -23.761 -14.639  0.00  0.00    +0.043 C 
ATOM      5  C   UNL     1      32.610 -23.421 -15.840  0.00  0.00    +0.037 C 
ATOM      6  C   UNL     1      30.656 -23.454 -14.437  0.00  0.00    +0.024 C 
ATOM      7  C   UNL     1      29.976 -22.812 -15.459  0.00  0.00    +0.100 C 
ATOM      8  H   UNL     1      31.931 -21.992 -18.682  0.00  0.00    +0.149 HD
ENDROOT
BRANCH   4  10
ATOM      9  O   UNL     1      32.172 -25.071 -12.709  0.00  0.00    -0.287 OA
ATOM     10  C   UNL     1      32.757 -24.433 -13.596  0.00  0.00    +0.196 C 
BRANCH  10  11
ATOM     11  C   UNL     1      34.250 -24.393 -13.541  0.00  0.00    +0.039 C 
ATOM     12  C   UNL     1      34.891 -23.736 -12.490  0.00  0.00    -0.001 C 
ATOM     13  C   UNL     1      36.284 -23.699 -12.438  0.00  0.00    -0.022 C 
ATOM     14  C   UNL     1      35.001 -25.013 -14.538  0.00  0.00    +0.003 C 
ATOM     15  C   UNL     1      37.037 -24.320 -13.436  0.00  0.00    -0.004 C 
ATOM     16  C   UNL     1      36.395 -24.977 -14.485  0.00  0.00    -0.000 C 
ATOM     17  C   UNL     1      36.971 -23.000 -11.314  0.00  0.00    +0.031 C 
ENDBRANCH  10  11
ENDBRANCH   4  10
BRANCH   1  18
ATOM     18  C   UNL     1      33.854 -22.730 -18.274  0.00  0.00    +0.115 C 
BRANCH  18  19
ATOM     19  C   UNL     1      34.451 -21.668 -19.136  0.00  0.00    -0.003 C 
ATOM     20  C   UNL     1      33.626 -20.868 -19.927  0.00  0.00    -0.003 C 
ATOM     21  C   UNL     1      35.832 -21.476 -19.151  0.00  0.00    -0.003 C 
ATOM     22  C   UNL     1      35.565 -19.684 -20.749  0.00  0.00    +0.031 C 
ATOM     23  C   UNL     1      34.184 -19.877 -20.734  0.00  0.00    +0.002 C 
ATOM     24  C   UNL     1      36.389 -20.484 -19.957  0.00  0.00    +0.002 C 
BRANCH  22  27
ATOM     25  N   UNL     1      37.517 -18.591 -21.826  0.00  0.00    -0.343 N 
ATOM     26  N   UNL     1      35.365 -17.739 -22.145  0.00  0.00    -0.285 NA
ATOM     27  C   UNL     1      36.145 -18.650 -21.590  0.00  0.00    +0.117 C 
ATOM     28  H   UNL     1      37.889 -17.882 -22.399  0.00  0.00    +0.144 HD
ATOM     29  H   UNL     1      38.115 -19.259 -21.419  0.00  0.00    +0.144 HD
ATOM     30  H   UNL     1      35.755 -17.038 -22.715  0.00  0.00    +0.188 HD
ENDBRANCH  22  27
ENDBRANCH  18  19
ENDBRANCH   1  18
TORSDOF 5
ENDMDL
MODEL 2
REMARK VINA RESULT:     -11.7      1.657      4.258
REMARK  Name = 17758361
REMARK  5 active torsions:
REMARK  status: ('A' for Active; 'I' for Inactive)
REMARK    1  A    between atoms: N_1  and  C_18
REMARK    2  A    between atoms: C_4  and  C_10
REMARK    3  A    between atoms: C_10  and  C_11
REMARK    4  A    between atoms: C_18  and  C_19
REMARK    5  A    between atoms: C_22  and  C_27
REMARK                            x       y       z     vdW  Elec       q    Type
REMARK                         _______ _______ _______ _____ _____    ______ ____
ROOT
ATOM      1  N   UNL     1      34.808 -22.869 -17.343  0.00  0.00    -0.314 N 
ATOM      2  N   UNL     1      35.864 -23.667 -15.397  0.00  0.00    -0.229 NA
ATOM      3  C   UNL     1      34.735 -23.251 -16.014  0.00  0.00    +0.129 C 
ATOM      4  C   UNL     1      33.408 -23.565 -14.067  0.00  0.00    +0.043 C 
ATOM      5  C   UNL     1      33.495 -23.182 -15.400  0.00  0.00    +0.037 C 
ATOM      6  C   UNL     1      34.547 -23.999 -13.397  0.00  0.00    +0.024 C 
ATOM      7  C   UNL     1      35.740 -24.032 -14.101  0.00  0.00    +0.100 C 
ATOM      8  H   UNL     1      35.683 -22.912 -17.792  0.00  0.00    +0.149 HD
ENDROOT
BRANCH   4  10
ATOM      9  O   UNL     1      32.067 -23.095 -12.208  0.00  0.00    -0.287 OA
ATOM     10  C   UNL     1      32.130 -23.513 -13.373  0.00  0.00    +0.196 C 
BRANCH  10  11
ATOM     11  C   UNL     1      30.853 -23.951 -14.014  0.00  0.00    +0.039 C 
ATOM     12  C   UNL     1      30.044 -23.019 -14.666  0.00  0.00    -0.001 C 
ATOM     13  C   UNL     1      28.853 -23.428 -15.265  0.00  0.00    -0.022 C 
ATOM     14  C   UNL     1      30.471 -25.291 -13.962  0.00  0.00    +0.003 C 
ATOM     15  C   UNL     1      28.471 -24.769 -15.214  0.00  0.00    -0.004 C 
ATOM     16  C   UNL     1      29.280 -25.700 -14.563  0.00  0.00    -0.000 C 
ATOM     17  C   UNL     1      27.990 -22.434 -15.965  0.00  0.00    +0.031 C 
ENDBRANCH  10  11
ENDBRANCH   4  10
BRANCH   1  18
ATOM     18  C   UNL     1      33.669 -22.408 -18.106  0.00  0.00    +0.115 C 
BRANCH  18  19
ATOM     19  C   UNL     1      34.092 -21.467 -19.183  0.00  0.00    -0.003 C 
ATOM     20  C   UNL     1      33.133 -20.765 -19.912  0.00  0.00    -0.003 C 
ATOM     21  C   UNL     1      35.448 -21.291 -19.463  0.00  0.00    -0.003 C 
ATOM     22  C   UNL     1      34.883 -19.710 -21.200  0.00  0.00    +0.031 C 
ATOM     23  C   UNL     1      33.528 -19.887 -20.921  0.00  0.00    +0.002 C 
ATOM     24  C   UNL     1      35.843 -20.412 -20.471  0.00  0.00    +0.002 C 
BRANCH  22  27
ATOM     25  N   UNL     1      36.575 -18.245 -22.275  0.00  0.00    -0.343 N 
ATOM     26  N   UNL     1      34.443 -18.465 -23.207  0.00  0.00    -0.285 NA
ATOM     27  C   UNL     1      35.294 -18.794 -22.251  0.00  0.00    +0.117 C 
ATOM     28  H   UNL     1      36.833 -17.626 -22.997  0.00  0.00    +0.144 HD
ATOM     29  H   UNL     1      37.223 -18.475 -21.570  0.00  0.00    +0.144 HD
ATOM     30  H   UNL     1      34.720 -17.845 -23.920  0.00  0.00    +0.188 HD
ENDBRANCH  22  27
ENDBRANCH  18  19
ENDBRANCH   1  18
TORSDOF 5
ENDMDL
MODEL 3
REMARK VINA RESULT:     -11.2      2.245      3.096
REMARK  Name = 17758361
REMARK  5 active torsions:
REMARK  status: ('A' for Active; 'I' for Inactive)
REMARK    1  A    between atoms: N_1  and  C_18
REMARK    2  A    between atoms: C_4  and  C_10
REMARK    3  A    between atoms: C_10  and  C_11
REMARK    4  A    between atoms: C_18  and  C_19
REMARK    5  A    between atoms: C_22  and  C_27
REMARK                            x       y       z     vdW  Elec       q    Type
REMARK                         _______ _______ _______ _____ _____    ______ ____
ROOT
ATOM      1  N   UNL     1      34.722 -21.699 -19.142  0.00  0.00    -0.314 N 
ATOM      2  N   UNL     1      33.358 -22.837 -17.597  0.00  0.00    -0.229 NA
ATOM      3  C   UNL     1      34.562 -22.305 -17.907  0.00  0.00    +0.129 C 
ATOM      4  C   UNL     1      35.512 -22.927 -15.818  0.00  0.00    +0.043 C 
ATOM      5  C   UNL     1      35.660 -22.323 -17.062  0.00  0.00    +0.037 C 
ATOM      6  C   UNL     1      34.289 -23.486 -15.463  0.00  0.00    +0.024 C 
ATOM      7  C   UNL     1      33.253 -23.416 -16.380  0.00  0.00    +0.100 C 
ATOM      8  H   UNL     1      33.951 -21.680 -19.753  0.00  0.00    +0.149 HD
ENDROOT
BRANCH   4  10
ATOM      9  O   UNL     1      37.542 -22.136 -14.966  0.00  0.00    -0.287 OA
ATOM     10  C   UNL     1      36.632 -22.974 -14.891  0.00  0.00    +0.196 C 
BRANCH  10  11
ATOM     11  C   UNL     1      36.743 -24.012 -13.821  0.00  0.00    +0.039 C 
ATOM     12  C   UNL     1      36.217 -23.765 -12.552  0.00  0.00    -0.001 C 
ATOM     13  C   UNL     1      36.319 -24.734 -11.555  0.00  0.00    -0.022 C 
ATOM     14  C   UNL     1      37.370 -25.227 -14.092  0.00  0.00    +0.003 C 
ATOM     15  C   UNL     1      36.947 -25.951 -11.826  0.00  0.00    -0.004 C 
ATOM     16  C   UNL     1      37.471 -26.197 -13.094  0.00  0.00    -0.000 C 
ATOM     17  C   UNL     1      35.755 -24.472 -10.199  0.00  0.00    +0.031 C 
ENDBRANCH  10  11
ENDBRANCH   4  10
BRANCH   1  18
ATOM     18  C   UNL     1      35.961 -21.095 -19.582  0.00  0.00    +0.115 C 
BRANCH  18  19
ATOM     19  C   UNL     1      35.708 -20.058 -20.624  0.00  0.00    -0.003 C 
ATOM     20  C   UNL     1      34.472 -20.005 -21.269  0.00  0.00    -0.003 C 
ATOM     21  C   UNL     1      36.708 -19.143 -20.955  0.00  0.00    -0.003 C 
ATOM     22  C   UNL     1      35.235 -18.121 -22.575  0.00  0.00    +0.031 C 
ATOM     23  C   UNL     1      34.236 -19.036 -22.244  0.00  0.00    +0.002 C 
ATOM     24  C   UNL     1      36.471 -18.175 -21.930  0.00  0.00    +0.002 C 
BRANCH  22  27
ATOM     25  N   UNL     1      34.185 -17.379 -24.699  0.00  0.00    -0.343 N 
ATOM     26  N   UNL     1      35.533 -15.914 -23.476  0.00  0.00    -0.285 NA
ATOM     27  C   UNL     1      34.988 -17.112 -23.592  0.00  0.00    +0.117 C 
ATOM     28  H   UNL     1      34.031 -16.681 -25.376  0.00  0.00    +0.144 HD
ATOM     29  H   UNL     1      33.772 -18.267 -24.805  0.00  0.00    +0.144 HD
ATOM     30  H   UNL     1      35.367 -15.229 -24.163  0.00  0.00    +0.188 HD
ENDBRANCH  22  27
ENDBRANCH  18  19
ENDBRANCH   1  18
TORSDOF 5
ENDMDL
MODEL 4
REMARK VINA RESULT:     -11.1     10.851     15.731
REMARK  Name = 17758361
REMARK  5 active torsions:
REMARK  status: ('A' for Active; 'I' for Inactive)
REMARK    1  A    between atoms: N_1  and  C_18
REMARK    2  A    between atoms: C_4  and  C_10
REMARK    3  A    between atoms: C_10  and  C_11
REMARK    4  A    between atoms: C_18  and  C_19
REMARK    5  A    between atoms: C_22  and  C_27
REMARK                            x       y       z     vdW  Elec       q    Type
REMARK                         _______ _______ _______ _____ _____    ______ ____
ROOT
ATOM      1  N   UNL     1      31.706 -10.816 -20.218  0.00  0.00    -0.314 N 
ATOM      2  N   UNL     1      32.302  -8.820 -19.122  0.00  0.00    -0.229 NA
ATOM      3  C   UNL     1      31.921  -9.448 -20.257  0.00  0.00    +0.129 C 
ATOM      4  C   UNL     1      31.937  -7.436 -21.523  0.00  0.00    +0.043 C 
ATOM      5  C   UNL     1      31.726  -8.809 -21.471  0.00  0.00    +0.037 C 
ATOM      6  C   UNL     1      32.330  -6.754 -20.377  0.00  0.00    +0.024 C 
ATOM      7  C   UNL     1      32.497  -7.485 -19.212  0.00  0.00    +0.100 C 
ATOM      8  H   UNL     1      31.841 -11.283 -19.363  0.00  0.00    +0.149 HD
ENDROOT
BRANCH   4  10
ATOM      9  O   UNL     1      30.605  -6.429 -23.162  0.00  0.00    -0.287 OA
ATOM     10  C   UNL     1      31.747  -6.714 -22.772  0.00  0.00    +0.196 C 
BRANCH  10  11
ATOM     11  C   UNL     1      32.892  -6.288 -23.632  0.00  0.00    +0.039 C 
ATOM     12  C   UNL     1      32.680  -5.396 -24.684  0.00  0.00    -0.001 C 
ATOM     13  C   UNL     1      33.748  -4.997 -25.486  0.00  0.00    -0.022 C 
ATOM     14  C   UNL     1      34.172  -6.780 -23.383  0.00  0.00    +0.003 C 
ATOM     15  C   UNL     1      35.030  -5.490 -25.237  0.00  0.00    -0.004 C 
ATOM     16  C   UNL     1      35.241  -6.381 -24.185  0.00  0.00    -0.000 C 
ATOM     17  C   UNL     1      33.523  -4.041 -26.609  0.00  0.00    +0.031 C 
ENDBRANCH  10  11
ENDBRANCH   4  10
BRANCH   1  18
ATOM     18  C   UNL     1      31.295 -11.594 -21.366  0.00  0.00    +0.115 C 
BRANCH  18  19
ATOM     19  C   UNL     1      32.247 -12.714 -21.621  0.00  0.00    -0.003 C 
ATOM     20  C   UNL     1      32.610 -13.036 -22.928  0.00  0.00    -0.003 C 
ATOM     21  C   UNL     1      32.772 -13.440 -20.551  0.00  0.00    -0.003 C 
ATOM     22  C   UNL     1      34.024 -14.810 -22.098  0.00  0.00    +0.031 C 
ATOM     23  C   UNL     1      33.499 -14.084 -23.166  0.00  0.00    +0.002 C 
ATOM     24  C   UNL     1      33.661 -14.488 -20.790  0.00  0.00    +0.002 C 
BRANCH  22  27
ATOM     25  N   UNL     1      35.157 -16.909 -21.405  0.00  0.00    -0.343 N 
ATOM     26  N   UNL     1      35.619 -15.951 -23.486  0.00  0.00    -0.285 NA
ATOM     27  C   UNL     1      34.951 -15.903 -22.347  0.00  0.00    +0.117 C 
ATOM     28  H   UNL     1      35.789 -17.640 -21.595  0.00  0.00    +0.144 HD
ATOM     29  H   UNL     1      34.670 -16.889 -20.549  0.00  0.00    +0.144 HD
ATOM     30  H   UNL     1      36.247 -16.690 -23.658  0.00  0.00    +0.188 HD
ENDBRANCH  22  27
ENDBRANCH  18  19
ENDBRANCH   1  18
TORSDOF 5
ENDMDL
MODEL 5
REMARK VINA RESULT:     -11.1      3.873     10.022
REMARK  Name = 17758361
REMARK  5 active torsions:
REMARK  status: ('A' for Active; 'I' for Inactive)
REMARK    1  A    between atoms: N_1  and  C_18
REMARK    2  A    between atoms: C_4  and  C_10
REMARK    3  A    between atoms: C_10  and  C_11
REMARK    4  A    between atoms: C_18  and  C_19
REMARK    5  A    between atoms: C_22  and  C_27
REMARK                            x       y       z     vdW  Elec       q    Type
REMARK                         _______ _______ _______ _____ _____    ______ ____
ROOT
ATOM      1  N   UNL     1      35.609 -21.050 -19.264  0.00  0.00    -0.314 N 
ATOM      2  N   UNL     1      37.208 -19.549 -20.116  0.00  0.00    -0.229 NA
ATOM      3  C   UNL     1      35.995 -20.134 -20.227  0.00  0.00    +0.129 C 
ATOM      4  C   UNL     1      35.473 -18.955 -22.225  0.00  0.00    +0.043 C 
ATOM      5  C   UNL     1      35.099 -19.874 -21.252  0.00  0.00    +0.037 C 
ATOM      6  C   UNL     1      36.714 -18.332 -22.146  0.00  0.00    +0.024 C 
ATOM      7  C   UNL     1      37.538 -18.660 -21.081  0.00  0.00    +0.100 C 
ATOM      8  H   UNL     1      36.236 -21.245 -18.530  0.00  0.00    +0.149 HD
ENDROOT
BRANCH   4  10
ATOM      9  O   UNL     1      34.034 -19.556 -23.968  0.00  0.00    -0.287 OA
ATOM     10  C   UNL     1      34.570 -18.645 -23.323  0.00  0.00    +0.196 C 
BRANCH  10  11
ATOM     11  C   UNL     1      34.249 -17.241 -23.722  0.00  0.00    +0.039 C 
ATOM     12  C   UNL     1      34.431 -16.198 -22.813  0.00  0.00    -0.001 C 
ATOM     13  C   UNL     1      34.132 -14.888 -23.186  0.00  0.00    -0.022 C 
ATOM     14  C   UNL     1      33.769 -16.973 -25.004  0.00  0.00    +0.003 C 
ATOM     15  C   UNL     1      33.652 -14.620 -24.469  0.00  0.00    -0.004 C 
ATOM     16  C   UNL     1      33.471 -15.663 -25.377  0.00  0.00    -0.000 C 
ATOM     17  C   UNL     1      34.329 -13.772 -22.216  0.00  0.00    +0.031 C 
ENDBRANCH  10  11
ENDBRANCH   4  10
BRANCH   1  18
ATOM     18  C   UNL     1      34.336 -21.737 -19.277  0.00  0.00    +0.115 C 
BRANCH  18  19
ATOM     19  C   UNL     1      34.019 -22.301 -17.932  0.00  0.00    -0.003 C 
ATOM     20  C   UNL     1      35.043 -22.525 -17.012  0.00  0.00    -0.003 C 
ATOM     21  C   UNL     1      32.700 -22.605 -17.596  0.00  0.00    -0.003 C 
ATOM     22  C   UNL     1      33.429 -23.357 -15.419  0.00  0.00    +0.031 C 
ATOM     23  C   UNL     1      34.748 -23.053 -15.756  0.00  0.00    +0.002 C 
ATOM     24  C   UNL     1      32.405 -23.133 -16.340  0.00  0.00    +0.002 C 
BRANCH  22  27
ATOM     25  N   UNL     1      32.261 -23.255 -13.231  0.00  0.00    -0.343 N 
ATOM     26  N   UNL     1      33.670 -25.050 -13.731  0.00  0.00    -0.285 NA
ATOM     27  C   UNL     1      33.123 -23.908 -14.109  0.00  0.00    +0.117 C 
ATOM     28  H   UNL     1      32.067 -23.646 -12.348  0.00  0.00    +0.144 HD
ATOM     29  H   UNL     1      31.845 -22.401 -13.493  0.00  0.00    +0.144 HD
ATOM     30  H   UNL     1      33.463 -25.426 -12.845  0.00  0.00    +0.188 HD
ENDBRANCH  22  27
ENDBRANCH  18  19
ENDBRANCH   1  18
TORSDOF 5
ENDMDL
MODEL 6
REMARK VINA RESULT:     -11.0      5.320      9.100
REMARK  Name = 17758361
REMARK  5 active torsions:
REMARK  status: ('A' for Active; 'I' for Inactive)
REMARK    1  A    between atoms: N_1  and  C_18
REMARK    2  A    between atoms: C_4  and  C_10
REMARK    3  A    between atoms: C_10  and  C_11
REMARK    4  A    between atoms: C_18  and  C_19
REMARK    5  A    between atoms: C_22  and  C_27
REMARK                            x       y       z     vdW  Elec       q    Type
REMARK                         _______ _______ _______ _____ _____    ______ ____
ROOT
ATOM      1  N   UNL     1      34.192 -15.397 -24.482  0.00  0.00    -0.314 N 
ATOM      2  N   UNL     1      33.516 -17.579 -25.049  0.00  0.00    -0.229 NA
ATOM      3  C   UNL     1      34.218 -16.759 -24.236  0.00  0.00    +0.129 C 
ATOM      4  C   UNL     1      35.002 -18.560 -22.896  0.00  0.00    +0.043 C 
ATOM      5  C   UNL     1      34.969 -17.195 -23.156  0.00  0.00    +0.037 C 
ATOM      6  C   UNL     1      34.293 -19.435 -23.711  0.00  0.00    +0.024 C 
ATOM      7  C   UNL     1      33.572 -18.899 -24.765  0.00  0.00    +0.100 C 
ATOM      8  H   UNL     1      33.663 -15.073 -25.247  0.00  0.00    +0.149 HD
ENDROOT
BRANCH   4  10
ATOM      9  O   UNL     1      36.969 -18.764 -21.645  0.00  0.00    -0.287 OA
ATOM     10  C   UNL     1      35.775 -19.072 -21.774  0.00  0.00    +0.196 C 
BRANCH  10  11
ATOM     11  C   UNL     1      35.184 -19.976 -20.741  0.00  0.00    +0.039 C 
ATOM     12  C   UNL     1      36.010 -20.603 -19.808  0.00  0.00    -0.001 C 
ATOM     13  C   UNL     1      35.459 -21.446 -18.844  0.00  0.00    -0.022 C 
ATOM     14  C   UNL     1      33.807 -20.190 -20.709  0.00  0.00    +0.003 C 
ATOM     15  C   UNL     1      34.080 -21.661 -18.811  0.00  0.00    -0.004 C 
ATOM     16  C   UNL     1      33.255 -21.033 -19.743  0.00  0.00    -0.000 C 
ATOM     17  C   UNL     1      36.341 -22.114 -17.844  0.00  0.00    +0.031 C 
ENDBRANCH  10  11
ENDBRANCH   4  10
BRANCH   1  18
ATOM     18  C   UNL     1      34.901 -14.425 -23.680  0.00  0.00    +0.115 C 
BRANCH  18  19
ATOM     19  C   UNL     1      33.954 -13.622 -22.853  0.00  0.00    -0.003 C 
ATOM     20  C   UNL     1      33.551 -12.358 -23.285  0.00  0.00    -0.003 C 
ATOM     21  C   UNL     1      33.473 -14.134 -21.648  0.00  0.00    -0.003 C 
ATOM     22  C   UNL     1      32.185 -12.118 -21.307  0.00  0.00    +0.031 C 
ATOM     23  C   UNL     1      32.667 -11.607 -22.512  0.00  0.00    +0.002 C 
ATOM     24  C   UNL     1      32.589 -13.381 -20.875  0.00  0.00    +0.002 C 
BRANCH  22  27
ATOM     25  N   UNL     1      31.629 -10.844 -19.249  0.00  0.00    -0.343 N 
ATOM     26  N   UNL     1      30.049 -11.076 -20.955  0.00  0.00    -0.285 NA
ATOM     27  C   UNL     1      31.263 -11.333 -20.502  0.00  0.00    +0.117 C 
ATOM     28  H   UNL     1      30.989 -10.315 -18.721  0.00  0.00    +0.144 HD
ATOM     29  H   UNL     1      32.529 -11.028 -18.893  0.00  0.00    +0.144 HD
ATOM     30  H   UNL     1      29.423 -10.544 -20.412  0.00  0.00    +0.188 HD
ENDBRANCH  22  27
ENDBRANCH  18  19
ENDBRANCH   1  18
TORSDOF 5
ENDMDL
MODEL 7
REMARK VINA RESULT:     -11.0      1.807      4.239
REMARK  Name = 17758361
REMARK  5 active torsions:
REMARK  status: ('A' for Active; 'I' for Inactive)
REMARK    1  A    between atoms: N_1  and  C_18
REMARK    2  A    between atoms: C_4  and  C_10
REMARK    3  A    between atoms: C_10  and  C_11
REMARK    4  A    between atoms: C_18  and  C_19
REMARK    5  A    between atoms: C_22  and  C_27
REMARK                            x       y       z     vdW  Elec       q    Type
REMARK                         _______ _______ _______ _____ _____    ______ ____
ROOT
ATOM      1  N   UNL     1      35.768 -22.434 -17.178  0.00  0.00    -0.314 N 
ATOM      2  N   UNL     1      37.083 -22.830 -15.267  0.00  0.00    -0.229 NA
ATOM      3  C   UNL     1      35.869 -22.850 -15.862  0.00  0.00    +0.129 C 
ATOM      4  C   UNL     1      34.793 -23.689 -13.914  0.00  0.00    +0.043 C 
ATOM      5  C   UNL     1      34.705 -23.266 -15.236  0.00  0.00    +0.037 C 
ATOM      6  C   UNL     1      36.025 -23.682 -13.268  0.00  0.00    +0.024 C 
ATOM      7  C   UNL     1      37.130 -23.247 -13.982  0.00  0.00    +0.100 C 
ATOM      8  H   UNL     1      36.587 -22.134 -17.636  0.00  0.00    +0.149 HD
ENDROOT
BRANCH   4  10
ATOM      9  O   UNL     1      33.702 -24.708 -12.114  0.00  0.00    -0.287 OA
ATOM     10  C   UNL     1      33.603 -24.137 -13.209  0.00  0.00    +0.196 C 
BRANCH  10  11
ATOM     11  C   UNL     1      32.226 -23.938 -13.756  0.00  0.00    +0.039 C 
ATOM     12  C   UNL     1      31.341 -25.014 -13.826  0.00  0.00    -0.001 C 
ATOM     13  C   UNL     1      30.056 -24.828 -14.336  0.00  0.00    -0.022 C 
ATOM     14  C   UNL     1      31.826 -22.676 -14.194  0.00  0.00    +0.003 C 
ATOM     15  C   UNL     1      29.656 -23.565 -14.774  0.00  0.00    -0.004 C 
ATOM     16  C   UNL     1      30.541 -22.490 -14.703  0.00  0.00    -0.000 C 
ATOM     17  C   UNL     1      29.108 -25.977 -14.408  0.00  0.00    +0.031 C 
ENDBRANCH  10  11
ENDBRANCH   4  10
BRANCH   1  18
ATOM     18  C   UNL     1      34.525 -22.414 -17.918  0.00  0.00    +0.115 C 
BRANCH  18  19
ATOM     19  C   UNL     1      34.605 -21.472 -19.072  0.00  0.00    -0.003 C 
ATOM     20  C   UNL     1      35.849 -21.074 -19.561  0.00  0.00    -0.003 C 
ATOM     21  C   UNL     1      33.436 -20.989 -19.661  0.00  0.00    -0.003 C 
ATOM     22  C   UNL     1      34.756 -19.710 -21.229  0.00  0.00    +0.031 C 
ATOM     23  C   UNL     1      35.924 -20.193 -20.639  0.00  0.00    +0.002 C 
ATOM     24  C   UNL     1      33.512 -20.108 -20.740  0.00  0.00    +0.002 C 
BRANCH  22  27
ATOM     25  N   UNL     1      35.892 -17.891 -22.481  0.00  0.00    -0.343 N 
ATOM     26  N   UNL     1      33.892 -18.798 -23.277  0.00  0.00    -0.285 NA
ATOM     27  C   UNL     1      34.836 -18.791 -22.353  0.00  0.00    +0.117 C 
ATOM     28  H   UNL     1      35.927 -17.278 -23.250  0.00  0.00    +0.144 HD
ATOM     29  H   UNL     1      36.605 -17.868 -21.801  0.00  0.00    +0.144 HD
ATOM     30  H   UNL     1      33.944 -18.178 -24.039  0.00  0.00    +0.188 HD
ENDBRANCH  22  27
ENDBRANCH  18  19
ENDBRANCH   1  18
TORSDOF 5
ENDMDL
MODEL 8
REMARK VINA RESULT:     -11.0      6.244      9.993
REMARK  Name = 17758361
REMARK  5 active torsions:
REMARK  status: ('A' for Active; 'I' for Inactive)
REMARK    1  A    between atoms: N_1  and  C_18
REMARK    2  A    between atoms: C_4  and  C_10
REMARK    3  A    between atoms: C_10  and  C_11
REMARK    4  A    between atoms: C_18  and  C_19
REMARK    5  A    between atoms: C_22  and  C_27
REMARK                            x       y       z     vdW  Elec       q    Type
REMARK                         _______ _______ _______ _____ _____    ______ ____
ROOT
ATOM      1  N   UNL     1      33.682 -14.689 -24.037  0.00  0.00    -0.314 N 
ATOM      2  N   UNL     1      33.127 -16.704 -25.119  0.00  0.00    -0.229 NA
ATOM      3  C   UNL     1      33.793 -16.066 -24.131  0.00  0.00    +0.129 C 
ATOM      4  C   UNL     1      34.706 -18.086 -23.273  0.00  0.00    +0.043 C 
ATOM      5  C   UNL     1      34.588 -16.704 -23.192  0.00  0.00    +0.037 C 
ATOM      6  C   UNL     1      34.036 -18.779 -24.276  0.00  0.00    +0.024 C 
ATOM      7  C   UNL     1      33.266 -18.048 -25.166  0.00  0.00    +0.100 C 
ATOM      8  H   UNL     1      33.122 -14.222 -24.698  0.00  0.00    +0.149 HD
ENDROOT
BRANCH   4  10
ATOM      9  O   UNL     1      36.762 -18.715 -22.351  0.00  0.00    -0.287 OA
ATOM     10  C   UNL     1      35.527 -18.807 -22.312  0.00  0.00    +0.196 C 
BRANCH  10  11
ATOM     11  C   UNL     1      34.938 -19.679 -21.251  0.00  0.00    +0.039 C 
ATOM     12  C   UNL     1      35.772 -20.340 -20.349  0.00  0.00    -0.001 C 
ATOM     13  C   UNL     1      35.222 -21.153 -19.358  0.00  0.00    -0.022 C 
ATOM     14  C   UNL     1      33.555 -19.830 -21.162  0.00  0.00    +0.003 C 
ATOM     15  C   UNL     1      33.838 -21.304 -19.268  0.00  0.00    -0.004 C 
ATOM     16  C   UNL     1      33.005 -20.642 -20.169  0.00  0.00    -0.000 C 
ATOM     17  C   UNL     1      36.113 -21.857 -18.391  0.00  0.00    +0.031 C 
ENDBRANCH  10  11
ENDBRANCH   4  10
BRANCH   1  18
ATOM     18  C   UNL     1      34.346 -13.899 -23.023  0.00  0.00    +0.115 C 
BRANCH  18  19
ATOM     19  C   UNL     1      33.687 -12.570 -22.864  0.00  0.00    -0.003 C 
ATOM     20  C   UNL     1      34.053 -11.508 -23.690  0.00  0.00    -0.003 C 
ATOM     21  C   UNL     1      32.706 -12.390 -21.889  0.00  0.00    -0.003 C 
ATOM     22  C   UNL     1      32.457 -10.085 -22.566  0.00  0.00    +0.031 C 
ATOM     23  C   UNL     1      33.438 -10.265 -23.541  0.00  0.00    +0.002 C 
ATOM     24  C   UNL     1      32.091 -11.147 -21.740  0.00  0.00    +0.002 C 
BRANCH  22  27
ATOM     25  N   UNL     1      31.490  -8.004 -23.516  0.00  0.00    -0.343 N 
ATOM     26  N   UNL     1      31.538  -8.333 -21.203  0.00  0.00    -0.285 NA
ATOM     27  C   UNL     1      31.817  -8.788 -22.412  0.00  0.00    +0.117 C 
ATOM     28  H   UNL     1      31.056  -7.130 -23.389  0.00  0.00    +0.144 HD
ATOM     29  H   UNL     1      31.692  -8.325 -24.425  0.00  0.00    +0.144 HD
ATOM     30  H   UNL     1      31.104  -7.455 -21.096  0.00  0.00    +0.188 HD
ENDBRANCH  22  27
ENDBRANCH  18  19
ENDBRANCH   1  18
TORSDOF 5
ENDMDL
MODEL 9
REMARK VINA RESULT:     -11.0      2.780      4.863
REMARK  Name = 17758361
REMARK  5 active torsions:
REMARK  status: ('A' for Active; 'I' for Inactive)
REMARK    1  A    between atoms: N_1  and  C_18
REMARK    2  A    between atoms: C_4  and  C_10
REMARK    3  A    between atoms: C_10  and  C_11
REMARK    4  A    between atoms: C_18  and  C_19
REMARK    5  A    between atoms: C_22  and  C_27
REMARK                            x       y       z     vdW  Elec       q    Type
REMARK                         _______ _______ _______ _____ _____    ______ ____
ROOT
ATOM      1  N   UNL     1      35.946 -20.404 -20.077  0.00  0.00    -0.314 N 
ATOM      2  N   UNL     1      36.937 -20.898 -17.999  0.00  0.00    -0.229 NA
ATOM      3  C   UNL     1      35.923 -21.088 -18.873  0.00  0.00    +0.129 C 
ATOM      4  C   UNL     1      34.815 -22.629 -17.441  0.00  0.00    +0.043 C 
ATOM      5  C   UNL     1      34.850 -21.934 -18.644  0.00  0.00    +0.037 C 
ATOM      6  C   UNL     1      35.840 -22.459 -16.516  0.00  0.00    +0.024 C 
ATOM      7  C   UNL     1      36.869 -21.590 -16.840  0.00  0.00    +0.100 C 
ATOM      8  H   UNL     1      36.702 -19.799 -20.252  0.00  0.00    +0.149 HD
ENDROOT
BRANCH   4  10
ATOM      9  O   UNL     1      33.384 -24.403 -17.966  0.00  0.00    -0.287 OA
ATOM     10  C   UNL     1      33.711 -23.531 -17.149  0.00  0.00    +0.196 C 
BRANCH  10  11
ATOM     11  C   UNL     1      32.931 -23.456 -15.876  0.00  0.00    +0.039 C 
ATOM     12  C   UNL     1      31.587 -23.082 -15.903  0.00  0.00    -0.001 C 
ATOM     13  C   UNL     1      30.859 -23.013 -14.716  0.00  0.00    -0.022 C 
ATOM     14  C   UNL     1      33.546 -23.761 -14.663  0.00  0.00    +0.003 C 
ATOM     15  C   UNL     1      31.474 -23.318 -13.501  0.00  0.00    -0.004 C 
ATOM     16  C   UNL     1      32.817 -23.692 -13.475  0.00  0.00    -0.000 C 
ATOM     17  C   UNL     1      29.421 -22.617 -14.744  0.00  0.00    +0.031 C 
ENDBRANCH  10  11
ENDBRANCH   4  10
BRANCH   1  18
ATOM     18  C   UNL     1      34.920 -20.529 -21.088  0.00  0.00    +0.115 C 
BRANCH  18  19
ATOM     19  C   UNL     1      34.825 -19.287 -21.909  0.00  0.00    -0.003 C 
ATOM     20  C   UNL     1      35.229 -18.065 -21.372  0.00  0.00    -0.003 C 
ATOM     21  C   UNL     1      34.330 -19.348 -23.212  0.00  0.00    -0.003 C 
ATOM     22  C   UNL     1      34.645 -16.964 -23.442  0.00  0.00    +0.031 C 
ATOM     23  C   UNL     1      35.139 -16.903 -22.139  0.00  0.00    +0.002 C 
ATOM     24  C   UNL     1      34.241 -18.186 -23.978  0.00  0.00    +0.002 C 
BRANCH  22  27
ATOM     25  N   UNL     1      34.441 -14.497 -23.644  0.00  0.00    -0.343 N 
ATOM     26  N   UNL     1      34.568 -15.830 -25.559  0.00  0.00    -0.285 NA
ATOM     27  C   UNL     1      34.552 -15.752 -24.240  0.00  0.00    +0.117 C 
ATOM     28  H   UNL     1      34.380 -13.689 -24.204  0.00  0.00    +0.144 HD
ATOM     29  H   UNL     1      34.424 -14.418 -22.663  0.00  0.00    +0.144 HD
ATOM     30  H   UNL     1      34.506 -15.011 -26.102  0.00  0.00    +0.188 HD
ENDBRANCH  22  27
ENDBRANCH  18  19
ENDBRANCH   1  18
TORSDOF 5
ENDMDL
