MODEL 1
REMARK VINA RESULT:     -11.3      0.000      0.000
REMARK  Name = 100472
REMARK  3 active torsions:
REMARK  status: ('A' for Active; 'I' for Inactive)
REMARK    1  A    between atoms: C_1  and  C_13
REMARK    2  A    between atoms: C_2  and  C_7
REMARK    3  A    between atoms: C_13  and  C_16
REMARK                            x       y       z     vdW  Elec       q    Type
REMARK                         _______ _______ _______ _____ _____    ______ ____
ROOT
ATOM      1  C   UNL     1      34.892 -20.392 -20.649  0.00  0.00    -0.013 C 
ATOM      2  C   UNL     1      34.048 -21.841 -18.418  0.00  0.00    -0.000 C 
ATOM      3  C   UNL     1      35.830 -21.016 -19.826  0.00  0.00    -0.004 C 
ATOM      4  C   UNL     1      33.531 -20.492 -20.356  0.00  0.00    -0.004 C 
ATOM      5  C   UNL     1      35.408 -21.740 -18.711  0.00  0.00    -0.000 C 
ATOM      6  C   UNL     1      33.109 -21.217 -19.241  0.00  0.00    -0.000 C 
ENDROOT
BRANCH   2   7
ATOM      7  C   UNL     1      33.610 -22.591 -17.261  0.00  0.00    -0.000 C 
ATOM      8  C   UNL     1      32.249 -22.795 -17.036  0.00  0.00    -0.000 C 
ATOM      9  C   UNL     1      34.549 -23.111 -16.372  0.00  0.00    -0.000 C 
ATOM     10  C   UNL     1      31.827 -23.519 -15.921  0.00  0.00    +0.000 C 
ATOM     11  C   UNL     1      34.128 -23.836 -15.256  0.00  0.00    +0.000 C 
ATOM     12  C   UNL     1      32.766 -24.039 -15.032  0.00  0.00    +0.000 C 
ENDBRANCH   2   7
BRANCH   1  13
ATOM     13  C   UNL     1      35.343 -19.618 -21.841  0.00  0.00    +0.112 C 
BRANCH  13  16
ATOM     14  O   UNL     1      35.383 -17.512 -20.669  0.00  0.00    -0.274 OA
ATOM     15  N   UNL     1      34.673 -17.568 -22.906  0.00  0.00    -0.269 N 
ATOM     16  C   UNL     1      35.142 -18.110 -21.713  0.00  0.00    +0.232 C 
ATOM     17  H   UNL     1      34.535 -18.201 -23.648  0.00  0.00    +0.156 HD
ATOM     18  N   UNL     1      33.926 -15.900 -24.408  0.00  0.00    -0.229 NA
ATOM     19  C   UNL     1      34.371 -16.212 -23.178  0.00  0.00    +0.134 C 
ATOM     20  C   UNL     1      34.561 -15.313 -22.150  0.00  0.00    +0.034 C 
ATOM     21  C   UNL     1      34.267 -13.979 -22.407  0.00  0.00    +0.004 C 
ATOM     22  C   UNL     1      33.804 -13.604 -23.663  0.00  0.00    +0.021 C 
ATOM     23  C   UNL     1      33.653 -14.593 -24.621  0.00  0.00    +0.100 C 
ENDBRANCH  13  16
ENDBRANCH   1  13
TORSDOF 3
ENDMDL
MODEL 2
REMARK VINA RESULT:     -11.2      0.017      1.457
REMARK  Name = 100472
REMARK  3 active torsions:
REMARK  status: ('A' for Active; 'I' for Inactive)
REMARK    1  A    between atoms: C_1  and  C_13
REMARK    2  A    between atoms: C_2  and  C_7
REMARK    3  A    between atoms: C_13  and  C_16
REMARK                            x       y       z     vdW  Elec       q    Type
REMARK                         _______ _______ _______ _____ _____    ______ ____
ROOT
ATOM      1  C   UNL     1      34.892 -20.394 -20.638  0.00  0.00    -0.013 C 
ATOM      2  C   UNL     1      34.049 -21.843 -18.407  0.00  0.00    -0.000 C 
ATOM      3  C   UNL     1      33.532 -20.501 -20.348  0.00  0.00    -0.004 C 
ATOM      4  C   UNL     1      35.831 -21.012 -19.812  0.00  0.00    -0.004 C 
ATOM      5  C   UNL     1      33.110 -21.224 -19.233  0.00  0.00    -0.000 C 
ATOM      6  C   UNL     1      35.410 -21.736 -18.697  0.00  0.00    -0.000 C 
ENDROOT
BRANCH   2   7
ATOM      7  C   UNL     1      33.612 -22.594 -17.251  0.00  0.00    -0.000 C 
ATOM      8  C   UNL     1      34.552 -23.115 -16.362  0.00  0.00    -0.000 C 
ATOM      9  C   UNL     1      32.251 -22.798 -17.026  0.00  0.00    -0.000 C 
ATOM     10  C   UNL     1      34.130 -23.840 -15.246  0.00  0.00    +0.000 C 
ATOM     11  C   UNL     1      31.829 -23.521 -15.910  0.00  0.00    +0.000 C 
ATOM     12  C   UNL     1      32.770 -24.042 -15.021  0.00  0.00    +0.000 C 
ENDBRANCH   2   7
BRANCH   1  13
ATOM     13  C   UNL     1      35.343 -19.620 -21.830  0.00  0.00    +0.112 C 
BRANCH  13  16
ATOM     14  O   UNL     1      35.398 -17.515 -20.657  0.00  0.00    -0.274 OA
ATOM     15  N   UNL     1      34.671 -17.567 -22.889  0.00  0.00    -0.269 N 
ATOM     16  C   UNL     1      35.148 -18.112 -21.700  0.00  0.00    +0.232 C 
ATOM     17  H   UNL     1      34.526 -18.199 -23.630  0.00  0.00    +0.156 HD
ATOM     18  N   UNL     1      33.917 -15.896 -24.384  0.00  0.00    -0.229 NA
ATOM     19  C   UNL     1      34.370 -16.210 -23.157  0.00  0.00    +0.134 C 
ATOM     20  C   UNL     1      34.570 -15.313 -22.130  0.00  0.00    +0.034 C 
ATOM     21  C   UNL     1      34.279 -13.978 -22.384  0.00  0.00    +0.004 C 
ATOM     22  C   UNL     1      33.807 -13.600 -23.637  0.00  0.00    +0.021 C 
ATOM     23  C   UNL     1      33.646 -14.589 -24.593  0.00  0.00    +0.100 C 
ENDBRANCH  13  16
ENDBRANCH   1  13
TORSDOF 3
ENDMDL
MODEL 3
REMARK VINA RESULT:     -11.2      3.616      9.122
REMARK  Name = 100472
REMARK  3 active torsions:
REMARK  status: ('A' for Active; 'I' for Inactive)
REMARK    1  A    between atoms: C_1  and  C_13
REMARK    2  A    between atoms: C_2  and  C_7
REMARK    3  A    between atoms: C_13  and  C_16
REMARK                            x       y       z     vdW  Elec       q    Type
REMARK                         _______ _______ _______ _____ _____    ______ ____
ROOT
ATOM      1  C   UNL     1      34.541 -21.588 -19.155  0.00  0.00    -0.013 C 
ATOM      2  C   UNL     1      34.596 -19.648 -21.160  0.00  0.00    -0.000 C 
ATOM      3  C   UNL     1      33.348 -21.103 -19.690  0.00  0.00    -0.004 C 
ATOM      4  C   UNL     1      35.763 -21.102 -19.623  0.00  0.00    -0.004 C 
ATOM      5  C   UNL     1      33.375 -20.133 -20.692  0.00  0.00    -0.000 C 
ATOM      6  C   UNL     1      35.790 -20.133 -20.626  0.00  0.00    -0.000 C 
ENDROOT
BRANCH   2   7
ATOM      7  C   UNL     1      34.625 -18.642 -22.200  0.00  0.00    -0.000 C 
ATOM      8  C   UNL     1      34.136 -18.939 -23.472  0.00  0.00    -0.000 C 
ATOM      9  C   UNL     1      35.142 -17.375 -21.929  0.00  0.00    -0.000 C 
ATOM     10  C   UNL     1      34.164 -17.968 -24.473  0.00  0.00    +0.000 C 
ATOM     11  C   UNL     1      35.169 -16.404 -22.931  0.00  0.00    +0.000 C 
ATOM     12  C   UNL     1      34.679 -16.702 -24.203  0.00  0.00    +0.000 C 
ENDBRANCH   2   7
BRANCH   1  13
ATOM     13  C   UNL     1      34.512 -22.624 -18.083  0.00  0.00    +0.112 C 
BRANCH  13  16
ATOM     14  O   UNL     1      32.130 -22.315 -17.878  0.00  0.00    -0.274 OA
ATOM     15  N   UNL     1      33.301 -23.399 -16.155  0.00  0.00    -0.269 N 
ATOM     16  C   UNL     1      33.164 -22.749 -17.379  0.00  0.00    +0.232 C 
ATOM     17  H   UNL     1      34.212 -23.681 -15.911  0.00  0.00    +0.156 HD
ATOM     18  N   UNL     1      32.634 -24.339 -14.089  0.00  0.00    -0.229 NA
ATOM     19  C   UNL     1      32.282 -23.700 -15.219  0.00  0.00    +0.134 C 
ATOM     20  C   UNL     1      31.000 -23.314 -15.548  0.00  0.00    +0.034 C 
ATOM     21  C   UNL     1      29.993 -23.606 -14.637  0.00  0.00    +0.004 C 
ATOM     22  C   UNL     1      30.303 -24.266 -13.452  0.00  0.00    +0.021 C 
ATOM     23  C   UNL     1      31.627 -24.607 -13.228  0.00  0.00    +0.100 C 
ENDBRANCH  13  16
ENDBRANCH   1  13
TORSDOF 3
ENDMDL
MODEL 4
REMARK VINA RESULT:     -11.1      0.431      1.114
REMARK  Name = 100472
REMARK  3 active torsions:
REMARK  status: ('A' for Active; 'I' for Inactive)
REMARK    1  A    between atoms: C_1  and  C_13
REMARK    2  A    between atoms: C_2  and  C_7
REMARK    3  A    between atoms: C_13  and  C_16
REMARK                            x       y       z     vdW  Elec       q    Type
REMARK                         _______ _______ _______ _____ _____    ______ ____
ROOT
ATOM      1  C   UNL     1      34.902 -20.141 -20.976  0.00  0.00    -0.013 C 
ATOM      2  C   UNL     1      34.235 -21.632 -18.713  0.00  0.00    -0.000 C 
ATOM      3  C   UNL     1      35.906 -20.728 -20.206  0.00  0.00    -0.004 C 
ATOM      4  C   UNL     1      33.564 -20.299 -20.614  0.00  0.00    -0.004 C 
ATOM      5  C   UNL     1      35.573 -21.474 -19.075  0.00  0.00    -0.000 C 
ATOM      6  C   UNL     1      33.230 -21.044 -19.483  0.00  0.00    -0.000 C 
ENDROOT
BRANCH   2   7
ATOM      7  C   UNL     1      33.889 -22.404 -17.540  0.00  0.00    -0.000 C 
ATOM      8  C   UNL     1      34.884 -22.803 -16.649  0.00  0.00    -0.000 C 
ATOM      9  C   UNL     1      32.559 -22.750 -17.301  0.00  0.00    -0.000 C 
ATOM     10  C   UNL     1      34.550 -23.548 -15.517  0.00  0.00    +0.000 C 
ATOM     11  C   UNL     1      32.224 -23.494 -16.169  0.00  0.00    +0.000 C 
ATOM     12  C   UNL     1      33.221 -23.893 -15.278  0.00  0.00    +0.000 C 
ENDBRANCH   2   7
BRANCH   1  13
ATOM     13  C   UNL     1      35.258 -19.344 -22.185  0.00  0.00    +0.112 C 
BRANCH  13  16
ATOM     14  O   UNL     1      35.339 -17.267 -20.963  0.00  0.00    -0.274 OA
ATOM     15  N   UNL     1      34.565 -17.266 -23.180  0.00  0.00    -0.269 N 
ATOM     16  C   UNL     1      35.066 -17.839 -22.014  0.00  0.00    +0.232 C 
ATOM     17  H   UNL     1      34.404 -17.881 -23.933  0.00  0.00    +0.156 HD
ATOM     18  N   UNL     1      33.780 -15.561 -24.619  0.00  0.00    -0.229 NA
ATOM     19  C   UNL     1      34.259 -15.904 -23.409  0.00  0.00    +0.134 C 
ATOM     20  C   UNL     1      34.481 -15.031 -22.366  0.00  0.00    +0.034 C 
ATOM     21  C   UNL     1      34.184 -13.690 -22.581  0.00  0.00    +0.004 C 
ATOM     22  C   UNL     1      33.687 -13.283 -23.814  0.00  0.00    +0.021 C 
ATOM     23  C   UNL     1      33.505 -14.249 -24.791  0.00  0.00    +0.100 C 
ENDBRANCH  13  16
ENDBRANCH   1  13
TORSDOF 3
ENDMDL
MODEL 5
REMARK VINA RESULT:     -11.0      4.439      9.559
REMARK  Name = 100472
REMARK  3 active torsions:
REMARK  status: ('A' for Active; 'I' for Inactive)
REMARK    1  A    between atoms: C_1  and  C_13
REMARK    2  A    between atoms: C_2  and  C_7
REMARK    3  A    between atoms: C_13  and  C_16
REMARK                            x       y       z     vdW  Elec       q    Type
REMARK                         _______ _______ _______ _____ _____    ______ ____
ROOT
ATOM      1  C   UNL     1      33.920 -22.609 -17.741  0.00  0.00    -0.013 C 
ATOM      2  C   UNL     1      34.670 -20.848 -19.771  0.00  0.00    -0.000 C 
ATOM      3  C   UNL     1      35.270 -22.335 -17.964  0.00  0.00    -0.004 C 
ATOM      4  C   UNL     1      32.946 -22.002 -18.534  0.00  0.00    -0.004 C 
ATOM      5  C   UNL     1      35.645 -21.454 -18.979  0.00  0.00    -0.000 C 
ATOM      6  C   UNL     1      33.320 -21.122 -19.548  0.00  0.00    -0.000 C 
ENDROOT
BRANCH   2   7
ATOM      7  C   UNL     1      35.059 -19.935 -20.825  0.00  0.00    -0.000 C 
ATOM      8  C   UNL     1      34.143 -19.582 -21.815  0.00  0.00    -0.000 C 
ATOM      9  C   UNL     1      36.350 -19.407 -20.848  0.00  0.00    -0.000 C 
ATOM     10  C   UNL     1      34.518 -18.702 -22.830  0.00  0.00    +0.000 C 
ATOM     11  C   UNL     1      36.725 -18.526 -21.863  0.00  0.00    +0.000 C 
ATOM     12  C   UNL     1      35.808 -18.174 -22.854  0.00  0.00    +0.000 C 
ENDBRANCH   2   7
BRANCH   1  13
ATOM     13  C   UNL     1      33.519 -23.550 -16.656  0.00  0.00    +0.112 C 
BRANCH  13  16
ATOM     14  O   UNL     1      34.590 -22.565 -14.734  0.00  0.00    -0.274 OA
ATOM     15  N   UNL     1      35.106 -24.777 -15.328  0.00  0.00    -0.269 N 
ATOM     16  C   UNL     1      34.462 -23.549 -15.456  0.00  0.00    +0.232 C 
ATOM     17  H   UNL     1      34.881 -25.459 -16.002  0.00  0.00    +0.156 HD
ATOM     18  N   UNL     1      36.552 -26.405 -14.404  0.00  0.00    -0.229 NA
ATOM     19  C   UNL     1      36.048 -25.160 -14.343  0.00  0.00    +0.134 C 
ATOM     20  C   UNL     1      36.372 -24.216 -13.391  0.00  0.00    +0.034 C 
ATOM     21  C   UNL     1      37.295 -24.582 -12.419  0.00  0.00    +0.004 C 
ATOM     22  C   UNL     1      37.847 -25.859 -12.437  0.00  0.00    +0.021 C 
ATOM     23  C   UNL     1      37.446 -26.724 -13.441  0.00  0.00    +0.100 C 
ENDBRANCH  13  16
ENDBRANCH   1  13
TORSDOF 3
ENDMDL
MODEL 6
REMARK VINA RESULT:     -10.9      0.900      1.479
REMARK  Name = 100472
REMARK  3 active torsions:
REMARK  status: ('A' for Active; 'I' for Inactive)
REMARK    1  A    between atoms: C_1  and  C_13
REMARK    2  A    between atoms: C_2  and  C_7
REMARK    3  A    between atoms: C_13  and  C_16
REMARK                            x       y       z     vdW  Elec       q    Type
REMARK                         _______ _______ _______ _____ _____    ______ ____
ROOT
ATOM      1  C   UNL     1      34.830 -19.755 -21.533  0.00  0.00    -0.013 C 
ATOM      2  C   UNL     1      34.280 -21.262 -19.250  0.00  0.00    -0.000 C 
ATOM      3  C   UNL     1      33.508 -20.009 -21.166  0.00  0.00    -0.004 C 
ATOM      4  C   UNL     1      35.877 -20.256 -20.758  0.00  0.00    -0.004 C 
ATOM      5  C   UNL     1      33.233 -20.761 -20.024  0.00  0.00    -0.000 C 
ATOM      6  C   UNL     1      35.602 -21.008 -19.617  0.00  0.00    -0.000 C 
ENDROOT
BRANCH   2   7
ATOM      7  C   UNL     1      33.995 -22.043 -18.066  0.00  0.00    -0.000 C 
ATOM      8  C   UNL     1      32.684 -22.420 -17.778  0.00  0.00    -0.000 C 
ATOM      9  C   UNL     1      35.032 -22.419 -17.213  0.00  0.00    -0.000 C 
ATOM     10  C   UNL     1      32.409 -23.174 -16.637  0.00  0.00    +0.000 C 
ATOM     11  C   UNL     1      34.759 -23.174 -16.072  0.00  0.00    +0.000 C 
ATOM     12  C   UNL     1      33.447 -23.551 -15.784  0.00  0.00    +0.000 C 
ENDBRANCH   2   7
BRANCH   1  13
ATOM     13  C   UNL     1      35.124 -18.950 -22.753  0.00  0.00    +0.112 C 
BRANCH  13  16
ATOM     14  O   UNL     1      35.308 -16.889 -21.518  0.00  0.00    -0.274 OA
ATOM     15  N   UNL     1      34.400 -16.853 -23.684  0.00  0.00    -0.269 N 
ATOM     16  C   UNL     1      34.964 -17.445 -22.556  0.00  0.00    +0.232 C 
ATOM     17  H   UNL     1      34.185 -17.457 -24.431  0.00  0.00    +0.156 HD
ATOM     18  N   UNL     1      33.554 -15.121 -25.054  0.00  0.00    -0.229 NA
ATOM     19  C   UNL     1      34.100 -15.484 -23.880  0.00  0.00    +0.134 C 
ATOM     20  C   UNL     1      34.398 -14.625 -22.843  0.00  0.00    +0.034 C 
ATOM     21  C   UNL     1      34.108 -13.279 -23.026  0.00  0.00    +0.004 C 
ATOM     22  C   UNL     1      33.542 -12.851 -24.223  0.00  0.00    +0.021 C 
ATOM     23  C   UNL     1      33.287 -13.803 -25.196  0.00  0.00    +0.100 C 
ENDBRANCH  13  16
ENDBRANCH   1  13
TORSDOF 3
ENDMDL
MODEL 7
REMARK VINA RESULT:     -10.8      2.316      4.184
REMARK  Name = 100472
REMARK  3 active torsions:
REMARK  status: ('A' for Active; 'I' for Inactive)
REMARK    1  A    between atoms: C_1  and  C_13
REMARK    2  A    between atoms: C_2  and  C_7
REMARK    3  A    between atoms: C_13  and  C_16
REMARK                            x       y       z     vdW  Elec       q    Type
REMARK                         _______ _______ _______ _____ _____    ______ ____
ROOT
ATOM      1  C   UNL     1      34.805 -17.143 -23.345  0.00  0.00    -0.013 C 
ATOM      2  C   UNL     1      34.697 -19.173 -21.433  0.00  0.00    -0.000 C 
ATOM      3  C   UNL     1      35.376 -16.948 -22.086  0.00  0.00    -0.004 C 
ATOM      4  C   UNL     1      34.181 -18.354 -23.647  0.00  0.00    -0.004 C 
ATOM      5  C   UNL     1      35.321 -17.963 -21.131  0.00  0.00    -0.000 C 
ATOM      6  C   UNL     1      34.126 -19.368 -22.692  0.00  0.00    -0.000 C 
ENDROOT
BRANCH   2   7
ATOM      7  C   UNL     1      34.639 -20.226 -20.442  0.00  0.00    -0.000 C 
ATOM      8  C   UNL     1      33.406 -20.695 -19.993  0.00  0.00    -0.000 C 
ATOM      9  C   UNL     1      35.819 -20.770 -19.936  0.00  0.00    -0.000 C 
ATOM     10  C   UNL     1      33.351 -21.710 -19.038  0.00  0.00    +0.000 C 
ATOM     11  C   UNL     1      35.765 -21.786 -18.980  0.00  0.00    +0.000 C 
ATOM     12  C   UNL     1      34.530 -22.255 -18.532  0.00  0.00    +0.000 C 
ENDBRANCH   2   7
BRANCH   1  13
ATOM     13  C   UNL     1      34.864 -16.059 -24.366  0.00  0.00    +0.112 C 
BRANCH  13  16
ATOM     14  O   UNL     1      33.766 -13.961 -24.821  0.00  0.00    -0.274 OA
ATOM     15  N   UNL     1      33.785 -14.796 -22.626  0.00  0.00    -0.269 N 
ATOM     16  C   UNL     1      34.075 -14.808 -23.988  0.00  0.00    +0.232 C 
ATOM     17  H   UNL     1      34.114 -15.564 -22.104  0.00  0.00    +0.156 HD
ATOM     18  N   UNL     1      32.904 -13.994 -20.583  0.00  0.00    -0.229 NA
ATOM     19  C   UNL     1      33.073 -13.809 -21.904  0.00  0.00    +0.134 C 
ATOM     20  C   UNL     1      32.605 -12.729 -22.621  0.00  0.00    +0.034 C 
ATOM     21  C   UNL     1      31.903 -11.754 -21.921  0.00  0.00    +0.004 C 
ATOM     22  C   UNL     1      31.700 -11.898 -20.553  0.00  0.00    +0.021 C 
ATOM     23  C   UNL     1      32.216 -13.027 -19.937  0.00  0.00    +0.100 C 
ENDBRANCH  13  16
ENDBRANCH   1  13
TORSDOF 3
ENDMDL
MODEL 8
REMARK VINA RESULT:     -10.8      3.938      9.300
REMARK  Name = 100472
REMARK  3 active torsions:
REMARK  status: ('A' for Active; 'I' for Inactive)
REMARK    1  A    between atoms: C_1  and  C_13
REMARK    2  A    between atoms: C_2  and  C_7
REMARK    3  A    between atoms: C_13  and  C_16
REMARK                            x       y       z     vdW  Elec       q    Type
REMARK                         _______ _______ _______ _____ _____    ______ ____
ROOT
ATOM      1  C   UNL     1      34.017 -22.028 -18.691  0.00  0.00    -0.013 C 
ATOM      2  C   UNL     1      34.386 -20.068 -20.643  0.00  0.00    -0.000 C 
ATOM      3  C   UNL     1      32.917 -21.348 -19.214  0.00  0.00    -0.004 C 
ATOM      4  C   UNL     1      35.302 -21.727 -19.144  0.00  0.00    -0.004 C 
ATOM      5  C   UNL     1      33.101 -20.369 -20.190  0.00  0.00    -0.000 C 
ATOM      6  C   UNL     1      35.486 -20.748 -20.120  0.00  0.00    -0.000 C 
ENDROOT
BRANCH   2   7
ATOM      7  C   UNL     1      34.577 -19.052 -21.655  0.00  0.00    -0.000 C 
ATOM      8  C   UNL     1      35.183 -17.841 -21.322  0.00  0.00    -0.000 C 
ATOM      9  C   UNL     1      34.155 -19.284 -22.964  0.00  0.00    -0.000 C 
ATOM     10  C   UNL     1      35.368 -16.862 -22.298  0.00  0.00    +0.000 C 
ATOM     11  C   UNL     1      34.340 -18.305 -23.941  0.00  0.00    +0.000 C 
ATOM     12  C   UNL     1      34.947 -17.094 -23.607  0.00  0.00    +0.000 C 
ENDBRANCH   2   7
BRANCH   1  13
ATOM     13  C   UNL     1      33.820 -23.075 -17.648  0.00  0.00    +0.112 C 
BRANCH  13  16
ATOM     14  O   UNL     1      35.953 -22.541 -16.660  0.00  0.00    -0.274 OA
ATOM     15  N   UNL     1      34.288 -23.530 -15.332  0.00  0.00    -0.269 N 
ATOM     16  C   UNL     1      34.829 -23.008 -16.504  0.00  0.00    +0.232 C 
ATOM     17  H   UNL     1      33.363 -23.864 -15.391  0.00  0.00    +0.156 HD
ATOM     18  N   UNL     1      34.205 -24.180 -13.060  0.00  0.00    -0.229 NA
ATOM     19  C   UNL     1      34.913 -23.639 -14.067  0.00  0.00    +0.134 C 
ATOM     20  C   UNL     1      36.207 -23.175 -13.969  0.00  0.00    +0.034 C 
ATOM     21  C   UNL     1      36.829 -23.276 -12.731  0.00  0.00    +0.004 C 
ATOM     22  C   UNL     1      36.141 -23.828 -11.656  0.00  0.00    +0.021 C 
ATOM     23  C   UNL     1      34.843 -24.261 -11.871  0.00  0.00    +0.100 C 
ENDBRANCH  13  16
ENDBRANCH   1  13
TORSDOF 3
ENDMDL
MODEL 9
REMARK VINA RESULT:     -10.8      2.463      9.010
REMARK  Name = 100472
REMARK  3 active torsions:
REMARK  status: ('A' for Active; 'I' for Inactive)
REMARK    1  A    between atoms: C_1  and  C_13
REMARK    2  A    between atoms: C_2  and  C_7
REMARK    3  A    between atoms: C_13  and  C_16
REMARK                            x       y       z     vdW  Elec       q    Type
REMARK                         _______ _______ _______ _____ _____    ______ ____
ROOT
ATOM      1  C   UNL     1      35.342 -19.121 -21.562  0.00  0.00    -0.013 C 
ATOM      2  C   UNL     1      34.576 -16.882 -23.040  0.00  0.00    -0.000 C 
ATOM      3  C   UNL     1      35.392 -17.853 -20.983  0.00  0.00    -0.004 C 
ATOM      4  C   UNL     1      34.909 -19.270 -22.880  0.00  0.00    -0.004 C 
ATOM      5  C   UNL     1      35.009 -16.734 -21.722  0.00  0.00    -0.000 C 
ATOM      6  C   UNL     1      34.526 -18.151 -23.618  0.00  0.00    -0.000 C 
ENDROOT
BRANCH   2   7
ATOM      7  C   UNL     1      34.179 -15.721 -23.807  0.00  0.00    -0.000 C 
ATOM      8  C   UNL     1      34.238 -14.452 -23.233  0.00  0.00    -0.000 C 
ATOM      9  C   UNL     1      33.738 -15.873 -25.122  0.00  0.00    -0.000 C 
ATOM     10  C   UNL     1      33.856 -13.333 -23.973  0.00  0.00    +0.000 C 
ATOM     11  C   UNL     1      33.356 -14.753 -25.862  0.00  0.00    +0.000 C 
ATOM     12  C   UNL     1      33.416 -13.484 -25.287  0.00  0.00    +0.000 C 
ENDBRANCH   2   7
BRANCH   1  13
ATOM     13  C   UNL     1      35.751 -20.318 -20.771  0.00  0.00    +0.112 C 
BRANCH  13  16
ATOM     14  O   UNL     1      33.449 -20.757 -20.206  0.00  0.00    -0.274 OA
ATOM     15  N   UNL     1      35.152 -21.606 -18.830  0.00  0.00    -0.269 N 
ATOM     16  C   UNL     1      34.632 -20.909 -19.918  0.00  0.00    +0.232 C 
ATOM     17  H   UNL     1      36.134 -21.625 -18.754  0.00  0.00    +0.156 HD
ATOM     18  N   UNL     1      35.137 -22.902 -16.851  0.00  0.00    -0.229 NA
ATOM     19  C   UNL     1      34.434 -22.289 -17.820  0.00  0.00    +0.134 C 
ATOM     20  C   UNL     1      33.058 -22.273 -17.914  0.00  0.00    +0.034 C 
ATOM     21  C   UNL     1      32.343 -22.942 -16.928  0.00  0.00    +0.004 C 
ATOM     22  C   UNL     1      33.023 -23.592 -15.903  0.00  0.00    +0.021 C 
ATOM     23  C   UNL     1      34.408 -23.543 -15.911  0.00  0.00    +0.100 C 
ENDBRANCH  13  16
ENDBRANCH   1  13
TORSDOF 3
ENDMDL
