MODEL 1
REMARK VINA RESULT:     -11.9      0.000      0.000
REMARK  Name = 5567
REMARK  8 active torsions:
REMARK  status: ('A' for Active; 'I' for Inactive)
REMARK    1  A    between atoms: N_1  and  C_20
REMARK    2  A    between atoms: C_2  and  C_8
REMARK    3  A    between atoms: C_2  and  O_18
REMARK    4  A    between atoms: C_11  and  C_17
REMARK    5  A    between atoms: C_20  and  C_21
REMARK    6  A    between atoms: C_21  and  C_22
REMARK    7  A    between atoms: C_22  and  C_24
REMARK    8  A    between atoms: C_24  and  C_26
REMARK                            x       y       z     vdW  Elec       q    Type
REMARK                         _______ _______ _______ _____ _____    ______ ____
ROOT
ATOM      1  N   UNL     1      35.235 -20.346 -19.890  0.00  0.00    +0.387 N 
ATOM      2  C   UNL     1      33.895 -22.466 -18.296  0.00  0.00    +0.103 C 
ATOM      3  C   UNL     1      33.142 -21.327 -19.018  0.00  0.00    +0.008 C 
ATOM      4  C   UNL     1      35.356 -22.019 -18.061  0.00  0.00    +0.008 C 
ATOM      5  C   UNL     1      33.886 -20.800 -20.250  0.00  0.00    -0.075 C 
ATOM      6  C   UNL     1      36.023 -21.441 -19.316  0.00  0.00    -0.075 C 
ATOM      7  H   UNL     1      35.142 -19.619 -19.182  0.00  0.00    -0.080 HD
ENDROOT
BRANCH   2   8
ATOM      8  C   UNL     1      33.259 -22.932 -16.986  0.00  0.00    +0.002 C 
ATOM      9  C   UNL     1      31.880 -22.835 -16.809  0.00  0.00    +0.002 C 
ATOM     10  C   UNL     1      34.059 -23.456 -15.973  0.00  0.00    -0.002 C 
ATOM     11  C   UNL     1      31.298 -23.261 -15.614  0.00  0.00    +0.071 C 
ATOM     12  C   UNL     1      33.478 -23.883 -14.778  0.00  0.00    -0.000 C 
ATOM     13  C   UNL     1      32.098 -23.785 -14.599  0.00  0.00    +0.004 C 
BRANCH  11  17
ATOM     14  F   UNL     1      29.185 -22.505 -16.441  0.00  0.00    -0.166 F 
ATOM     15  F   UNL     1      29.197 -24.365 -15.324  0.00  0.00    -0.166 F 
ATOM     16  F   UNL     1      29.489 -22.475 -14.288  0.00  0.00    -0.166 F 
ATOM     17  C   UNL     1      29.823 -23.155 -15.422  0.00  0.00    +0.419 C 
ENDBRANCH  11  17
ENDBRANCH   2   8
BRANCH   2  18
ATOM     18  O   UNL     1      33.881 -23.615 -19.158  0.00  0.00    -0.383 OA
ATOM     19  H   UNL     1      33.331 -23.429 -19.935  0.00  0.00    +0.211 HD
ENDBRANCH   2  18
BRANCH   1  20
ATOM     20  C   UNL     1      35.913 -19.781 -21.055  0.00  0.00    -0.077 C 
BRANCH  20  21
ATOM     21  C   UNL     1      34.891 -19.191 -22.029  0.00  0.00    -0.015 C 
BRANCH  21  22
ATOM     22  C   UNL     1      35.468 -18.033 -22.847  0.00  0.00    +0.067 C 
BRANCH  22  24
ATOM     23  O   UNL     1      33.888 -18.148 -24.669  0.00  0.00    -0.291 OA
ATOM     24  C   UNL     1      34.481 -17.451 -23.850  0.00  0.00    +0.173 C 
BRANCH  24  26
ATOM     25  F   UNL     1      33.474 -11.960 -23.727  0.00  0.00    -0.204 F 
ATOM     26  C   UNL     1      34.213 -15.985 -23.818  0.00  0.00    +0.035 C 
ATOM     27  C   UNL     1      33.610 -15.398 -24.908  0.00  0.00    +0.005 C 
ATOM     28  C   UNL     1      34.578 -15.271 -22.699  0.00  0.00    +0.005 C 
ATOM     29  C   UNL     1      33.358 -14.027 -24.877  0.00  0.00    +0.030 C 
ATOM     30  C   UNL     1      34.326 -13.899 -22.668  0.00  0.00    +0.030 C 
ATOM     31  C   UNL     1      33.716 -13.277 -23.757  0.00  0.00    +0.140 C 
ENDBRANCH  24  26
ENDBRANCH  22  24
ENDBRANCH  21  22
ENDBRANCH  20  21
ENDBRANCH   1  20
TORSDOF 8
ENDMDL
MODEL 2
REMARK VINA RESULT:     -11.7      1.111      1.280
REMARK  Name = 5567
REMARK  8 active torsions:
REMARK  status: ('A' for Active; 'I' for Inactive)
REMARK    1  A    between atoms: N_1  and  C_20
REMARK    2  A    between atoms: C_2  and  C_8
REMARK    3  A    between atoms: C_2  and  O_18
REMARK    4  A    between atoms: C_11  and  C_17
REMARK    5  A    between atoms: C_20  and  C_21
REMARK    6  A    between atoms: C_21  and  C_22
REMARK    7  A    between atoms: C_22  and  C_24
REMARK    8  A    between atoms: C_24  and  C_26
REMARK                            x       y       z     vdW  Elec       q    Type
REMARK                         _______ _______ _______ _____ _____    ______ ____
ROOT
ATOM      1  N   UNL     1      35.143 -20.279 -19.965  0.00  0.00    +0.387 N 
ATOM      2  C   UNL     1      33.900 -22.434 -18.341  0.00  0.00    +0.103 C 
ATOM      3  C   UNL     1      33.099 -21.318 -19.047  0.00  0.00    +0.008 C 
ATOM      4  C   UNL     1      35.353 -21.945 -18.138  0.00  0.00    +0.008 C 
ATOM      5  C   UNL     1      33.800 -20.771 -20.295  0.00  0.00    -0.075 C 
ATOM      6  C   UNL     1      35.975 -21.349 -19.408  0.00  0.00    -0.075 C 
ATOM      7  H   UNL     1      35.045 -19.553 -19.255  0.00  0.00    -0.080 HD
ENDROOT
BRANCH   2   8
ATOM      8  C   UNL     1      33.306 -22.917 -17.017  0.00  0.00    +0.002 C 
ATOM      9  C   UNL     1      31.929 -22.857 -16.809  0.00  0.00    +0.002 C 
ATOM     10  C   UNL     1      34.143 -23.419 -16.022  0.00  0.00    -0.002 C 
ATOM     11  C   UNL     1      31.387 -23.299 -15.601  0.00  0.00    +0.071 C 
ATOM     12  C   UNL     1      33.601 -23.860 -14.814  0.00  0.00    -0.000 C 
ATOM     13  C   UNL     1      32.223 -23.800 -14.604  0.00  0.00    +0.004 C 
BRANCH  11  17
ATOM     14  F   UNL     1      29.194 -23.054 -16.524  0.00  0.00    -0.166 F 
ATOM     15  F   UNL     1      29.398 -24.360 -14.804  0.00  0.00    -0.166 F 
ATOM     16  F   UNL     1      29.554 -22.206 -14.554  0.00  0.00    -0.166 F 
ATOM     17  C   UNL     1      29.914 -23.233 -15.377  0.00  0.00    +0.419 C 
ENDBRANCH  11  17
ENDBRANCH   2   8
BRANCH   2  18
ATOM     18  O   UNL     1      33.901 -23.584 -19.201  0.00  0.00    -0.383 OA
ATOM     19  H   UNL     1      34.599 -24.197 -18.921  0.00  0.00    +0.211 HD
ENDBRANCH   2  18
BRANCH   1  20
ATOM     20  C   UNL     1      35.779 -19.695 -21.145  0.00  0.00    -0.077 C 
BRANCH  20  21
ATOM     21  C   UNL     1      34.806 -18.756 -21.861  0.00  0.00    -0.015 C 
BRANCH  21  22
ATOM     22  C   UNL     1      35.519 -17.566 -22.509  0.00  0.00    +0.067 C 
BRANCH  22  24
ATOM     23  O   UNL     1      34.794 -15.767 -21.072  0.00  0.00    -0.291 OA
ATOM     24  C   UNL     1      34.857 -16.228 -22.209  0.00  0.00    +0.173 C 
BRANCH  24  26
ATOM     25  F   UNL     1      32.714 -13.295 -26.449  0.00  0.00    -0.204 F 
ATOM     26  C   UNL     1      34.286 -15.445 -23.341  0.00  0.00    +0.035 C 
ATOM     27  C   UNL     1      34.100 -16.073 -24.553  0.00  0.00    +0.005 C 
ATOM     28  C   UNL     1      33.964 -14.123 -23.134  0.00  0.00    +0.005 C 
ATOM     29  C   UNL     1      33.565 -15.340 -25.612  0.00  0.00    +0.030 C 
ATOM     30  C   UNL     1      33.429 -13.390 -24.193  0.00  0.00    +0.030 C 
ATOM     31  C   UNL     1      33.228 -13.998 -25.432  0.00  0.00    +0.140 C 
ENDBRANCH  24  26
ENDBRANCH  22  24
ENDBRANCH  21  22
ENDBRANCH  20  21
ENDBRANCH   1  20
TORSDOF 8
ENDMDL
MODEL 3
REMARK VINA RESULT:     -11.5      1.970      2.479
REMARK  Name = 5567
REMARK  8 active torsions:
REMARK  status: ('A' for Active; 'I' for Inactive)
REMARK    1  A    between atoms: N_1  and  C_20
REMARK    2  A    between atoms: C_2  and  C_8
REMARK    3  A    between atoms: C_2  and  O_18
REMARK    4  A    between atoms: C_11  and  C_17
REMARK    5  A    between atoms: C_20  and  C_21
REMARK    6  A    between atoms: C_21  and  C_22
REMARK    7  A    between atoms: C_22  and  C_24
REMARK    8  A    between atoms: C_24  and  C_26
REMARK                            x       y       z     vdW  Elec       q    Type
REMARK                         _______ _______ _______ _____ _____    ______ ____
ROOT
ATOM      1  N   UNL     1      35.154 -20.289 -19.945  0.00  0.00    +0.387 N 
ATOM      2  C   UNL     1      33.933 -22.452 -18.314  0.00  0.00    +0.103 C 
ATOM      3  C   UNL     1      33.125 -21.317 -18.981  0.00  0.00    +0.008 C 
ATOM      4  C   UNL     1      35.397 -21.982 -18.146  0.00  0.00    +0.008 C 
ATOM      5  C   UNL     1      33.797 -20.761 -20.242  0.00  0.00    -0.075 C 
ATOM      6  C   UNL     1      35.989 -21.377 -19.425  0.00  0.00    -0.075 C 
ATOM      7  H   UNL     1      35.085 -19.572 -19.222  0.00  0.00    -0.080 HD
ENDROOT
BRANCH   2   8
ATOM      8  C   UNL     1      33.372 -22.945 -16.979  0.00  0.00    +0.002 C 
ATOM      9  C   UNL     1      34.240 -23.342 -15.963  0.00  0.00    +0.002 C 
ATOM     10  C   UNL     1      31.993 -22.995 -16.781  0.00  0.00    -0.002 C 
ATOM     11  C   UNL     1      33.728 -23.791 -14.745  0.00  0.00    +0.071 C 
ATOM     12  C   UNL     1      31.481 -23.444 -15.563  0.00  0.00    -0.000 C 
ATOM     13  C   UNL     1      32.349 -23.842 -14.546  0.00  0.00    +0.004 C 
BRANCH  11  17
ATOM     14  F   UNL     1      35.542 -23.247 -13.284  0.00  0.00    -0.166 F 
ATOM     15  F   UNL     1      34.018 -24.580 -12.506  0.00  0.00    -0.166 F 
ATOM     16  F   UNL     1      35.417 -25.293 -14.010  0.00  0.00    -0.166 F 
ATOM     17  C   UNL     1      34.656 -24.217 -13.658  0.00  0.00    +0.419 C 
ENDBRANCH  11  17
ENDBRANCH   2   8
BRANCH   2  18
ATOM     18  O   UNL     1      33.895 -23.590 -19.188  0.00  0.00    -0.383 OA
ATOM     19  H   UNL     1      34.637 -23.542 -19.813  0.00  0.00    +0.211 HD
ENDBRANCH   2  18
BRANCH   1  20
ATOM     20  C   UNL     1      35.764 -19.697 -21.135  0.00  0.00    -0.077 C 
BRANCH  20  21
ATOM     21  C   UNL     1      34.682 -19.305 -22.144  0.00  0.00    -0.015 C 
BRANCH  21  22
ATOM     22  C   UNL     1      35.224 -18.401 -23.254  0.00  0.00    +0.067 C 
BRANCH  22  24
ATOM     23  O   UNL     1      33.328 -18.346 -24.748  0.00  0.00    -0.291 OA
ATOM     24  C   UNL     1      34.130 -17.717 -24.063  0.00  0.00    +0.173 C 
BRANCH  24  26
ATOM     25  F   UNL     1      33.716 -12.153 -23.828  0.00  0.00    -0.204 F 
ATOM     26  C   UNL     1      34.021 -16.231 -24.001  0.00  0.00    +0.035 C 
ATOM     27  C   UNL     1      33.414 -15.569 -25.045  0.00  0.00    +0.005 C 
ATOM     28  C   UNL     1      34.528 -15.577 -22.902  0.00  0.00    +0.005 C 
ATOM     29  C   UNL     1      33.311 -14.179 -24.986  0.00  0.00    +0.030 C 
ATOM     30  C   UNL     1      34.425 -14.187 -22.843  0.00  0.00    +0.030 C 
ATOM     31  C   UNL     1      33.816 -13.488 -23.885  0.00  0.00    +0.140 C 
ENDBRANCH  24  26
ENDBRANCH  22  24
ENDBRANCH  21  22
ENDBRANCH  20  21
ENDBRANCH   1  20
TORSDOF 8
ENDMDL
MODEL 4
REMARK VINA RESULT:     -11.3      3.259     10.866
REMARK  Name = 5567
REMARK  8 active torsions:
REMARK  status: ('A' for Active; 'I' for Inactive)
REMARK    1  A    between atoms: N_1  and  C_20
REMARK    2  A    between atoms: C_2  and  C_8
REMARK    3  A    between atoms: C_2  and  O_18
REMARK    4  A    between atoms: C_11  and  C_17
REMARK    5  A    between atoms: C_20  and  C_21
REMARK    6  A    between atoms: C_21  and  C_22
REMARK    7  A    between atoms: C_22  and  C_24
REMARK    8  A    between atoms: C_24  and  C_26
REMARK                            x       y       z     vdW  Elec       q    Type
REMARK                         _______ _______ _______ _____ _____    ______ ____
ROOT
ATOM      1  N   UNL     1      34.003 -16.056 -23.519  0.00  0.00    +0.387 N 
ATOM      2  C   UNL     1      33.566 -13.208 -22.797  0.00  0.00    +0.103 C 
ATOM      3  C   UNL     1      34.147 -14.261 -21.828  0.00  0.00    +0.008 C 
ATOM      4  C   UNL     1      32.764 -13.940 -23.898  0.00  0.00    +0.008 C 
ATOM      5  C   UNL     1      34.884 -15.398 -22.548  0.00  0.00    -0.075 C 
ATOM      6  C   UNL     1      33.532 -15.107 -24.532  0.00  0.00    -0.075 C 
ATOM      7  H   UNL     1      33.190 -16.410 -23.016  0.00  0.00    -0.080 HD
ENDROOT
BRANCH   2   8
ATOM      8  C   UNL     1      32.708 -12.128 -22.136  0.00  0.00    +0.002 C 
ATOM      9  C   UNL     1      32.762 -10.815 -22.601  0.00  0.00    +0.002 C 
ATOM     10  C   UNL     1      31.871 -12.459 -21.072  0.00  0.00    -0.002 C 
ATOM     11  C   UNL     1      31.978  -9.829 -22.000  0.00  0.00    +0.071 C 
ATOM     12  C   UNL     1      31.087 -11.474 -20.471  0.00  0.00    -0.000 C 
ATOM     13  C   UNL     1      31.141 -10.159 -20.934  0.00  0.00    +0.004 C 
BRANCH  11  17
ATOM     14  F   UNL     1      30.904  -8.025 -23.145  0.00  0.00    -0.166 F 
ATOM     15  F   UNL     1      32.222  -7.503 -21.503  0.00  0.00    -0.166 F 
ATOM     16  F   UNL     1      33.057  -8.221 -23.379  0.00  0.00    -0.166 F 
ATOM     17  C   UNL     1      32.038  -8.424 -22.495  0.00  0.00    +0.419 C 
ENDBRANCH  11  17
ENDBRANCH   2   8
BRANCH   2  18
ATOM     18  O   UNL     1      34.667 -12.507 -23.396  0.00  0.00    -0.383 OA
ATOM     19  H   UNL     1      35.493 -12.772 -22.960  0.00  0.00    +0.211 HD
ENDBRANCH   2  18
BRANCH   1  20
ATOM     20  C   UNL     1      34.689 -17.183 -24.151  0.00  0.00    -0.077 C 
BRANCH  20  21
ATOM     21  C   UNL     1      34.231 -18.501 -23.522  0.00  0.00    -0.015 C 
BRANCH  21  22
ATOM     22  C   UNL     1      35.355 -19.198 -22.751  0.00  0.00    +0.067 C 
BRANCH  22  24
ATOM     23  O   UNL     1      35.557 -17.940 -20.700  0.00  0.00    -0.291 OA
ATOM     24  C   UNL     1      35.265 -19.002 -21.243  0.00  0.00    +0.173 C 
BRANCH  24  26
ATOM     25  F   UNL     1      33.463 -23.255 -18.106  0.00  0.00    -0.204 F 
ATOM     26  C   UNL     1      34.784 -20.137 -20.405  0.00  0.00    +0.035 C 
ATOM     27  C   UNL     1      33.427 -20.345 -20.289  0.00  0.00    +0.005 C 
ATOM     28  C   UNL     1      35.713 -20.936 -19.779  0.00  0.00    +0.005 C 
ATOM     29  C   UNL     1      32.977 -21.407 -19.505  0.00  0.00    +0.030 C 
ATOM     30  C   UNL     1      35.263 -21.999 -18.995  0.00  0.00    +0.030 C 
ATOM     31  C   UNL     1      33.895 -22.235 -18.858  0.00  0.00    +0.140 C 
ENDBRANCH  24  26
ENDBRANCH  22  24
ENDBRANCH  21  22
ENDBRANCH  20  21
ENDBRANCH   1  20
TORSDOF 8
ENDMDL
MODEL 5
REMARK VINA RESULT:     -11.1      3.370     11.018
REMARK  Name = 5567
REMARK  8 active torsions:
REMARK  status: ('A' for Active; 'I' for Inactive)
REMARK    1  A    between atoms: N_1  and  C_20
REMARK    2  A    between atoms: C_2  and  C_8
REMARK    3  A    between atoms: C_2  and  O_18
REMARK    4  A    between atoms: C_11  and  C_17
REMARK    5  A    between atoms: C_20  and  C_21
REMARK    6  A    between atoms: C_21  and  C_22
REMARK    7  A    between atoms: C_22  and  C_24
REMARK    8  A    between atoms: C_24  and  C_26
REMARK                            x       y       z     vdW  Elec       q    Type
REMARK                         _______ _______ _______ _____ _____    ______ ____
ROOT
ATOM      1  N   UNL     1      34.520 -15.940 -24.480  0.00  0.00    +0.387 N 
ATOM      2  C   UNL     1      33.388 -13.328 -23.630  0.00  0.00    +0.103 C 
ATOM      3  C   UNL     1      33.357 -13.846 -25.085  0.00  0.00    +0.008 C 
ATOM      4  C   UNL     1      34.529 -14.047 -22.874  0.00  0.00    +0.008 C 
ATOM      5  C   UNL     1      33.359 -15.377 -25.178  0.00  0.00    -0.075 C 
ATOM      6  C   UNL     1      34.513 -15.570 -23.061  0.00  0.00    -0.075 C 
ATOM      7  H   UNL     1      35.361 -15.548 -24.904  0.00  0.00    -0.080 HD
ENDROOT
BRANCH   2   8
ATOM      8  C   UNL     1      33.523 -11.811 -23.488  0.00  0.00    +0.002 C 
ATOM      9  C   UNL     1      32.673 -11.114 -22.632  0.00  0.00    +0.002 C 
ATOM     10  C   UNL     1      34.499 -11.130 -24.214  0.00  0.00    -0.002 C 
ATOM     11  C   UNL     1      32.797  -9.730 -22.501  0.00  0.00    +0.071 C 
ATOM     12  C   UNL     1      34.623  -9.746 -24.083  0.00  0.00    -0.000 C 
ATOM     13  C   UNL     1      33.772  -9.047 -23.227  0.00  0.00    +0.004 C 
BRANCH  11  17
ATOM     14  F   UNL     1      31.113  -9.791 -20.804  0.00  0.00    -0.166 F 
ATOM     15  F   UNL     1      32.541  -8.162 -20.714  0.00  0.00    -0.166 F 
ATOM     16  F   UNL     1      31.012  -8.179 -22.259  0.00  0.00    -0.166 F 
ATOM     17  C   UNL     1      31.886  -8.982 -21.587  0.00  0.00    +0.419 C 
ENDBRANCH  11  17
ENDBRANCH   2   8
BRANCH   2  18
ATOM     18  O   UNL     1      32.130 -13.658 -23.021  0.00  0.00    -0.383 OA
ATOM     19  H   UNL     1      31.759 -14.444 -23.450  0.00  0.00    +0.211 HD
ENDBRANCH   2  18
BRANCH   1  20
ATOM     20  C   UNL     1      34.554 -17.394 -24.632  0.00  0.00    -0.077 C 
BRANCH  20  21
ATOM     21  C   UNL     1      34.130 -18.072 -23.327  0.00  0.00    -0.015 C 
BRANCH  21  22
ATOM     22  C   UNL     1      35.211 -19.009 -22.781  0.00  0.00    +0.067 C 
BRANCH  22  24
ATOM     23  O   UNL     1      35.851 -17.963 -20.701  0.00  0.00    -0.291 OA
ATOM     24  C   UNL     1      35.364 -18.938 -21.268  0.00  0.00    +0.173 C 
BRANCH  24  26
ATOM     25  F   UNL     1      33.564 -23.244 -18.202  0.00  0.00    -0.204 F 
ATOM     26  C   UNL     1      34.883 -20.087 -20.448  0.00  0.00    +0.035 C 
ATOM     27  C   UNL     1      33.526 -20.287 -20.321  0.00  0.00    +0.005 C 
ATOM     28  C   UNL     1      35.813 -20.907 -19.850  0.00  0.00    +0.005 C 
ATOM     29  C   UNL     1      33.077 -21.363 -19.555  0.00  0.00    +0.030 C 
ATOM     30  C   UNL     1      35.364 -21.982 -19.084  0.00  0.00    +0.030 C 
ATOM     31  C   UNL     1      33.995 -22.211 -18.937  0.00  0.00    +0.140 C 
ENDBRANCH  24  26
ENDBRANCH  22  24
ENDBRANCH  21  22
ENDBRANCH  20  21
ENDBRANCH   1  20
TORSDOF 8
ENDMDL
MODEL 6
REMARK VINA RESULT:     -10.9      1.562     10.097
REMARK  Name = 5567
REMARK  8 active torsions:
REMARK  status: ('A' for Active; 'I' for Inactive)
REMARK    1  A    between atoms: N_1  and  C_20
REMARK    2  A    between atoms: C_2  and  C_8
REMARK    3  A    between atoms: C_2  and  O_18
REMARK    4  A    between atoms: C_11  and  C_17
REMARK    5  A    between atoms: C_20  and  C_21
REMARK    6  A    between atoms: C_21  and  C_22
REMARK    7  A    between atoms: C_22  and  C_24
REMARK    8  A    between atoms: C_24  and  C_26
REMARK                            x       y       z     vdW  Elec       q    Type
REMARK                         _______ _______ _______ _____ _____    ______ ____
ROOT
ATOM      1  N   UNL     1      35.815 -20.109 -19.824  0.00  0.00    +0.387 N 
ATOM      2  C   UNL     1      35.237 -18.650 -22.347  0.00  0.00    +0.103 C 
ATOM      3  C   UNL     1      36.503 -18.421 -21.491  0.00  0.00    +0.008 C 
ATOM      4  C   UNL     1      34.139 -19.265 -21.448  0.00  0.00    +0.008 C 
ATOM      5  C   UNL     1      36.915 -19.658 -20.684  0.00  0.00    -0.075 C 
ATOM      6  C   UNL     1      34.633 -20.457 -20.617  0.00  0.00    -0.075 C 
ATOM      7  H   UNL     1      35.564 -19.338 -19.205  0.00  0.00    -0.080 HD
ENDROOT
BRANCH   2   8
ATOM      8  C   UNL     1      34.709 -17.407 -23.064  0.00  0.00    +0.002 C 
ATOM      9  C   UNL     1      34.608 -16.198 -22.378  0.00  0.00    +0.002 C 
ATOM     10  C   UNL     1      34.332 -17.486 -24.404  0.00  0.00    -0.002 C 
ATOM     11  C   UNL     1      34.128 -15.063 -23.033  0.00  0.00    +0.071 C 
ATOM     12  C   UNL     1      33.852 -16.351 -25.059  0.00  0.00    -0.000 C 
ATOM     13  C   UNL     1      33.750 -15.140 -24.373  0.00  0.00    +0.004 C 
BRANCH  11  17
ATOM     14  F   UNL     1      34.503 -12.701 -23.000  0.00  0.00    -0.166 F 
ATOM     15  F   UNL     1      32.734 -13.431 -21.979  0.00  0.00    -0.166 F 
ATOM     16  F   UNL     1      34.702 -13.775 -21.119  0.00  0.00    -0.166 F 
ATOM     17  C   UNL     1      34.018 -13.769 -22.300  0.00  0.00    +0.419 C 
ENDBRANCH  11  17
ENDBRANCH   2   8
BRANCH   2  18
ATOM     18  O   UNL     1      35.574 -19.579 -23.389  0.00  0.00    -0.383 OA
ATOM     19  H   UNL     1      36.503 -19.843 -23.298  0.00  0.00    +0.211 HD
ENDBRANCH   2  18
BRANCH   1  20
ATOM     20  C   UNL     1      36.237 -21.245 -19.005  0.00  0.00    -0.077 C 
BRANCH  20  21
ATOM     21  C   UNL     1      35.144 -22.316 -18.983  0.00  0.00    -0.015 C 
BRANCH  21  22
ATOM     22  C   UNL     1      34.628 -22.589 -17.567  0.00  0.00    +0.067 C 
BRANCH  22  24
ATOM     23  O   UNL     1      32.389 -22.248 -18.401  0.00  0.00    -0.291 OA
ATOM     24  C   UNL     1      33.109 -22.592 -17.467  0.00  0.00    +0.173 C 
BRANCH  24  26
ATOM     25  F   UNL     1      30.747 -24.308 -12.707  0.00  0.00    -0.204 F 
ATOM     26  C   UNL     1      32.479 -23.048 -16.196  0.00  0.00    +0.035 C 
ATOM     27  C   UNL     1      31.107 -22.997 -16.082  0.00  0.00    +0.005 C 
ATOM     28  C   UNL     1      33.290 -23.507 -15.183  0.00  0.00    +0.005 C 
ATOM     29  C   UNL     1      30.517 -23.425 -14.893  0.00  0.00    +0.030 C 
ATOM     30  C   UNL     1      32.700 -23.936 -13.994  0.00  0.00    +0.030 C 
ATOM     31  C   UNL     1      31.313 -23.896 -13.849  0.00  0.00    +0.140 C 
ENDBRANCH  24  26
ENDBRANCH  22  24
ENDBRANCH  21  22
ENDBRANCH  20  21
ENDBRANCH   1  20
TORSDOF 8
ENDMDL
MODEL 7
REMARK VINA RESULT:     -10.8      4.830      5.908
REMARK  Name = 5567
REMARK  8 active torsions:
REMARK  status: ('A' for Active; 'I' for Inactive)
REMARK    1  A    between atoms: N_1  and  C_20
REMARK    2  A    between atoms: C_2  and  C_8
REMARK    3  A    between atoms: C_2  and  O_18
REMARK    4  A    between atoms: C_11  and  C_17
REMARK    5  A    between atoms: C_20  and  C_21
REMARK    6  A    between atoms: C_21  and  C_22
REMARK    7  A    between atoms: C_22  and  C_24
REMARK    8  A    between atoms: C_24  and  C_26
REMARK                            x       y       z     vdW  Elec       q    Type
REMARK                         _______ _______ _______ _____ _____    ______ ____
ROOT
ATOM      1  N   UNL     1      34.683 -22.639 -17.807  0.00  0.00    +0.387 N 
ATOM      2  C   UNL     1      35.875 -23.237 -15.152  0.00  0.00    +0.103 C 
ATOM      3  C   UNL     1      36.664 -22.628 -16.332  0.00  0.00    +0.008 C 
ATOM      4  C   UNL     1      34.636 -23.972 -15.714  0.00  0.00    +0.008 C 
ATOM      5  C   UNL     1      35.784 -21.818 -17.290  0.00  0.00    -0.075 C 
ATOM      6  C   UNL     1      33.835 -23.131 -16.717  0.00  0.00    -0.075 C 
ATOM      7  H   UNL     1      35.089 -23.446 -18.280  0.00  0.00    -0.080 HD
ENDROOT
BRANCH   2   8
ATOM      8  C   UNL     1      36.683 -24.164 -14.244  0.00  0.00    +0.002 C 
ATOM      9  C   UNL     1      38.008 -24.464 -14.557  0.00  0.00    +0.002 C 
ATOM     10  C   UNL     1      36.094 -24.706 -13.102  0.00  0.00    -0.002 C 
ATOM     11  C   UNL     1      38.746 -25.309 -13.728  0.00  0.00    +0.071 C 
ATOM     12  C   UNL     1      36.832 -25.552 -12.273  0.00  0.00    -0.000 C 
ATOM     13  C   UNL     1      38.158 -25.853 -12.587  0.00  0.00    +0.004 C 
BRANCH  11  17
ATOM     14  F   UNL     1      40.989 -24.545 -14.054  0.00  0.00    -0.166 F 
ATOM     15  F   UNL     1      40.738 -26.524 -13.204  0.00  0.00    -0.166 F 
ATOM     16  F   UNL     1      40.296 -26.182 -15.306  0.00  0.00    -0.166 F 
ATOM     17  C   UNL     1      40.163 -25.633 -14.064  0.00  0.00    +0.419 C 
ENDBRANCH  11  17
ENDBRANCH   2   8
BRANCH   2  18
ATOM     18  O   UNL     1      35.445 -22.156 -14.309  0.00  0.00    -0.383 OA
ATOM     19  H   UNL     1      34.476 -22.139 -14.274  0.00  0.00    +0.211 HD
ENDBRANCH   2  18
BRANCH   1  20
ATOM     20  C   UNL     1      33.889 -21.881 -18.773  0.00  0.00    -0.077 C 
BRANCH  20  21
ATOM     21  C   UNL     1      34.797 -21.274 -19.844  0.00  0.00    -0.015 C 
BRANCH  21  22
ATOM     22  C   UNL     1      34.165 -20.054 -20.519  0.00  0.00    +0.067 C 
BRANCH  22  24
ATOM     23  O   UNL     1      36.262 -18.860 -20.453  0.00  0.00    -0.291 OA
ATOM     24  C   UNL     1      35.187 -19.042 -21.018  0.00  0.00    +0.173 C 
BRANCH  24  26
ATOM     25  F   UNL     1      34.015 -16.120 -25.630  0.00  0.00    -0.204 F 
ATOM     26  C   UNL     1      34.875 -18.262 -22.250  0.00  0.00    +0.035 C 
ATOM     27  C   UNL     1      34.290 -18.912 -23.314  0.00  0.00    +0.005 C 
ATOM     28  C   UNL     1      35.182 -16.920 -22.278  0.00  0.00    +0.005 C 
ATOM     29  C   UNL     1      33.997 -18.182 -24.466  0.00  0.00    +0.030 C 
ATOM     30  C   UNL     1      34.889 -16.190 -23.430  0.00  0.00    +0.030 C 
ATOM     31  C   UNL     1      34.296 -16.821 -24.524  0.00  0.00    +0.140 C 
ENDBRANCH  24  26
ENDBRANCH  22  24
ENDBRANCH  21  22
ENDBRANCH  20  21
ENDBRANCH   1  20
TORSDOF 8
ENDMDL
MODEL 8
REMARK VINA RESULT:     -10.7      3.830     11.182
REMARK  Name = 5567
REMARK  8 active torsions:
REMARK  status: ('A' for Active; 'I' for Inactive)
REMARK    1  A    between atoms: N_1  and  C_20
REMARK    2  A    between atoms: C_2  and  C_8
REMARK    3  A    between atoms: C_2  and  O_18
REMARK    4  A    between atoms: C_11  and  C_17
REMARK    5  A    between atoms: C_20  and  C_21
REMARK    6  A    between atoms: C_21  and  C_22
REMARK    7  A    between atoms: C_22  and  C_24
REMARK    8  A    between atoms: C_24  and  C_26
REMARK                            x       y       z     vdW  Elec       q    Type
REMARK                         _______ _______ _______ _____ _____    ______ ____
ROOT
ATOM      1  N   UNL     1      34.570 -14.569 -22.583  0.00  0.00    +0.387 N 
ATOM      2  C   UNL     1      32.556 -12.526 -21.810  0.00  0.00    +0.103 C 
ATOM      3  C   UNL     1      33.385 -12.468 -23.112  0.00  0.00    +0.008 C 
ATOM      4  C   UNL     1      33.307 -13.411 -20.788  0.00  0.00    +0.008 C 
ATOM      5  C   UNL     1      33.813 -13.851 -23.615  0.00  0.00    -0.075 C 
ATOM      6  C   UNL     1      33.766 -14.754 -21.371  0.00  0.00    -0.075 C 
ATOM      7  H   UNL     1      35.382 -14.003 -22.339  0.00  0.00    -0.080 HD
ENDROOT
BRANCH   2   8
ATOM      8  C   UNL     1      32.221 -11.165 -21.197  0.00  0.00    +0.002 C 
ATOM      9  C   UNL     1      32.122 -10.040 -22.013  0.00  0.00    +0.002 C 
ATOM     10  C   UNL     1      32.012 -11.055 -19.823  0.00  0.00    -0.002 C 
ATOM     11  C   UNL     1      31.814  -8.799 -21.454  0.00  0.00    +0.071 C 
ATOM     12  C   UNL     1      31.705  -9.814 -19.264  0.00  0.00    -0.000 C 
ATOM     13  C   UNL     1      31.606  -8.686 -20.080  0.00  0.00    +0.004 C 
BRANCH  11  17
ATOM     14  F   UNL     1      32.622  -7.574 -23.343  0.00  0.00    -0.166 F 
ATOM     15  F   UNL     1      30.495  -7.462 -22.935  0.00  0.00    -0.166 F 
ATOM     16  F   UNL     1      31.904  -6.430 -21.639  0.00  0.00    -0.166 F 
ATOM     17  C   UNL     1      31.710  -7.593 -22.326  0.00  0.00    +0.419 C 
ENDBRANCH  11  17
ENDBRANCH   2   8
BRANCH   2  18
ATOM     18  O   UNL     1      31.290 -13.127 -22.122  0.00  0.00    -0.383 OA
ATOM     19  H   UNL     1      31.420 -13.836 -22.771  0.00  0.00    +0.211 HD
ENDBRANCH   2  18
BRANCH   1  20
ATOM     20  C   UNL     1      35.036 -15.859 -23.092  0.00  0.00    -0.077 C 
BRANCH  20  21
ATOM     21  C   UNL     1      35.349 -16.804 -21.930  0.00  0.00    -0.015 C 
BRANCH  21  22
ATOM     22  C   UNL     1      35.583 -18.243 -22.400  0.00  0.00    +0.067 C 
BRANCH  22  24
ATOM     23  O   UNL     1      37.413 -19.118 -21.091  0.00  0.00    -0.291 OA
ATOM     24  C   UNL     1      36.209 -19.132 -21.334  0.00  0.00    +0.173 C 
BRANCH  24  26
ATOM     25  F   UNL     1      32.882 -22.501 -18.375  0.00  0.00    -0.204 F 
ATOM     26  C   UNL     1      35.321 -20.032 -20.545  0.00  0.00    +0.035 C 
ATOM     27  C   UNL     1      35.896 -20.930 -19.672  0.00  0.00    +0.005 C 
ATOM     28  C   UNL     1      33.959 -19.932 -20.716  0.00  0.00    +0.005 C 
ATOM     29  C   UNL     1      35.065 -21.772 -18.933  0.00  0.00    +0.030 C 
ATOM     30  C   UNL     1      33.128 -20.774 -19.977  0.00  0.00    +0.030 C 
ATOM     31  C   UNL     1      33.680 -21.694 -19.085  0.00  0.00    +0.140 C 
ENDBRANCH  24  26
ENDBRANCH  22  24
ENDBRANCH  21  22
ENDBRANCH  20  21
ENDBRANCH   1  20
TORSDOF 8
ENDMDL
MODEL 9
REMARK VINA RESULT:     -10.7      6.692     10.287
REMARK  Name = 5567
REMARK  8 active torsions:
REMARK  status: ('A' for Active; 'I' for Inactive)
REMARK    1  A    between atoms: N_1  and  C_20
REMARK    2  A    between atoms: C_2  and  C_8
REMARK    3  A    between atoms: C_2  and  O_18
REMARK    4  A    between atoms: C_11  and  C_17
REMARK    5  A    between atoms: C_20  and  C_21
REMARK    6  A    between atoms: C_21  and  C_22
REMARK    7  A    between atoms: C_22  and  C_24
REMARK    8  A    between atoms: C_24  and  C_26
REMARK                            x       y       z     vdW  Elec       q    Type
REMARK                         _______ _______ _______ _____ _____    ______ ____
ROOT
ATOM      1  N   UNL     1      31.969 -10.850 -22.477  0.00  0.00    +0.387 N 
ATOM      2  C   UNL     1      33.691 -13.267 -22.637  0.00  0.00    +0.103 C 
ATOM      3  C   UNL     1      33.723 -12.118 -23.669  0.00  0.00    +0.008 C 
ATOM      4  C   UNL     1      32.324 -13.241 -21.914  0.00  0.00    +0.008 C 
ATOM      5  C   UNL     1      33.306 -10.766 -23.077  0.00  0.00    -0.075 C 
ATOM      6  C   UNL     1      31.935 -11.848 -21.403  0.00  0.00    -0.075 C 
ATOM      7  H   UNL     1      31.318 -11.147 -23.204  0.00  0.00    -0.080 HD
ENDROOT
BRANCH   2   8
ATOM      8  C   UNL     1      33.968 -14.657 -23.211  0.00  0.00    +0.002 C 
ATOM      9  C   UNL     1      34.560 -15.634 -22.412  0.00  0.00    +0.002 C 
ATOM     10  C   UNL     1      33.626 -14.945 -24.531  0.00  0.00    -0.002 C 
ATOM     11  C   UNL     1      34.812 -16.903 -22.934  0.00  0.00    +0.071 C 
ATOM     12  C   UNL     1      33.878 -16.214 -25.053  0.00  0.00    -0.000 C 
ATOM     13  C   UNL     1      34.471 -17.193 -24.255  0.00  0.00    +0.004 C 
BRANCH  11  17
ATOM     14  F   UNL     1      34.741 -19.117 -22.032  0.00  0.00    -0.166 F 
ATOM     15  F   UNL     1      36.698 -18.306 -22.495  0.00  0.00    -0.166 F 
ATOM     16  F   UNL     1      35.589 -17.552 -20.783  0.00  0.00    -0.166 F 
ATOM     17  C   UNL     1      35.447 -17.949 -22.081  0.00  0.00    +0.419 C 
ENDBRANCH  11  17
ENDBRANCH   2   8
BRANCH   2  18
ATOM     18  O   UNL     1      34.739 -13.030 -21.684  0.00  0.00    -0.383 OA
ATOM     19  H   UNL     1      35.442 -12.507 -22.101  0.00  0.00    +0.211 HD
ENDBRANCH   2  18
BRANCH   1  20
ATOM     20  C   UNL     1      31.548  -9.542 -21.977  0.00  0.00    -0.077 C 
BRANCH  20  21
ATOM     21  C   UNL     1      31.950  -9.382 -20.510  0.00  0.00    -0.015 C 
BRANCH  21  22
ATOM     22  C   UNL     1      32.698  -8.071 -20.252  0.00  0.00    +0.067 C 
BRANCH  22  24
ATOM     23  O   UNL     1      31.231  -6.272 -20.918  0.00  0.00    -0.291 OA
ATOM     24  C   UNL     1      32.242  -6.929 -21.151  0.00  0.00    +0.173 C 
BRANCH  24  26
ATOM     25  F   UNL     1      35.335  -5.656 -25.622  0.00  0.00    -0.204 F 
ATOM     26  C   UNL     1      33.068  -6.588 -22.344  0.00  0.00    +0.035 C 
ATOM     27  C   UNL     1      34.320  -7.150 -22.464  0.00  0.00    +0.005 C 
ATOM     28  C   UNL     1      32.549  -5.726 -23.283  0.00  0.00    +0.005 C 
ATOM     29  C   UNL     1      35.093  -6.832 -23.581  0.00  0.00    +0.030 C 
ATOM     30  C   UNL     1      33.322  -5.407 -24.400  0.00  0.00    +0.030 C 
ATOM     31  C   UNL     1      34.594  -5.961 -24.549  0.00  0.00    +0.140 C 
ENDBRANCH  24  26
ENDBRANCH  22  24
ENDBRANCH  21  22
ENDBRANCH  20  21
ENDBRANCH   1  20
TORSDOF 8
ENDMDL
