MODEL 1
REMARK VINA RESULT:     -12.1      0.000      0.000
REMARK  Name = 44472635
REMARK  7 active torsions:
REMARK  status: ('A' for Active; 'I' for Inactive)
REMARK    1  A    between atoms: C_1  and  C_21
REMARK    2  A    between atoms: C_4  and  N_8
REMARK    3  A    between atoms: C_9  and  C_14
REMARK    4  A    between atoms: C_21  and  C_24
REMARK    5  A    between atoms: C_23  and  C_29
REMARK    6  A    between atoms: C_29  and  C_30
REMARK    7  A    between atoms: C_29  and  O_36
REMARK                            x       y       z     vdW  Elec       q    Type
REMARK                         _______ _______ _______ _____ _____    ______ ____
ROOT
ATOM      1  C   UNL     1      35.177 -20.158 -20.552  0.00  0.00    -0.024 C 
ATOM      2  C   UNL     1      36.120 -20.879 -19.820  0.00  0.00    -0.003 C 
ATOM      3  C   UNL     1      33.815 -20.366 -20.332  0.00  0.00    -0.003 C 
ATOM      4  C   UNL     1      34.339 -22.015 -18.646  0.00  0.00    +0.050 C 
ATOM      5  C   UNL     1      35.701 -21.808 -18.867  0.00  0.00    +0.014 C 
ATOM      6  C   UNL     1      33.396 -21.293 -19.379  0.00  0.00    +0.014 C 
ENDROOT
BRANCH   4   8
ATOM      7  O   UNL     1      35.213 -22.419 -15.794  0.00  0.00    -0.273 OA
ATOM      8  N   UNL     1      33.913 -22.957 -17.680  0.00  0.00    -0.283 N 
ATOM      9  C   UNL     1      34.363 -23.089 -16.374  0.00  0.00    +0.245 C 
ATOM     10  H   UNL     1      33.218 -23.592 -17.968  0.00  0.00    +0.155 HD
BRANCH   9  14
ATOM     11  O   UNL     1      36.132 -25.789 -15.237  0.00  0.00    -0.269 OA
ATOM     12  N   UNL     1      34.387 -24.469 -14.446  0.00  0.00    -0.237 N 
ATOM     13  N   UNL     1      34.179 -23.949 -12.128  0.00  0.00    -0.233 NA
ATOM     14  C   UNL     1      33.661 -24.211 -15.671  0.00  0.00    +0.158 C 
ATOM     15  C   UNL     1      32.279 -23.796 -15.187  0.00  0.00    +0.037 C 
ATOM     16  C   UNL     1      32.522 -23.176 -13.809  0.00  0.00    +0.064 C 
ATOM     17  C   UNL     1      33.758 -23.889 -13.348  0.00  0.00    +0.115 C 
ATOM     18  C   UNL     1      35.538 -25.222 -14.327  0.00  0.00    +0.256 C 
ATOM     19  C   UNL     1      36.030 -25.292 -12.927  0.00  0.00    +0.079 C 
ATOM     20  C   UNL     1      35.339 -24.669 -11.961  0.00  0.00    +0.105 C 
ENDBRANCH   9  14
ENDBRANCH   4   8
BRANCH   1  21
ATOM     21  C   UNL     1      35.625 -19.166 -21.572  0.00  0.00    +0.005 C 
BRANCH  21  24
ATOM     22  N   UNL     1      34.699 -17.309 -22.928  0.00  0.00    +0.388 N 
ATOM     23  C   UNL     1      33.741 -17.149 -24.032  0.00  0.00    -0.030 C 
ATOM     24  C   UNL     1      34.480 -18.680 -22.446  0.00  0.00    -0.057 C 
ATOM     25  C   UNL     1      33.669 -18.519 -24.708  0.00  0.00    -0.021 C 
ATOM     26  C   UNL     1      34.330 -19.483 -23.730  0.00  0.00    -0.023 C 
ATOM     27  H   UNL     1      34.511 -16.633 -22.188  0.00  0.00    -0.084 HD
ATOM     28  H   UNL     1      35.662 -17.150 -23.224  0.00  0.00    -0.084 HD
BRANCH  23  29
ATOM     29  C   UNL     1      34.157 -16.038 -24.985  0.00  0.00    +0.113 C 
BRANCH  29  30
ATOM     30  C   UNL     1      33.928 -14.664 -24.396  0.00  0.00    +0.002 C 
ATOM     31  C   UNL     1      33.678 -13.578 -25.234  0.00  0.00    -0.002 C 
ATOM     32  C   UNL     1      33.969 -14.483 -23.014  0.00  0.00    -0.002 C 
ATOM     33  C   UNL     1      33.467 -12.311 -24.691  0.00  0.00    -0.000 C 
ATOM     34  C   UNL     1      33.759 -13.216 -22.469  0.00  0.00    -0.000 C 
ATOM     35  C   UNL     1      33.507 -12.130 -23.308  0.00  0.00    -0.000 C 
ENDBRANCH  29  30
BRANCH  29  36
ATOM     36  O   UNL     1      35.539 -16.178 -25.315  0.00  0.00    -0.382 OA
ATOM     37  H   UNL     1      36.068 -16.164 -24.502  0.00  0.00    +0.211 HD
ENDBRANCH  29  36
ENDBRANCH  23  29
ENDBRANCH  21  24
ENDBRANCH   1  21
TORSDOF 7
ENDMDL
MODEL 2
REMARK VINA RESULT:     -11.9      4.765      9.031
REMARK  Name = 44472635
REMARK  7 active torsions:
REMARK  status: ('A' for Active; 'I' for Inactive)
REMARK    1  A    between atoms: C_1  and  C_21
REMARK    2  A    between atoms: C_4  and  N_8
REMARK    3  A    between atoms: C_9  and  C_14
REMARK    4  A    between atoms: C_21  and  C_24
REMARK    5  A    between atoms: C_23  and  C_29
REMARK    6  A    between atoms: C_29  and  C_30
REMARK    7  A    between atoms: C_29  and  O_36
REMARK                            x       y       z     vdW  Elec       q    Type
REMARK                         _______ _______ _______ _____ _____    ______ ____
ROOT
ATOM      1  C   UNL     1      32.212 -12.300 -21.357  0.00  0.00    -0.024 C 
ATOM      2  C   UNL     1      32.722 -12.461 -22.646  0.00  0.00    -0.003 C 
ATOM      3  C   UNL     1      32.463 -13.266 -20.383  0.00  0.00    -0.003 C 
ATOM      4  C   UNL     1      33.734 -14.553 -21.984  0.00  0.00    +0.050 C 
ATOM      5  C   UNL     1      33.483 -13.588 -22.959  0.00  0.00    +0.014 C 
ATOM      6  C   UNL     1      33.224 -14.392 -20.695  0.00  0.00    +0.014 C 
ENDROOT
BRANCH   4   8
ATOM      7  O   UNL     1      34.983 -16.627 -20.194  0.00  0.00    -0.273 OA
ATOM      8  N   UNL     1      34.506 -15.696 -22.301  0.00  0.00    -0.283 N 
ATOM      9  C   UNL     1      35.056 -16.615 -21.419  0.00  0.00    +0.245 C 
ATOM     10  H   UNL     1      34.671 -15.857 -23.259  0.00  0.00    +0.155 HD
BRANCH   9  14
ATOM     11  O   UNL     1      37.663 -18.238 -19.909  0.00  0.00    -0.269 OA
ATOM     12  N   UNL     1      35.876 -18.835 -21.275  0.00  0.00    -0.237 N 
ATOM     13  N   UNL     1      34.752 -20.921 -21.004  0.00  0.00    -0.233 NA
ATOM     14  C   UNL     1      35.806 -17.686 -22.152  0.00  0.00    +0.158 C 
ATOM     15  C   UNL     1      35.025 -18.200 -23.353  0.00  0.00    +0.037 C 
ATOM     16  C   UNL     1      34.132 -19.308 -22.787  0.00  0.00    +0.064 C 
ATOM     17  C   UNL     1      34.926 -19.795 -21.613  0.00  0.00    +0.115 C 
ATOM     18  C   UNL     1      36.780 -19.017 -20.247  0.00  0.00    +0.256 C 
ATOM     19  C   UNL     1      36.584 -20.309 -19.539  0.00  0.00    +0.079 C 
ATOM     20  C   UNL     1      35.615 -21.138 -19.955  0.00  0.00    +0.105 C 
ENDBRANCH   9  14
ENDBRANCH   4   8
BRANCH   1  21
ATOM     21  C   UNL     1      31.397 -11.097 -21.023  0.00  0.00    +0.005 C 
BRANCH  21  24
ATOM     22  N   UNL     1      32.091  -8.877 -21.881  0.00  0.00    +0.388 N 
ATOM     23  C   UNL     1      32.652  -7.633 -21.334  0.00  0.00    -0.030 C 
ATOM     24  C   UNL     1      32.254  -9.861 -20.802  0.00  0.00    -0.057 C 
ATOM     25  C   UNL     1      32.303  -7.652 -19.845  0.00  0.00    -0.021 C 
ATOM     26  C   UNL     1      31.864  -9.082 -19.554  0.00  0.00    -0.023 C 
ATOM     27  H   UNL     1      32.603  -9.167 -22.714  0.00  0.00    -0.084 HD
ATOM     28  H   UNL     1      31.117  -8.771 -22.166  0.00  0.00    -0.084 HD
BRANCH  23  29
ATOM     29  C   UNL     1      32.113  -6.405 -22.054  0.00  0.00    +0.113 C 
BRANCH  29  30
ATOM     30  C   UNL     1      32.964  -6.022 -23.244  0.00  0.00    +0.002 C 
ATOM     31  C   UNL     1      32.459  -5.154 -24.213  0.00  0.00    -0.002 C 
ATOM     32  C   UNL     1      34.253  -6.538 -23.374  0.00  0.00    -0.002 C 
ATOM     33  C   UNL     1      33.244  -4.802 -25.310  0.00  0.00    -0.000 C 
ATOM     34  C   UNL     1      35.038  -6.187 -24.472  0.00  0.00    -0.000 C 
ATOM     35  C   UNL     1      34.534  -5.318 -25.440  0.00  0.00    -0.000 C 
ENDBRANCH  29  30
BRANCH  29  36
ATOM     36  O   UNL     1      30.779  -6.653 -22.496  0.00  0.00    -0.382 OA
ATOM     37  H   UNL     1      30.644  -7.608 -22.596  0.00  0.00    +0.211 HD
ENDBRANCH  29  36
ENDBRANCH  23  29
ENDBRANCH  21  24
ENDBRANCH   1  21
TORSDOF 7
ENDMDL
MODEL 3
REMARK VINA RESULT:     -11.4      6.046     14.319
REMARK  Name = 44472635
REMARK  7 active torsions:
REMARK  status: ('A' for Active; 'I' for Inactive)
REMARK    1  A    between atoms: C_1  and  C_21
REMARK    2  A    between atoms: C_4  and  N_8
REMARK    3  A    between atoms: C_9  and  C_14
REMARK    4  A    between atoms: C_21  and  C_24
REMARK    5  A    between atoms: C_23  and  C_29
REMARK    6  A    between atoms: C_29  and  C_30
REMARK    7  A    between atoms: C_29  and  O_36
REMARK                            x       y       z     vdW  Elec       q    Type
REMARK                         _______ _______ _______ _____ _____    ______ ____
ROOT
ATOM      1  C   UNL     1      32.788 -12.423 -22.576  0.00  0.00    -0.024 C 
ATOM      2  C   UNL     1      32.007 -11.678 -21.693  0.00  0.00    -0.003 C 
ATOM      3  C   UNL     1      33.688 -11.778 -23.426  0.00  0.00    -0.003 C 
ATOM      4  C   UNL     1      33.025  -9.644 -22.508  0.00  0.00    +0.050 C 
ATOM      5  C   UNL     1      32.125 -10.288 -21.659  0.00  0.00    +0.014 C 
ATOM      6  C   UNL     1      33.807 -10.389 -23.391  0.00  0.00    +0.014 C 
ENDROOT
BRANCH   4   8
ATOM      7  O   UNL     1      30.981  -7.493 -23.020  0.00  0.00    -0.273 OA
ATOM      8  N   UNL     1      33.146  -8.234 -22.473  0.00  0.00    -0.283 N 
ATOM      9  C   UNL     1      32.155  -7.295 -22.724  0.00  0.00    +0.245 C 
ATOM     10  H   UNL     1      34.036  -7.879 -22.245  0.00  0.00    +0.155 HD
BRANCH   9  14
ATOM     11  O   UNL     1      35.385  -6.580 -23.602  0.00  0.00    -0.269 OA
ATOM     12  N   UNL     1      33.310  -5.553 -23.843  0.00  0.00    -0.237 N 
ATOM     13  N   UNL     1      32.769  -4.298 -25.797  0.00  0.00    -0.233 NA
ATOM     14  C   UNL     1      32.685  -5.900 -22.584  0.00  0.00    +0.158 C 
ATOM     15  C   UNL     1      31.562  -4.881 -22.450  0.00  0.00    +0.037 C 
ATOM     16  C   UNL     1      31.192  -4.523 -23.891  0.00  0.00    +0.064 C 
ATOM     17  C   UNL     1      32.478  -4.755 -24.624  0.00  0.00    +0.115 C 
ATOM     18  C   UNL     1      34.583  -5.910 -24.243  0.00  0.00    +0.256 C 
ATOM     19  C   UNL     1      34.922  -5.390 -25.593  0.00  0.00    +0.079 C 
ATOM     20  C   UNL     1      34.019  -4.648 -26.250  0.00  0.00    +0.105 C 
ENDBRANCH   9  14
ENDBRANCH   4   8
BRANCH   1  21
ATOM     21  C   UNL     1      32.660 -13.908 -22.615  0.00  0.00    +0.005 C 
BRANCH  21  24
ATOM     22  N   UNL     1      34.038 -15.932 -23.000  0.00  0.00    +0.388 N 
ATOM     23  C   UNL     1      34.796 -16.530 -24.110  0.00  0.00    -0.030 C 
ATOM     24  C   UNL     1      33.754 -14.561 -23.445  0.00  0.00    -0.057 C 
ATOM     25  C   UNL     1      34.200 -15.922 -25.381  0.00  0.00    -0.021 C 
ATOM     26  C   UNL     1      33.365 -14.739 -24.906  0.00  0.00    -0.023 C 
ATOM     27  H   UNL     1      34.596 -15.926 -22.146  0.00  0.00    -0.084 HD
ATOM     28  H   UNL     1      33.190 -16.455 -22.785  0.00  0.00    -0.084 HD
BRANCH  23  29
ATOM     29  C   UNL     1      34.724 -18.050 -24.089  0.00  0.00    +0.113 C 
BRANCH  29  30
ATOM     30  C   UNL     1      35.186 -18.625 -22.769  0.00  0.00    +0.002 C 
ATOM     31  C   UNL     1      36.489 -18.398 -22.326  0.00  0.00    -0.002 C 
ATOM     32  C   UNL     1      34.309 -19.385 -21.995  0.00  0.00    -0.002 C 
ATOM     33  C   UNL     1      36.915 -18.929 -21.110  0.00  0.00    -0.000 C 
ATOM     34  C   UNL     1      34.735 -19.917 -20.778  0.00  0.00    -0.000 C 
ATOM     35  C   UNL     1      36.038 -19.689 -20.335  0.00  0.00    -0.000 C 
ENDBRANCH  29  30
BRANCH  29  36
ATOM     36  O   UNL     1      33.384 -18.473 -24.337  0.00  0.00    -0.382 OA
ATOM     37  H   UNL     1      32.824 -18.234 -23.582  0.00  0.00    +0.211 HD
ENDBRANCH  29  36
ENDBRANCH  23  29
ENDBRANCH  21  24
ENDBRANCH   1  21
TORSDOF 7
ENDMDL
MODEL 4
REMARK VINA RESULT:     -11.2      5.650     13.228
REMARK  Name = 44472635
REMARK  7 active torsions:
REMARK  status: ('A' for Active; 'I' for Inactive)
REMARK    1  A    between atoms: C_1  and  C_21
REMARK    2  A    between atoms: C_4  and  N_8
REMARK    3  A    between atoms: C_9  and  C_14
REMARK    4  A    between atoms: C_21  and  C_24
REMARK    5  A    between atoms: C_23  and  C_29
REMARK    6  A    between atoms: C_29  and  C_30
REMARK    7  A    between atoms: C_29  and  O_36
REMARK                            x       y       z     vdW  Elec       q    Type
REMARK                         _______ _______ _______ _____ _____    ______ ____
ROOT
ATOM      1  C   UNL     1      33.444 -13.749 -24.893  0.00  0.00    -0.024 C 
ATOM      2  C   UNL     1      33.086 -13.674 -23.546  0.00  0.00    -0.003 C 
ATOM      3  C   UNL     1      33.837 -12.598 -25.575  0.00  0.00    -0.003 C 
ATOM      4  C   UNL     1      33.516 -11.296 -23.565  0.00  0.00    +0.050 C 
ATOM      5  C   UNL     1      33.122 -12.448 -22.882  0.00  0.00    +0.014 C 
ATOM      6  C   UNL     1      33.874 -11.372 -24.912  0.00  0.00    +0.014 C 
ENDROOT
BRANCH   4   8
ATOM      7  O   UNL     1      31.299  -9.673 -22.334  0.00  0.00    -0.273 OA
ATOM      8  N   UNL     1      33.553 -10.052 -22.892  0.00  0.00    -0.283 N 
ATOM      9  C   UNL     1      32.484  -9.354 -22.347  0.00  0.00    +0.245 C 
ATOM     10  H   UNL     1      34.440  -9.633 -22.801  0.00  0.00    +0.155 HD
BRANCH   9  14
ATOM     11  O   UNL     1      35.455  -7.935 -23.280  0.00  0.00    -0.269 OA
ATOM     12  N   UNL     1      33.309  -7.177 -22.792  0.00  0.00    -0.237 N 
ATOM     13  N   UNL     1      32.352  -5.332 -23.962  0.00  0.00    -0.233 NA
ATOM     14  C   UNL     1      32.940  -8.072 -21.718  0.00  0.00    +0.158 C 
ATOM     15  C   UNL     1      31.795  -7.347 -21.025  0.00  0.00    +0.037 C 
ATOM     16  C   UNL     1      31.154  -6.498 -22.126  0.00  0.00    +0.064 C 
ATOM     17  C   UNL     1      32.303  -6.251 -23.055  0.00  0.00    +0.115 C 
ATOM     18  C   UNL     1      34.511  -7.177 -23.472  0.00  0.00    +0.256 C 
ATOM     19  C   UNL     1      34.573  -6.125 -24.520  0.00  0.00    +0.079 C 
ATOM     20  C   UNL     1      33.522  -5.307 -24.684  0.00  0.00    +0.105 C 
ENDBRANCH   9  14
ENDBRANCH   4   8
BRANCH   1  21
ATOM     21  C   UNL     1      33.404 -15.060 -25.603  0.00  0.00    +0.005 C 
BRANCH  21  24
ATOM     22  N   UNL     1      34.347 -15.920 -23.478  0.00  0.00    +0.388 N 
ATOM     23  C   UNL     1      34.879 -17.193 -22.968  0.00  0.00    -0.030 C 
ATOM     24  C   UNL     1      34.279 -16.107 -24.935  0.00  0.00    -0.057 C 
ATOM     25  C   UNL     1      34.293 -18.272 -23.879  0.00  0.00    -0.021 C 
ATOM     26  C   UNL     1      33.735 -17.520 -25.082  0.00  0.00    -0.023 C 
ATOM     27  H   UNL     1      34.971 -15.149 -23.243  0.00  0.00    -0.084 HD
ATOM     28  H   UNL     1      33.440 -15.690 -23.074  0.00  0.00    -0.084 HD
BRANCH  23  29
ATOM     29  C   UNL     1      34.532 -17.403 -21.501  0.00  0.00    +0.113 C 
BRANCH  29  30
ATOM     30  C   UNL     1      35.166 -18.654 -20.937  0.00  0.00    +0.002 C 
ATOM     31  C   UNL     1      36.550 -18.721 -20.770  0.00  0.00    -0.002 C 
ATOM     32  C   UNL     1      34.368 -19.742 -20.585  0.00  0.00    -0.002 C 
ATOM     33  C   UNL     1      37.134 -19.876 -20.251  0.00  0.00    -0.000 C 
ATOM     34  C   UNL     1      34.952 -20.897 -20.066  0.00  0.00    -0.000 C 
ATOM     35  C   UNL     1      36.335 -20.964 -19.898  0.00  0.00    -0.000 C 
ENDBRANCH  29  30
BRANCH  29  36
ATOM     36  O   UNL     1      34.966 -16.277 -20.738  0.00  0.00    -0.382 OA
ATOM     37  H   UNL     1      35.916 -16.353 -20.560  0.00  0.00    +0.211 HD
ENDBRANCH  29  36
ENDBRANCH  23  29
ENDBRANCH  21  24
ENDBRANCH   1  21
TORSDOF 7
ENDMDL
MODEL 5
REMARK VINA RESULT:     -11.0      6.211     14.564
REMARK  Name = 44472635
REMARK  7 active torsions:
REMARK  status: ('A' for Active; 'I' for Inactive)
REMARK    1  A    between atoms: C_1  and  C_21
REMARK    2  A    between atoms: C_4  and  N_8
REMARK    3  A    between atoms: C_9  and  C_14
REMARK    4  A    between atoms: C_21  and  C_24
REMARK    5  A    between atoms: C_23  and  C_29
REMARK    6  A    between atoms: C_29  and  C_30
REMARK    7  A    between atoms: C_29  and  O_36
REMARK                            x       y       z     vdW  Elec       q    Type
REMARK                         _______ _______ _______ _____ _____    ______ ____
ROOT
ATOM      1  C   UNL     1      32.535 -12.295 -22.391  0.00  0.00    -0.024 C 
ATOM      2  C   UNL     1      33.360 -11.560 -23.244  0.00  0.00    -0.003 C 
ATOM      3  C   UNL     1      31.786 -11.641 -21.413  0.00  0.00    -0.003 C 
ATOM      4  C   UNL     1      32.685  -9.520 -22.140  0.00  0.00    +0.050 C 
ATOM      5  C   UNL     1      33.436 -10.173 -23.118  0.00  0.00    +0.014 C 
ATOM      6  C   UNL     1      31.860 -10.254 -21.287  0.00  0.00    +0.014 C 
ENDROOT
BRANCH   4   8
ATOM      7  O   UNL     1      31.342  -7.338 -23.721  0.00  0.00    -0.273 OA
ATOM      8  N   UNL     1      32.761  -8.113 -22.012  0.00  0.00    -0.283 N 
ATOM      9  C   UNL     1      32.112  -7.158 -22.782  0.00  0.00    +0.245 C 
ATOM     10  H   UNL     1      33.342  -7.772 -21.293  0.00  0.00    +0.155 HD
BRANCH   9  14
ATOM     11  O   UNL     1      33.811  -5.033 -24.858  0.00  0.00    -0.269 OA
ATOM     12  N   UNL     1      32.029  -4.863 -23.370  0.00  0.00    -0.237 N 
ATOM     13  N   UNL     1      30.191  -3.407 -23.801  0.00  0.00    -0.233 NA
ATOM     14  C   UNL     1      32.455  -5.771 -22.327  0.00  0.00    +0.158 C 
ATOM     15  C   UNL     1      31.623  -5.351 -21.124  0.00  0.00    +0.037 C 
ATOM     16  C   UNL     1      30.344  -4.763 -21.726  0.00  0.00    +0.064 C 
ATOM     17  C   UNL     1      30.815  -4.259 -23.057  0.00  0.00    +0.115 C 
ATOM     18  C   UNL     1      32.726  -4.570 -24.526  0.00  0.00    +0.256 C 
ATOM     19  C   UNL     1      32.012  -3.593 -25.388  0.00  0.00    +0.079 C 
ATOM     20  C   UNL     1      30.834  -3.100 -24.977  0.00  0.00    +0.105 C 
ENDBRANCH   9  14
ENDBRANCH   4   8
BRANCH   1  21
ATOM     21  C   UNL     1      32.456 -13.778 -22.524  0.00  0.00    +0.005 C 
BRANCH  21  24
ATOM     22  N   UNL     1      33.891 -15.727 -23.058  0.00  0.00    +0.388 N 
ATOM     23  C   UNL     1      34.654 -16.225 -24.212  0.00  0.00    -0.030 C 
ATOM     24  C   UNL     1      33.559 -14.339 -23.406  0.00  0.00    -0.057 C 
ATOM     25  C   UNL     1      34.026 -15.552 -25.433  0.00  0.00    -0.021 C 
ATOM     26  C   UNL     1      33.160 -14.430 -24.872  0.00  0.00    -0.023 C 
ATOM     27  H   UNL     1      34.458 -15.761 -22.211  0.00  0.00    -0.084 HD
ATOM     28  H   UNL     1      33.061 -16.290 -22.870  0.00  0.00    -0.084 HD
BRANCH  23  29
ATOM     29  C   UNL     1      34.629 -17.745 -24.293  0.00  0.00    +0.113 C 
BRANCH  29  30
ATOM     30  C   UNL     1      35.029 -18.393 -22.987  0.00  0.00    +0.002 C 
ATOM     31  C   UNL     1      34.146 -19.255 -22.336  0.00  0.00    -0.002 C 
ATOM     32  C   UNL     1      36.281 -18.128 -22.432  0.00  0.00    -0.002 C 
ATOM     33  C   UNL     1      34.515 -19.852 -21.132  0.00  0.00    -0.000 C 
ATOM     34  C   UNL     1      36.650 -18.725 -21.227  0.00  0.00    -0.000 C 
ATOM     35  C   UNL     1      35.767 -19.587 -20.577  0.00  0.00    -0.000 C 
ENDBRANCH  29  30
BRANCH  29  36
ATOM     36  O   UNL     1      33.320 -18.187 -24.651  0.00  0.00    -0.382 OA
ATOM     37  H   UNL     1      33.141 -19.041 -24.229  0.00  0.00    +0.211 HD
ENDBRANCH  29  36
ENDBRANCH  23  29
ENDBRANCH  21  24
ENDBRANCH   1  21
TORSDOF 7
ENDMDL
MODEL 6
REMARK VINA RESULT:     -11.0      6.162     10.821
REMARK  Name = 44472635
REMARK  7 active torsions:
REMARK  status: ('A' for Active; 'I' for Inactive)
REMARK    1  A    between atoms: C_1  and  C_21
REMARK    2  A    between atoms: C_4  and  N_8
REMARK    3  A    between atoms: C_9  and  C_14
REMARK    4  A    between atoms: C_21  and  C_24
REMARK    5  A    between atoms: C_23  and  C_29
REMARK    6  A    between atoms: C_29  and  C_30
REMARK    7  A    between atoms: C_29  and  O_36
REMARK                            x       y       z     vdW  Elec       q    Type
REMARK                         _______ _______ _______ _____ _____    ______ ____
ROOT
ATOM      1  C   UNL     1      32.086 -10.732 -21.971  0.00  0.00    -0.024 C 
ATOM      2  C   UNL     1      33.017 -10.571 -22.998  0.00  0.00    -0.003 C 
ATOM      3  C   UNL     1      31.835 -12.002 -21.451  0.00  0.00    -0.003 C 
ATOM      4  C   UNL     1      33.446 -12.949 -22.982  0.00  0.00    +0.050 C 
ATOM      5  C   UNL     1      33.697 -11.679 -23.504  0.00  0.00    +0.014 C 
ATOM      6  C   UNL     1      32.515 -13.110 -21.956  0.00  0.00    +0.014 C 
ENDROOT
BRANCH   4   8
ATOM      7  O   UNL     1      34.611 -15.339 -21.569  0.00  0.00    -0.273 OA
ATOM      8  N   UNL     1      34.135 -14.074 -23.495  0.00  0.00    -0.283 N 
ATOM      9  C   UNL     1      34.651 -15.146 -22.781  0.00  0.00    +0.245 C 
ATOM     10  H   UNL     1      34.264 -14.097 -24.471  0.00  0.00    +0.155 HD
BRANCH   9  14
ATOM     11  O   UNL     1      36.731 -17.546 -21.506  0.00  0.00    -0.269 OA
ATOM     12  N   UNL     1      35.075 -17.451 -23.139  0.00  0.00    -0.237 N 
ATOM     13  N   UNL     1      33.603 -19.289 -23.518  0.00  0.00    -0.233 NA
ATOM     14  C   UNL     1      35.311 -16.136 -23.693  0.00  0.00    +0.158 C 
ATOM     15  C   UNL     1      34.629 -16.192 -25.052  0.00  0.00    +0.037 C 
ATOM     16  C   UNL     1      33.501 -17.212 -24.876  0.00  0.00    +0.064 C 
ATOM     17  C   UNL     1      34.038 -18.105 -23.799  0.00  0.00    +0.115 C 
ATOM     18  C   UNL     1      35.788 -18.040 -22.114  0.00  0.00    +0.256 C 
ATOM     19  C   UNL     1      35.292 -19.401 -21.784  0.00  0.00    +0.079 C 
ATOM     20  C   UNL     1      34.267 -19.909 -22.486  0.00  0.00    +0.105 C 
ENDBRANCH   9  14
ENDBRANCH   4   8
BRANCH   1  21
ATOM     21  C   UNL     1      31.358  -9.548 -21.432  0.00  0.00    +0.005 C 
BRANCH  21  24
ATOM     22  N   UNL     1      31.877  -7.357 -22.469  0.00  0.00    +0.388 N 
ATOM     23  C   UNL     1      32.508  -6.091 -22.064  0.00  0.00    -0.030 C 
ATOM     24  C   UNL     1      32.227  -8.301 -21.398  0.00  0.00    -0.057 C 
ATOM     25  C   UNL     1      32.410  -6.059 -20.539  0.00  0.00    -0.021 C 
ATOM     26  C   UNL     1      32.039  -7.480 -20.131  0.00  0.00    -0.023 C 
ATOM     27  H   UNL     1      32.248  -7.674 -23.364  0.00  0.00    -0.084 HD
ATOM     28  H   UNL     1      30.869  -7.265 -22.592  0.00  0.00    -0.084 HD
BRANCH  23  29
ATOM     29  C   UNL     1      31.845  -4.893 -22.727  0.00  0.00    +0.113 C 
BRANCH  29  30
ATOM     30  C   UNL     1      32.443  -4.586 -24.082  0.00  0.00    +0.002 C 
ATOM     31  C   UNL     1      31.981  -3.494 -24.818  0.00  0.00    -0.002 C 
ATOM     32  C   UNL     1      33.455  -5.396 -24.596  0.00  0.00    -0.002 C 
ATOM     33  C   UNL     1      32.533  -3.212 -26.067  0.00  0.00    -0.000 C 
ATOM     34  C   UNL     1      34.007  -5.115 -25.846  0.00  0.00    -0.000 C 
ATOM     35  C   UNL     1      33.545  -4.022 -26.581  0.00  0.00    -0.000 C 
ENDBRANCH  29  30
BRANCH  29  36
ATOM     36  O   UNL     1      30.447  -5.138 -22.880  0.00  0.00    -0.382 OA
ATOM     37  H   UNL     1      29.952  -4.332 -22.667  0.00  0.00    +0.211 HD
ENDBRANCH  29  36
ENDBRANCH  23  29
ENDBRANCH  21  24
ENDBRANCH   1  21
TORSDOF 7
ENDMDL
MODEL 7
REMARK VINA RESULT:     -10.9      1.539      2.094
REMARK  Name = 44472635
REMARK  7 active torsions:
REMARK  status: ('A' for Active; 'I' for Inactive)
REMARK    1  A    between atoms: C_1  and  C_21
REMARK    2  A    between atoms: C_4  and  N_8
REMARK    3  A    between atoms: C_9  and  C_14
REMARK    4  A    between atoms: C_21  and  C_24
REMARK    5  A    between atoms: C_23  and  C_29
REMARK    6  A    between atoms: C_29  and  C_30
REMARK    7  A    between atoms: C_29  and  O_36
REMARK                            x       y       z     vdW  Elec       q    Type
REMARK                         _______ _______ _______ _____ _____    ______ ____
ROOT
ATOM      1  C   UNL     1      35.515 -20.415 -20.031  0.00  0.00    -0.024 C 
ATOM      2  C   UNL     1      34.134 -20.603 -20.093  0.00  0.00    -0.003 C 
ATOM      3  C   UNL     1      36.274 -21.130 -19.104  0.00  0.00    -0.003 C 
ATOM      4  C   UNL     1      34.272 -22.219 -18.303  0.00  0.00    +0.050 C 
ATOM      5  C   UNL     1      33.512 -21.504 -19.229  0.00  0.00    +0.014 C 
ATOM      6  C   UNL     1      35.653 -22.032 -18.240  0.00  0.00    +0.014 C 
ENDROOT
BRANCH   4   8
ATOM      7  O   UNL     1      31.532 -22.163 -17.057  0.00  0.00    -0.273 OA
ATOM      8  N   UNL     1      33.643 -23.134 -17.426  0.00  0.00    -0.283 N 
ATOM      9  C   UNL     1      32.368 -23.045 -16.884  0.00  0.00    +0.245 C 
ATOM     10  H   UNL     1      34.171 -23.926 -17.171  0.00  0.00    +0.155 HD
BRANCH   9  14
ATOM     11  O   UNL     1      34.921 -24.963 -15.652  0.00  0.00    -0.269 OA
ATOM     12  N   UNL     1      32.920 -24.100 -14.834  0.00  0.00    -0.237 N 
ATOM     13  N   UNL     1      32.721 -23.364 -12.574  0.00  0.00    -0.233 NA
ATOM     14  C   UNL     1      32.072 -24.219 -16.001  0.00  0.00    +0.158 C 
ATOM     15  C   UNL     1      30.664 -24.153 -15.428  0.00  0.00    +0.037 C 
ATOM     16  C   UNL     1      30.805 -23.316 -14.153  0.00  0.00    +0.064 C 
ATOM     17  C   UNL     1      32.222 -23.584 -13.746  0.00  0.00    +0.115 C 
ATOM     18  C   UNL     1      34.247 -24.474 -14.753  0.00  0.00    +0.256 C 
ATOM     19  C   UNL     1      34.828 -24.221 -13.409  0.00  0.00    +0.079 C 
ATOM     20  C   UNL     1      34.049 -23.699 -12.450  0.00  0.00    +0.105 C 
ENDBRANCH   9  14
ENDBRANCH   4   8
BRANCH   1  21
ATOM     21  C   UNL     1      36.179 -19.450 -20.953  0.00  0.00    +0.005 C 
BRANCH  21  24
ATOM     22  N   UNL     1      35.051 -17.262 -21.249  0.00  0.00    +0.388 N 
ATOM     23  C   UNL     1      34.380 -16.529 -22.333  0.00  0.00    -0.030 C 
ATOM     24  C   UNL     1      35.178 -18.635 -21.756  0.00  0.00    -0.057 C 
ATOM     25  C   UNL     1      34.912 -17.143 -23.628  0.00  0.00    -0.021 C 
ATOM     26  C   UNL     1      35.598 -18.437 -23.205  0.00  0.00    -0.023 C 
ATOM     27  H   UNL     1      34.489 -17.242 -20.399  0.00  0.00    -0.084 HD
ATOM     28  H   UNL     1      35.953 -16.853 -21.006  0.00  0.00    -0.084 HD
BRANCH  23  29
ATOM     29  C   UNL     1      34.629 -15.030 -22.241  0.00  0.00    +0.113 C 
BRANCH  29  30
ATOM     30  C   UNL     1      34.125 -14.291 -23.459  0.00  0.00    +0.002 C 
ATOM     31  C   UNL     1      34.207 -12.899 -23.515  0.00  0.00    -0.002 C 
ATOM     32  C   UNL     1      33.578 -15.001 -24.528  0.00  0.00    -0.002 C 
ATOM     33  C   UNL     1      33.741 -12.218 -24.639  0.00  0.00    -0.000 C 
ATOM     34  C   UNL     1      33.111 -14.320 -25.652  0.00  0.00    -0.000 C 
ATOM     35  C   UNL     1      33.194 -12.928 -25.708  0.00  0.00    -0.000 C 
ENDBRANCH  29  30
BRANCH  29  36
ATOM     36  O   UNL     1      33.986 -14.505 -21.079  0.00  0.00    -0.382 OA
ATOM     37  H   UNL     1      33.819 -13.558 -21.202  0.00  0.00    +0.211 HD
ENDBRANCH  29  36
ENDBRANCH  23  29
ENDBRANCH  21  24
ENDBRANCH   1  21
TORSDOF 7
ENDMDL
MODEL 8
REMARK VINA RESULT:     -10.9      2.288     11.181
REMARK  Name = 44472635
REMARK  7 active torsions:
REMARK  status: ('A' for Active; 'I' for Inactive)
REMARK    1  A    between atoms: C_1  and  C_21
REMARK    2  A    between atoms: C_4  and  N_8
REMARK    3  A    between atoms: C_9  and  C_14
REMARK    4  A    between atoms: C_21  and  C_24
REMARK    5  A    between atoms: C_23  and  C_29
REMARK    6  A    between atoms: C_29  and  C_30
REMARK    7  A    between atoms: C_29  and  O_36
REMARK                            x       y       z     vdW  Elec       q    Type
REMARK                         _______ _______ _______ _____ _____    ______ ____
ROOT
ATOM      1  C   UNL     1      33.994 -22.284 -18.716  0.00  0.00    -0.024 C 
ATOM      2  C   UNL     1      35.360 -22.029 -18.843  0.00  0.00    -0.003 C 
ATOM      3  C   UNL     1      33.071 -21.488 -19.394  0.00  0.00    -0.003 C 
ATOM      4  C   UNL     1      34.878 -20.183 -20.325  0.00  0.00    +0.050 C 
ATOM      5  C   UNL     1      35.802 -20.978 -19.646  0.00  0.00    +0.014 C 
ATOM      6  C   UNL     1      33.512 -20.438 -20.198  0.00  0.00    +0.014 C 
ENDROOT
BRANCH   4   8
ATOM      7  O   UNL     1      33.705 -19.022 -22.843  0.00  0.00    -0.273 OA
ATOM      8  N   UNL     1      35.326 -19.117 -21.141  0.00  0.00    -0.283 N 
ATOM      9  C   UNL     1      34.733 -18.631 -22.297  0.00  0.00    +0.245 C 
ATOM     10  H   UNL     1      36.155 -18.668 -20.854  0.00  0.00    +0.155 HD
BRANCH   9  14
ATOM     11  O   UNL     1      34.546 -17.913 -25.638  0.00  0.00    -0.269 OA
ATOM     12  N   UNL     1      34.601 -16.693 -23.657  0.00  0.00    -0.237 N 
ATOM     13  N   UNL     1      33.359 -14.672 -23.412  0.00  0.00    -0.233 NA
ATOM     14  C   UNL     1      35.518 -17.490 -22.870  0.00  0.00    +0.158 C 
ATOM     15  C   UNL     1      35.987 -16.530 -21.786  0.00  0.00    +0.037 C 
ATOM     16  C   UNL     1      34.824 -15.550 -21.609  0.00  0.00    +0.064 C 
ATOM     17  C   UNL     1      34.181 -15.562 -22.962  0.00  0.00    +0.115 C 
ATOM     18  C   UNL     1      34.198 -16.960 -24.950  0.00  0.00    +0.256 C 
ATOM     19  C   UNL     1      33.251 -15.942 -25.473  0.00  0.00    +0.079 C 
ATOM     20  C   UNL     1      32.910 -14.907 -24.690  0.00  0.00    +0.105 C 
ENDBRANCH   9  14
ENDBRANCH   4   8
BRANCH   1  21
ATOM     21  C   UNL     1      33.521 -23.406 -17.855  0.00  0.00    +0.005 C 
BRANCH  21  24
ATOM     22  N   UNL     1      32.320 -22.941 -15.737  0.00  0.00    +0.388 N 
ATOM     23  C   UNL     1      32.597 -23.030 -14.295  0.00  0.00    -0.030 C 
ATOM     24  C   UNL     1      33.637 -23.086 -16.374  0.00  0.00    -0.057 C 
ATOM     25  C   UNL     1      33.742 -24.034 -14.163  0.00  0.00    -0.021 C 
ATOM     26  C   UNL     1      34.294 -24.201 -15.574  0.00  0.00    -0.023 C 
ATOM     27  H   UNL     1      31.904 -22.040 -15.969  0.00  0.00    -0.084 HD
ATOM     28  H   UNL     1      31.658 -23.652 -16.048  0.00  0.00    -0.084 HD
BRANCH  23  29
ATOM     29  C   UNL     1      31.359 -23.433 -13.506  0.00  0.00    +0.113 C 
BRANCH  29  30
ATOM     30  C   UNL     1      30.138 -23.565 -14.387  0.00  0.00    +0.002 C 
ATOM     31  C   UNL     1      29.827 -24.793 -14.970  0.00  0.00    -0.002 C 
ATOM     32  C   UNL     1      29.322 -22.457 -14.618  0.00  0.00    -0.002 C 
ATOM     33  C   UNL     1      28.701 -24.914 -15.783  0.00  0.00    -0.000 C 
ATOM     34  C   UNL     1      28.196 -22.577 -15.432  0.00  0.00    -0.000 C 
ATOM     35  C   UNL     1      27.885 -23.806 -16.014  0.00  0.00    -0.000 C 
ENDBRANCH  29  30
BRANCH  29  36
ATOM     36  O   UNL     1      31.593 -24.676 -12.845  0.00  0.00    -0.382 OA
ATOM     37  H   UNL     1      30.745 -25.115 -12.673  0.00  0.00    +0.211 HD
ENDBRANCH  29  36
ENDBRANCH  23  29
ENDBRANCH  21  24
ENDBRANCH   1  21
TORSDOF 7
ENDMDL
MODEL 9
REMARK VINA RESULT:     -10.7      3.329     10.550
REMARK  Name = 44472635
REMARK  7 active torsions:
REMARK  status: ('A' for Active; 'I' for Inactive)
REMARK    1  A    between atoms: C_1  and  C_21
REMARK    2  A    between atoms: C_4  and  N_8
REMARK    3  A    between atoms: C_9  and  C_14
REMARK    4  A    between atoms: C_21  and  C_24
REMARK    5  A    between atoms: C_23  and  C_29
REMARK    6  A    between atoms: C_29  and  C_30
REMARK    7  A    between atoms: C_29  and  O_36
REMARK                            x       y       z     vdW  Elec       q    Type
REMARK                         _______ _______ _______ _____ _____    ______ ____
ROOT
ATOM      1  C   UNL     1      34.246 -22.968 -16.944  0.00  0.00    -0.024 C 
ATOM      2  C   UNL     1      35.556 -22.490 -16.905  0.00  0.00    -0.003 C 
ATOM      3  C   UNL     1      33.428 -22.671 -18.035  0.00  0.00    -0.003 C 
ATOM      4  C   UNL     1      35.229 -21.420 -19.047  0.00  0.00    +0.050 C 
ATOM      5  C   UNL     1      36.048 -21.716 -17.957  0.00  0.00    +0.014 C 
ATOM      6  C   UNL     1      33.919 -21.898 -19.086  0.00  0.00    +0.014 C 
ENDROOT
BRANCH   4   8
ATOM      7  O   UNL     1      33.775 -19.859 -21.171  0.00  0.00    -0.273 OA
ATOM      8  N   UNL     1      35.728 -20.636 -20.114  0.00  0.00    -0.283 N 
ATOM      9  C   UNL     1      34.995 -19.939 -21.065  0.00  0.00    +0.245 C 
ATOM     10  H   UNL     1      36.708 -20.578 -20.190  0.00  0.00    +0.155 HD
BRANCH   9  14
ATOM     11  O   UNL     1      34.564 -20.329 -24.438  0.00  0.00    -0.269 OA
ATOM     12  N   UNL     1      35.049 -18.566 -22.997  0.00  0.00    -0.237 N 
ATOM     13  N   UNL     1      34.210 -16.371 -23.400  0.00  0.00    -0.233 NA
ATOM     14  C   UNL     1      35.897 -19.228 -22.029  0.00  0.00    +0.158 C 
ATOM     15  C   UNL     1      36.643 -18.082 -21.362  0.00  0.00    +0.037 C 
ATOM     16  C   UNL     1      35.693 -16.886 -21.476  0.00  0.00    +0.064 C 
ATOM     17  C   UNL     1      34.911 -17.211 -22.712  0.00  0.00    +0.115 C 
ATOM     18  C   UNL     1      34.465 -19.155 -24.101  0.00  0.00    +0.256 C 
ATOM     19  C   UNL     1      33.655 -18.195 -24.896  0.00  0.00    +0.079 C 
ATOM     20  C   UNL     1      33.587 -16.915 -24.499  0.00  0.00    +0.105 C 
ENDBRANCH   9  14
ENDBRANCH   4   8
BRANCH   1  21
ATOM     21  C   UNL     1      33.720 -23.793 -15.819  0.00  0.00    +0.005 C 
BRANCH  21  24
ATOM     22  N   UNL     1      31.255 -23.543 -15.735  0.00  0.00    +0.388 N 
ATOM     23  C   UNL     1      30.240 -23.158 -14.742  0.00  0.00    -0.030 C 
ATOM     24  C   UNL     1      32.532 -23.140 -15.130  0.00  0.00    -0.057 C 
ATOM     25  C   UNL     1      30.897 -23.391 -13.381  0.00  0.00    -0.021 C 
ATOM     26  C   UNL     1      32.382 -23.564 -13.676  0.00  0.00    -0.023 C 
ATOM     27  H   UNL     1      31.102 -23.050 -16.615  0.00  0.00    -0.084 HD
ATOM     28  H   UNL     1      31.225 -24.538 -15.954  0.00  0.00    -0.084 HD
BRANCH  23  29
ATOM     29  C   UNL     1      28.949 -23.945 -14.920  0.00  0.00    +0.113 C 
BRANCH  29  30
ATOM     30  C   UNL     1      27.886 -23.143 -15.637  0.00  0.00    +0.002 C 
ATOM     31  C   UNL     1      27.879 -23.081 -17.030  0.00  0.00    -0.002 C 
ATOM     32  C   UNL     1      26.913 -22.464 -14.904  0.00  0.00    -0.002 C 
ATOM     33  C   UNL     1      26.899 -22.340 -17.691  0.00  0.00    -0.000 C 
ATOM     34  C   UNL     1      25.933 -21.722 -15.564  0.00  0.00    -0.000 C 
ATOM     35  C   UNL     1      25.926 -21.661 -16.958  0.00  0.00    -0.000 C 
ENDBRANCH  29  30
BRANCH  29  36
ATOM     36  O   UNL     1      29.210 -25.138 -15.660  0.00  0.00    -0.382 OA
ATOM     37  H   UNL     1      29.025 -25.910 -15.102  0.00  0.00    +0.211 HD
ENDBRANCH  29  36
ENDBRANCH  23  29
ENDBRANCH  21  24
ENDBRANCH   1  21
TORSDOF 7
ENDMDL
