MODEL 1
REMARK VINA RESULT:     -11.4      0.000      0.000
REMARK  Name = 8969
REMARK  3 active torsions:
REMARK  status: ('A' for Active; 'I' for Inactive)
REMARK    1  A    between atoms: C_7  and  C_27
REMARK    2  A    between atoms: C_10  and  O_24
REMARK    3  A    between atoms: C_27  and  O_28
REMARK                            x       y       z     vdW  Elec       q    Type
REMARK                         _______ _______ _______ _____ _____    ______ ____
ROOT
ATOM      1  N   UNL     1      34.075 -23.152 -15.985  0.00  0.00    +0.392 N 
ATOM      2  N   UNL     1      32.836 -21.727 -19.216  0.00  0.00    -0.358 N 
ATOM      3  C   UNL     1      31.260 -23.788 -15.489  0.00  0.00    +0.009 C 
ATOM      4  C   UNL     1      32.334 -23.826 -14.380  0.00  0.00    -0.020 C 
ATOM      5  C   UNL     1      31.699 -22.799 -16.584  0.00  0.00    -0.015 C 
ATOM      6  C   UNL     1      33.099 -23.159 -17.110  0.00  0.00    -0.019 C 
ATOM      7  C   UNL     1      29.886 -23.438 -14.884  0.00  0.00    +0.126 C 
ATOM      8  C   UNL     1      33.716 -24.149 -14.968  0.00  0.00    -0.077 C 
ATOM      9  C   UNL     1      31.952 -24.816 -13.273  0.00  0.00    +0.000 C 
ATOM     10  C   UNL     1      29.495 -24.419 -13.765  0.00  0.00    +0.121 C 
ATOM     11  C   UNL     1      30.577 -24.486 -12.685  0.00  0.00    +0.030 C 
ATOM     12  C   UNL     1      33.573 -22.220 -18.177  0.00  0.00    +0.010 A 
ATOM     13  C   UNL     1      35.463 -23.337 -16.459  0.00  0.00    -0.072 C 
ATOM     14  C   UNL     1      34.868 -21.763 -18.308  0.00  0.00    -0.013 A 
ATOM     15  C   UNL     1      35.921 -22.143 -17.329  0.00  0.00    +0.005 C 
ATOM     16  C   UNL     1      34.917 -20.930 -19.458  0.00  0.00    +0.013 A 
ATOM     17  C   UNL     1      33.631 -20.925 -20.009  0.00  0.00    +0.056 A 
ATOM     18  C   UNL     1      35.929 -20.182 -20.092  0.00  0.00    +0.001 C 
ATOM     19  C   UNL     1      33.309 -20.204 -21.166  0.00  0.00    +0.017 C 
ATOM     20  C   UNL     1      35.619 -19.455 -21.248  0.00  0.00    +0.000 C 
ATOM     21  C   UNL     1      34.330 -19.468 -21.775  0.00  0.00    +0.001 C 
ATOM     22  H   UNL     1      34.029 -22.232 -15.548  0.00  0.00    -0.079 HD
ATOM     23  H   UNL     1      31.883 -21.915 -19.376  0.00  0.00    +0.166 HD
ENDROOT
BRANCH  10  24
ATOM     24  O   UNL     1      29.312 -25.726 -14.313  0.00  0.00    -0.384 OA
ATOM     25  H   UNL     1      30.016 -26.312 -13.995  0.00  0.00    +0.210 HD
ENDBRANCH  10  24
BRANCH   7  27
ATOM     26  O   UNL     1      28.446 -24.443 -16.536  0.00  0.00    -0.250 OA
ATOM     27  C   UNL     1      28.809 -23.443 -15.930  0.00  0.00    +0.319 C 
BRANCH  27  28
ATOM     28  O   UNL     1      28.318 -22.180 -16.084  0.00  0.00    -0.444 OA
ATOM     29  C   UNL     1      26.931 -22.097 -16.426  0.00  0.00    +0.256 C 
ENDBRANCH  27  28
ENDBRANCH   7  27
TORSDOF 3
ENDMDL
MODEL 2
REMARK VINA RESULT:      -9.0     12.370     15.584
REMARK  Name = 8969
REMARK  3 active torsions:
REMARK  status: ('A' for Active; 'I' for Inactive)
REMARK    1  A    between atoms: C_7  and  C_27
REMARK    2  A    between atoms: C_10  and  O_24
REMARK    3  A    between atoms: C_27  and  O_28
REMARK                            x       y       z     vdW  Elec       q    Type
REMARK                         _______ _______ _______ _____ _____    ______ ____
ROOT
ATOM      1  N   UNL     1      31.778  -8.226 -20.976  0.00  0.00    +0.392 N 
ATOM      2  N   UNL     1      33.238  -6.776 -24.102  0.00  0.00    -0.358 N 
ATOM      3  C   UNL     1      32.842 -10.766 -21.970  0.00  0.00    +0.009 C 
ATOM      4  C   UNL     1      31.810 -10.683 -20.824  0.00  0.00    -0.020 C 
ATOM      5  C   UNL     1      32.698  -9.525 -22.871  0.00  0.00    -0.015 C 
ATOM      6  C   UNL     1      32.819  -8.236 -22.041  0.00  0.00    -0.019 C 
ATOM      7  C   UNL     1      32.670 -12.089 -22.742  0.00  0.00    +0.126 C 
ATOM      8  C   UNL     1      31.950  -9.358 -20.057  0.00  0.00    -0.077 C 
ATOM      9  C   UNL     1      31.929 -11.888 -19.884  0.00  0.00    +0.000 C 
ATOM     10  C   UNL     1      32.777 -13.306 -21.808  0.00  0.00    +0.121 C 
ATOM     11  C   UNL     1      31.782 -13.205 -20.651  0.00  0.00    +0.030 C 
ATOM     12  C   UNL     1      32.680  -6.999 -22.875  0.00  0.00    +0.010 A 
ATOM     13  C   UNL     1      31.747  -6.938 -20.249  0.00  0.00    -0.072 C 
ATOM     14  C   UNL     1      32.014  -5.855 -22.487  0.00  0.00    -0.013 A 
ATOM     15  C   UNL     1      31.311  -5.781 -21.178  0.00  0.00    +0.005 C 
ATOM     16  C   UNL     1      32.144  -4.903 -23.534  0.00  0.00    +0.013 A 
ATOM     17  C   UNL     1      32.915  -5.506 -24.534  0.00  0.00    +0.056 A 
ATOM     18  C   UNL     1      31.686  -3.586 -23.732  0.00  0.00    +0.001 C 
ATOM     19  C   UNL     1      33.250  -4.850 -25.725  0.00  0.00    +0.017 C 
ATOM     20  C   UNL     1      32.013  -2.920 -24.919  0.00  0.00    +0.000 C 
ATOM     21  C   UNL     1      32.782  -3.543 -25.898  0.00  0.00    +0.001 C 
ATOM     22  H   UNL     1      30.873  -8.331 -21.434  0.00  0.00    -0.079 HD
ATOM     23  H   UNL     1      33.786  -7.422 -24.603  0.00  0.00    +0.166 HD
ENDROOT
BRANCH  10  24
ATOM     24  O   UNL     1      34.098 -13.386 -21.271  0.00  0.00    -0.384 OA
ATOM     25  H   UNL     1      34.565 -14.138 -21.667  0.00  0.00    +0.210 HD
ENDBRANCH  10  24
BRANCH   7  27
ATOM     26  O   UNL     1      34.325 -11.285 -24.300  0.00  0.00    -0.250 OA
ATOM     27  C   UNL     1      33.692 -12.224 -23.834  0.00  0.00    +0.319 C 
BRANCH  27  28
ATOM     28  O   UNL     1      33.792 -13.532 -24.205  0.00  0.00    -0.444 OA
ATOM     29  C   UNL     1      33.192 -13.862 -25.461  0.00  0.00    +0.256 C 
ENDBRANCH  27  28
ENDBRANCH   7  27
TORSDOF 3
ENDMDL
