MODEL 1
REMARK VINA RESULT:     -11.6      0.000      0.000
REMARK  Name = 54713659
REMARK  4 active torsions:
REMARK  status: ('A' for Active; 'I' for Inactive)
REMARK    1  A    between atoms: C_14  and  O_30
REMARK    2  A    between atoms: C_15  and  C_19
REMARK    3  A    between atoms: N_18  and  C_21
REMARK    4  A    between atoms: C_21  and  C_24
REMARK                            x       y       z     vdW  Elec       q    Type
REMARK                         _______ _______ _______ _____ _____    ______ ____
ROOT
ATOM      1  O   UNL     1      38.591 -24.372 -13.458  0.00  0.00    -0.334 OA
ATOM      2  O   UNL     1      34.552 -24.927 -11.348  0.00  0.00    -0.268 OA
ATOM      3  O   UNL     1      31.178 -24.058 -15.104  0.00  0.00    -0.283 OA
ATOM      4  N   UNL     1      36.514 -24.749 -12.535  0.00  0.00    -0.251 N 
ATOM      5  N   UNL     1      35.177 -23.549 -14.638  0.00  0.00    -0.275 N 
ATOM      6  C   UNL     1      37.205 -24.544 -13.781  0.00  0.00    +0.215 C 
ATOM      7  C   UNL     1      37.463 -24.993 -11.477  0.00  0.00    +0.107 C 
ATOM      8  C   UNL     1      36.621 -23.337 -14.486  0.00  0.00    +0.147 C 
ATOM      9  C   UNL     1      38.689 -24.281 -12.022  0.00  0.00    +0.164 C 
ATOM     10  C   UNL     1      35.145 -24.675 -12.395  0.00  0.00    +0.268 C 
ATOM     11  C   UNL     1      34.426 -24.196 -13.638  0.00  0.00    +0.143 C 
ATOM     12  C   UNL     1      37.694 -26.487 -11.276  0.00  0.00    +0.024 C 
ATOM     13  C   UNL     1      34.514 -23.060 -15.755  0.00  0.00    +0.074 C 
ATOM     14  C   UNL     1      33.093 -24.391 -13.737  0.00  0.00    +0.191 C 
ATOM     15  C   UNL     1      33.200 -23.183 -15.980  0.00  0.00    +0.110 C 
ATOM     16  C   UNL     1      32.386 -23.891 -14.958  0.00  0.00    +0.236 C 
ENDROOT
BRANCH  15  19
ATOM     17  O   UNL     1      31.436 -22.429 -17.335  0.00  0.00    -0.270 OA
ATOM     18  N   UNL     1      33.613 -22.341 -18.163  0.00  0.00    -0.297 N 
ATOM     19  C   UNL     1      32.647 -22.618 -17.211  0.00  0.00    +0.251 C 
ATOM     20  H   UNL     1      34.553 -22.537 -17.945  0.00  0.00    +0.150 HD
BRANCH  18  21
ATOM     21  C   UNL     1      33.316 -21.780 -19.462  0.00  0.00    +0.119 C 
BRANCH  21  24
ATOM     22  F   UNL     1      32.939 -19.774 -21.422  0.00  0.00    -0.204 F 
ATOM     23  F   UNL     1      37.506 -18.535 -21.364  0.00  0.00    -0.204 F 
ATOM     24  C   UNL     1      34.432 -20.914 -19.970  0.00  0.00    +0.025 C 
ATOM     25  C   UNL     1      34.178 -19.943 -20.939  0.00  0.00    +0.140 C 
ATOM     26  C   UNL     1      35.725 -21.082 -19.472  0.00  0.00    +0.002 C 
ATOM     27  C   UNL     1      35.216 -19.139 -21.409  0.00  0.00    +0.059 C 
ATOM     28  C   UNL     1      36.763 -20.279 -19.944  0.00  0.00    +0.030 C 
ATOM     29  C   UNL     1      36.509 -19.307 -20.912  0.00  0.00    +0.142 C 
ENDBRANCH  21  24
ENDBRANCH  18  21
ENDBRANCH  15  19
BRANCH  14  30
ATOM     30  O   UNL     1      32.337 -25.034 -12.783  0.00  0.00    -0.502 OA
ATOM     31  H   UNL     1      31.708 -25.679 -13.040  0.00  0.00    +0.292 HD
ENDBRANCH  14  30
TORSDOF 4
ENDMDL
MODEL 2
REMARK VINA RESULT:     -10.9      2.798      4.903
REMARK  Name = 54713659
REMARK  4 active torsions:
REMARK  status: ('A' for Active; 'I' for Inactive)
REMARK    1  A    between atoms: C_14  and  O_30
REMARK    2  A    between atoms: C_15  and  C_19
REMARK    3  A    between atoms: N_18  and  C_21
REMARK    4  A    between atoms: C_21  and  C_24
REMARK                            x       y       z     vdW  Elec       q    Type
REMARK                         _______ _______ _______ _____ _____    ______ ____
ROOT
ATOM      1  O   UNL     1      31.644 -23.851 -14.675  0.00  0.00    -0.334 OA
ATOM      2  O   UNL     1      36.158 -23.909 -15.512  0.00  0.00    -0.268 OA
ATOM      3  O   UNL     1      36.620 -20.704 -19.481  0.00  0.00    -0.283 OA
ATOM      4  N   UNL     1      33.903 -23.706 -15.104  0.00  0.00    -0.251 N 
ATOM      5  N   UNL     1      33.528 -22.505 -17.568  0.00  0.00    -0.275 N 
ATOM      6  C   UNL     1      32.628 -23.110 -15.409  0.00  0.00    +0.215 C 
ATOM      7  C   UNL     1      33.774 -24.609 -13.988  0.00  0.00    +0.107 C 
ATOM      8  C   UNL     1      32.395 -23.161 -16.904  0.00  0.00    +0.147 C 
ATOM      9  C   UNL     1      32.309 -24.994 -14.099  0.00  0.00    +0.164 C 
ATOM     10  C   UNL     1      35.055 -23.461 -15.820  0.00  0.00    +0.268 C 
ATOM     11  C   UNL     1      34.838 -22.632 -17.068  0.00  0.00    +0.143 C 
ATOM     12  C   UNL     1      34.098 -23.910 -12.672  0.00  0.00    +0.024 C 
ATOM     13  C   UNL     1      33.331 -21.790 -18.741  0.00  0.00    +0.074 C 
ATOM     14  C   UNL     1      35.906 -22.058 -17.663  0.00  0.00    +0.191 C 
ATOM     15  C   UNL     1      34.296 -21.172 -19.432  0.00  0.00    +0.110 C 
ATOM     16  C   UNL     1      35.685 -21.259 -18.911  0.00  0.00    +0.236 C 
ENDROOT
BRANCH  15  19
ATOM     17  O   UNL     1      32.755 -20.179 -20.900  0.00  0.00    -0.270 OA
ATOM     18  N   UNL     1      35.021 -20.137 -21.444  0.00  0.00    -0.297 N 
ATOM     19  C   UNL     1      33.930 -20.451 -20.652  0.00  0.00    +0.251 C 
ATOM     20  H   UNL     1      35.916 -20.411 -21.136  0.00  0.00    +0.150 HD
BRANCH  18  21
ATOM     21  C   UNL     1      34.918 -19.429 -22.700  0.00  0.00    +0.119 C 
BRANCH  21  24
ATOM     22  F   UNL     1      34.435 -17.623 -24.824  0.00  0.00    -0.204 F 
ATOM     23  F   UNL     1      34.504 -13.863 -21.950  0.00  0.00    -0.204 F 
ATOM     24  C   UNL     1      34.807 -17.945 -22.501  0.00  0.00    +0.025 C 
ATOM     25  C   UNL     1      34.569 -17.109 -23.592  0.00  0.00    +0.140 C 
ATOM     26  C   UNL     1      34.944 -17.401 -21.223  0.00  0.00    +0.002 C 
ATOM     27  C   UNL     1      34.466 -15.731 -23.407  0.00  0.00    +0.059 C 
ATOM     28  C   UNL     1      34.842 -16.022 -21.038  0.00  0.00    +0.030 C 
ATOM     29  C   UNL     1      34.602 -15.187 -22.129  0.00  0.00    +0.142 C 
ENDBRANCH  21  24
ENDBRANCH  18  21
ENDBRANCH  15  19
BRANCH  14  30
ATOM     30  O   UNL     1      37.194 -22.151 -17.188  0.00  0.00    -0.502 OA
ATOM     31  H   UNL     1      37.638 -21.384 -16.883  0.00  0.00    +0.292 HD
ENDBRANCH  14  30
TORSDOF 4
ENDMDL
MODEL 3
REMARK VINA RESULT:     -10.7      3.088      4.680
REMARK  Name = 54713659
REMARK  4 active torsions:
REMARK  status: ('A' for Active; 'I' for Inactive)
REMARK    1  A    between atoms: C_14  and  O_30
REMARK    2  A    between atoms: C_15  and  C_19
REMARK    3  A    between atoms: N_18  and  C_21
REMARK    4  A    between atoms: C_21  and  C_24
REMARK                            x       y       z     vdW  Elec       q    Type
REMARK                         _______ _______ _______ _____ _____    ______ ____
ROOT
ATOM      1  O   UNL     1      37.966 -23.452 -14.589  0.00  0.00    -0.334 OA
ATOM      2  O   UNL     1      33.525 -23.299 -15.743  0.00  0.00    -0.268 OA
ATOM      3  O   UNL     1      33.632 -21.159 -20.395  0.00  0.00    -0.283 OA
ATOM      4  N   UNL     1      35.783 -23.440 -15.324  0.00  0.00    -0.251 N 
ATOM      5  N   UNL     1      36.314 -21.687 -17.398  0.00  0.00    -0.275 N 
ATOM      6  C   UNL     1      37.145 -23.243 -15.746  0.00  0.00    +0.215 C 
ATOM      7  C   UNL     1      35.751 -24.041 -14.014  0.00  0.00    +0.107 C 
ATOM      8  C   UNL     1      37.297 -21.850 -16.319  0.00  0.00    +0.147 C 
ATOM      9  C   UNL     1      37.085 -23.578 -13.454  0.00  0.00    +0.164 C 
ATOM     10  C   UNL     1      34.686 -23.060 -16.068  0.00  0.00    +0.268 C 
ATOM     11  C   UNL     1      35.032 -22.262 -17.308  0.00  0.00    +0.143 C 
ATOM     12  C   UNL     1      35.651 -25.560 -14.106  0.00  0.00    +0.024 C 
ATOM     13  C   UNL     1      36.618 -20.911 -18.506  0.00  0.00    +0.074 C 
ATOM     14  C   UNL     1      34.098 -22.118 -18.272  0.00  0.00    +0.191 C 
ATOM     15  C   UNL     1      35.789 -20.685 -19.533  0.00  0.00    +0.110 C 
ATOM     16  C   UNL     1      34.440 -21.307 -19.483  0.00  0.00    +0.236 C 
ENDROOT
BRANCH  15  19
ATOM     17  O   UNL     1      37.419 -19.442 -20.680  0.00  0.00    -0.270 OA
ATOM     18  N   UNL     1      35.270 -19.581 -21.572  0.00  0.00    -0.297 N 
ATOM     19  C   UNL     1      36.256 -19.846 -20.637  0.00  0.00    +0.251 C 
ATOM     20  H   UNL     1      34.374 -19.962 -21.425  0.00  0.00    +0.150 HD
BRANCH  18  21
ATOM     21  C   UNL     1      35.485 -18.773 -22.751  0.00  0.00    +0.119 C 
BRANCH  21  24
ATOM     22  F   UNL     1      34.937 -16.994 -24.881  0.00  0.00    -0.204 F 
ATOM     23  F   UNL     1      33.945 -13.417 -21.945  0.00  0.00    -0.204 F 
ATOM     24  C   UNL     1      35.074 -17.345 -22.538  0.00  0.00    +0.025 C 
ATOM     25  C   UNL     1      34.819 -16.520 -23.633  0.00  0.00    +0.140 C 
ATOM     26  C   UNL     1      34.948 -16.843 -21.242  0.00  0.00    +0.002 C 
ATOM     27  C   UNL     1      34.438 -15.194 -23.434  0.00  0.00    +0.059 C 
ATOM     28  C   UNL     1      34.568 -15.516 -21.043  0.00  0.00    +0.030 C 
ATOM     29  C   UNL     1      34.311 -14.691 -22.138  0.00  0.00    +0.142 C 
ENDBRANCH  21  24
ENDBRANCH  18  21
ENDBRANCH  15  19
BRANCH  14  30
ATOM     30  O   UNL     1      32.843 -22.682 -18.218  0.00  0.00    -0.502 OA
ATOM     31  H   UNL     1      32.083 -22.136 -18.221  0.00  0.00    +0.292 HD
ENDBRANCH  14  30
TORSDOF 4
ENDMDL
MODEL 4
REMARK VINA RESULT:     -10.6      7.112     12.006
REMARK  Name = 54713659
REMARK  4 active torsions:
REMARK  status: ('A' for Active; 'I' for Inactive)
REMARK    1  A    between atoms: C_14  and  O_30
REMARK    2  A    between atoms: C_15  and  C_19
REMARK    3  A    between atoms: N_18  and  C_21
REMARK    4  A    between atoms: C_21  and  C_24
REMARK                            x       y       z     vdW  Elec       q    Type
REMARK                         _______ _______ _______ _____ _____    ______ ____
ROOT
ATOM      1  O   UNL     1      31.934 -12.197 -19.540  0.00  0.00    -0.334 OA
ATOM      2  O   UNL     1      33.222 -11.487 -23.889  0.00  0.00    -0.268 OA
ATOM      3  O   UNL     1      34.616 -16.166 -25.440  0.00  0.00    -0.283 OA
ATOM      4  N   UNL     1      32.485 -11.981 -21.766  0.00  0.00    -0.251 N 
ATOM      5  N   UNL     1      33.724 -14.453 -21.872  0.00  0.00    -0.275 N 
ATOM      6  C   UNL     1      32.222 -12.945 -20.729  0.00  0.00    +0.215 C 
ATOM      7  C   UNL     1      32.095 -10.664 -21.330  0.00  0.00    +0.107 C 
ATOM      8  C   UNL     1      33.424 -13.850 -20.568  0.00  0.00    +0.147 C 
ATOM      9  C   UNL     1      32.218 -10.812 -19.824  0.00  0.00    +0.164 C 
ATOM     10  C   UNL     1      33.068 -12.295 -22.975  0.00  0.00    +0.268 C 
ATOM     11  C   UNL     1      33.563 -13.724 -23.065  0.00  0.00    +0.143 C 
ATOM     12  C   UNL     1      30.672 -10.336 -21.771  0.00  0.00    +0.024 C 
ATOM     13  C   UNL     1      34.227 -15.744 -21.945  0.00  0.00    +0.074 C 
ATOM     14  C   UNL     1      33.847 -14.239 -24.281  0.00  0.00    +0.191 C 
ATOM     15  C   UNL     1      34.550 -16.376 -23.079  0.00  0.00    +0.110 C 
ATOM     16  C   UNL     1      34.359 -15.644 -24.359  0.00  0.00    +0.236 C 
ENDROOT
BRANCH  15  19
ATOM     17  O   UNL     1      35.016 -18.503 -23.963  0.00  0.00    -0.270 OA
ATOM     18  N   UNL     1      35.587 -18.050 -21.749  0.00  0.00    -0.297 N 
ATOM     19  C   UNL     1      35.066 -17.743 -22.995  0.00  0.00    +0.251 C 
ATOM     20  H   UNL     1      35.570 -17.354 -21.052  0.00  0.00    +0.150 HD
BRANCH  18  21
ATOM     21  C   UNL     1      36.155 -19.337 -21.417  0.00  0.00    +0.119 C 
BRANCH  21  24
ATOM     22  F   UNL     1      37.070 -21.264 -19.558  0.00  0.00    -0.204 F 
ATOM     23  F   UNL     1      32.674 -22.413 -18.233  0.00  0.00    -0.204 F 
ATOM     24  C   UNL     1      35.228 -20.158 -20.567  0.00  0.00    +0.025 C 
ATOM     25  C   UNL     1      35.745 -21.092 -19.670  0.00  0.00    +0.140 C 
ATOM     26  C   UNL     1      33.847 -19.986 -20.676  0.00  0.00    +0.002 C 
ATOM     27  C   UNL     1      34.883 -21.854 -18.881  0.00  0.00    +0.059 C 
ATOM     28  C   UNL     1      32.986 -20.748 -19.888  0.00  0.00    +0.030 C 
ATOM     29  C   UNL     1      33.503 -21.682 -18.990  0.00  0.00    +0.142 C 
ENDBRANCH  21  24
ENDBRANCH  18  21
ENDBRANCH  15  19
BRANCH  14  30
ATOM     30  O   UNL     1      33.683 -13.556 -25.464  0.00  0.00    -0.502 OA
ATOM     31  H   UNL     1      34.101 -12.726 -25.588  0.00  0.00    +0.292 HD
ENDBRANCH  14  30
TORSDOF 4
ENDMDL
MODEL 5
REMARK VINA RESULT:     -10.6      9.344     13.885
REMARK  Name = 54713659
REMARK  4 active torsions:
REMARK  status: ('A' for Active; 'I' for Inactive)
REMARK    1  A    between atoms: C_14  and  O_30
REMARK    2  A    between atoms: C_15  and  C_19
REMARK    3  A    between atoms: N_18  and  C_21
REMARK    4  A    between atoms: C_21  and  C_24
REMARK                            x       y       z     vdW  Elec       q    Type
REMARK                         _______ _______ _______ _____ _____    ______ ____
ROOT
ATOM      1  O   UNL     1      33.050  -6.643 -22.651  0.00  0.00    -0.334 OA
ATOM      2  O   UNL     1      31.102  -9.404 -19.544  0.00  0.00    -0.268 OA
ATOM      3  O   UNL     1      32.633 -14.058 -21.039  0.00  0.00    -0.283 OA
ATOM      4  N   UNL     1      32.227  -8.110 -21.077  0.00  0.00    -0.251 N 
ATOM      5  N   UNL     1      32.722 -10.334 -22.646  0.00  0.00    -0.275 N 
ATOM      6  C   UNL     1      33.135  -7.998 -22.189  0.00  0.00    +0.215 C 
ATOM      7  C   UNL     1      31.794  -6.801 -20.656  0.00  0.00    +0.107 C 
ATOM      8  C   UNL     1      32.747  -8.999 -23.256  0.00  0.00    +0.147 C 
ATOM      9  C   UNL     1      31.960  -6.016 -21.946  0.00  0.00    +0.164 C 
ATOM     10  C   UNL     1      31.815  -9.311 -20.541  0.00  0.00    +0.268 C 
ATOM     11  C   UNL     1      32.272 -10.523 -21.326  0.00  0.00    +0.143 C 
ATOM     12  C   UNL     1      32.671  -6.266 -19.528  0.00  0.00    +0.024 C 
ATOM     13  C   UNL     1      33.091 -11.447 -23.388  0.00  0.00    +0.074 C 
ATOM     14  C   UNL     1      32.217 -11.738 -20.739  0.00  0.00    +0.191 C 
ATOM     15  C   UNL     1      33.085 -12.706 -22.934  0.00  0.00    +0.110 C 
ATOM     16  C   UNL     1      32.647 -12.934 -21.531  0.00  0.00    +0.236 C 
ENDROOT
BRANCH  15  19
ATOM     17  O   UNL     1      33.096 -13.831 -24.996  0.00  0.00    -0.270 OA
ATOM     18  N   UNL     1      34.384 -14.671 -23.244  0.00  0.00    -0.297 N 
ATOM     19  C   UNL     1      33.508 -13.777 -23.836  0.00  0.00    +0.251 C 
ATOM     20  H   UNL     1      34.640 -14.520 -22.305  0.00  0.00    +0.150 HD
BRANCH  18  21
ATOM     21  C   UNL     1      34.941 -15.815 -23.930  0.00  0.00    +0.119 C 
BRANCH  21  24
ATOM     22  F   UNL     1      34.178 -18.353 -24.920  0.00  0.00    -0.204 F 
ATOM     23  F   UNL     1      34.841 -20.445 -20.727  0.00  0.00    -0.204 F 
ATOM     24  C   UNL     1      34.914 -17.050 -23.077  0.00  0.00    +0.025 C 
ATOM     25  C   UNL     1      34.526 -18.272 -23.628  0.00  0.00    +0.140 C 
ATOM     26  C   UNL     1      35.277 -16.976 -21.731  0.00  0.00    +0.002 C 
ATOM     27  C   UNL     1      34.502 -19.419 -22.835  0.00  0.00    +0.059 C 
ATOM     28  C   UNL     1      35.251 -18.122 -20.938  0.00  0.00    +0.030 C 
ATOM     29  C   UNL     1      34.865 -19.344 -21.489  0.00  0.00    +0.142 C 
ENDBRANCH  21  24
ENDBRANCH  18  21
ENDBRANCH  15  19
BRANCH  14  30
ATOM     30  O   UNL     1      31.798 -11.950 -19.446  0.00  0.00    -0.502 OA
ATOM     31  H   UNL     1      31.340 -11.275 -18.984  0.00  0.00    +0.292 HD
ENDBRANCH  14  30
TORSDOF 4
ENDMDL
MODEL 6
REMARK VINA RESULT:     -10.3      9.089     13.199
REMARK  Name = 54713659
REMARK  4 active torsions:
REMARK  status: ('A' for Active; 'I' for Inactive)
REMARK    1  A    between atoms: C_14  and  O_30
REMARK    2  A    between atoms: C_15  and  C_19
REMARK    3  A    between atoms: N_18  and  C_21
REMARK    4  A    between atoms: C_21  and  C_24
REMARK                            x       y       z     vdW  Elec       q    Type
REMARK                         _______ _______ _______ _____ _____    ______ ____
ROOT
ATOM      1  O   UNL     1      35.558 -17.639 -21.145  0.00  0.00    -0.334 OA
ATOM      2  O   UNL     1      33.027 -17.827 -24.971  0.00  0.00    -0.268 OA
ATOM      3  O   UNL     1      33.240 -13.015 -26.713  0.00  0.00    -0.283 OA
ATOM      4  N   UNL     1      34.416 -17.645 -23.146  0.00  0.00    -0.251 N 
ATOM      5  N   UNL     1      34.268 -14.885 -23.262  0.00  0.00    -0.275 N 
ATOM      6  C   UNL     1      35.293 -16.859 -22.319  0.00  0.00    +0.215 C 
ATOM      7  C   UNL     1      34.353 -19.000 -22.655  0.00  0.00    +0.107 C 
ATOM      8  C   UNL     1      34.630 -15.536 -21.998  0.00  0.00    +0.147 C 
ATOM      9  C   UNL     1      34.689 -18.789 -21.189  0.00  0.00    +0.164 C 
ATOM     10  C   UNL     1      33.715 -17.139 -24.219  0.00  0.00    +0.268 C 
ATOM     11  C   UNL     1      33.817 -15.635 -24.365  0.00  0.00    +0.143 C 
ATOM     12  C   UNL     1      35.367 -19.890 -23.366  0.00  0.00    +0.024 C 
ATOM     13  C   UNL     1      34.313 -13.503 -23.373  0.00  0.00    +0.074 C 
ATOM     14  C   UNL     1      33.458 -15.068 -25.537  0.00  0.00    +0.191 C 
ATOM     15  C   UNL     1      33.987 -12.812 -24.472  0.00  0.00    +0.110 C 
ATOM     16  C   UNL     1      33.539 -13.578 -25.664  0.00  0.00    +0.236 C 
ENDROOT
BRANCH  15  19
ATOM     17  O   UNL     1      34.963 -10.762 -25.075  0.00  0.00    -0.270 OA
ATOM     18  N   UNL     1      33.133 -10.760 -23.631  0.00  0.00    -0.297 N 
ATOM     19  C   UNL     1      34.091 -11.353 -24.436  0.00  0.00    +0.251 C 
ATOM     20  H   UNL     1      32.487 -11.342 -23.169  0.00  0.00    +0.150 HD
BRANCH  18  21
ATOM     21  C   UNL     1      33.030  -9.332 -23.432  0.00  0.00    +0.119 C 
BRANCH  21  24
ATOM     22  F   UNL     1      33.671  -6.872 -22.189  0.00  0.00    -0.204 F 
ATOM     23  F   UNL     1      31.436  -8.047 -18.187  0.00  0.00    -0.204 F 
ATOM     24  C   UNL     1      32.606  -8.988 -22.034  0.00  0.00    +0.025 C 
ATOM     25  C   UNL     1      32.956  -7.756 -21.479  0.00  0.00    +0.140 C 
ATOM     26  C   UNL     1      31.861  -9.902 -21.287  0.00  0.00    +0.002 C 
ATOM     27  C   UNL     1      32.561  -7.438 -20.181  0.00  0.00    +0.059 C 
ATOM     28  C   UNL     1      31.467  -9.583 -19.988  0.00  0.00    +0.030 C 
ATOM     29  C   UNL     1      31.815  -8.352 -19.434  0.00  0.00    +0.142 C 
ENDBRANCH  21  24
ENDBRANCH  18  21
ENDBRANCH  15  19
BRANCH  14  30
ATOM     30  O   UNL     1      33.030 -15.777 -26.636  0.00  0.00    -0.502 OA
ATOM     31  H   UNL     1      33.171 -16.702 -26.681  0.00  0.00    +0.292 HD
ENDBRANCH  14  30
TORSDOF 4
ENDMDL
MODEL 7
REMARK VINA RESULT:     -10.1      3.879      8.357
REMARK  Name = 54713659
REMARK  4 active torsions:
REMARK  status: ('A' for Active; 'I' for Inactive)
REMARK    1  A    between atoms: C_14  and  O_30
REMARK    2  A    between atoms: C_15  and  C_19
REMARK    3  A    between atoms: N_18  and  C_21
REMARK    4  A    between atoms: C_21  and  C_24
REMARK                            x       y       z     vdW  Elec       q    Type
REMARK                         _______ _______ _______ _____ _____    ______ ____
ROOT
ATOM      1  O   UNL     1      37.833 -18.675 -20.790  0.00  0.00    -0.334 OA
ATOM      2  O   UNL     1      33.526 -19.932 -21.762  0.00  0.00    -0.268 OA
ATOM      3  O   UNL     1      32.171 -22.639 -17.630  0.00  0.00    -0.283 OA
ATOM      4  N   UNL     1      35.627 -19.255 -21.116  0.00  0.00    -0.251 N 
ATOM      5  N   UNL     1      35.646 -21.131 -19.083  0.00  0.00    -0.275 N 
ATOM      6  C   UNL     1      36.679 -19.216 -20.134  0.00  0.00    +0.215 C 
ATOM      7  C   UNL     1      36.008 -18.495 -22.281  0.00  0.00    +0.107 C 
ATOM      8  C   UNL     1      36.919 -20.612 -19.599  0.00  0.00    +0.147 C 
ATOM      9  C   UNL     1      37.522 -18.580 -22.195  0.00  0.00    +0.164 C 
ATOM     10  C   UNL     1      34.454 -19.962 -20.957  0.00  0.00    +0.268 C 
ATOM     11  C   UNL     1      34.427 -20.836 -19.721  0.00  0.00    +0.143 C 
ATOM     12  C   UNL     1      35.496 -17.061 -22.195  0.00  0.00    +0.024 C 
ATOM     13  C   UNL     1      35.633 -21.975 -17.981  0.00  0.00    +0.074 C 
ATOM     14  C   UNL     1      33.240 -21.311 -19.285  0.00  0.00    +0.191 C 
ATOM     15  C   UNL     1      34.532 -22.516 -17.445  0.00  0.00    +0.110 C 
ATOM     16  C   UNL     1      33.225 -22.195 -18.076  0.00  0.00    +0.236 C 
ENDROOT
BRANCH  15  19
ATOM     17  O   UNL     1      34.292 -24.553 -16.302  0.00  0.00    -0.270 OA
ATOM     18  N   UNL     1      35.273 -22.748 -15.200  0.00  0.00    -0.297 N 
ATOM     19  C   UNL     1      34.678 -23.384 -16.277  0.00  0.00    +0.251 C 
ATOM     20  H   UNL     1      35.539 -21.806 -15.303  0.00  0.00    +0.150 HD
BRANCH  18  21
ATOM     21  C   UNL     1      35.524 -23.394 -13.931  0.00  0.00    +0.119 C 
BRANCH  21  24
ATOM     22  F   UNL     1      36.168 -25.386 -12.028  0.00  0.00    -0.204 F 
ATOM     23  F   UNL     1      40.460 -26.103 -13.888  0.00  0.00    -0.204 F 
ATOM     24  C   UNL     1      36.839 -24.117 -13.919  0.00  0.00    +0.025 C 
ATOM     25  C   UNL     1      37.094 -25.089 -12.951  0.00  0.00    +0.140 C 
ATOM     26  C   UNL     1      37.809 -23.816 -14.876  0.00  0.00    +0.002 C 
ATOM     27  C   UNL     1      38.316 -25.760 -12.940  0.00  0.00    +0.059 C 
ATOM     28  C   UNL     1      39.032 -24.486 -14.865  0.00  0.00    +0.030 C 
ATOM     29  C   UNL     1      39.286 -25.459 -13.898  0.00  0.00    +0.142 C 
ENDBRANCH  21  24
ENDBRANCH  18  21
ENDBRANCH  15  19
BRANCH  14  30
ATOM     30  O   UNL     1      32.032 -21.025 -19.879  0.00  0.00    -0.502 OA
ATOM     31  H   UNL     1      31.821 -20.142 -20.112  0.00  0.00    +0.292 HD
ENDBRANCH  14  30
TORSDOF 4
ENDMDL
MODEL 8
REMARK VINA RESULT:     -10.1      2.182      3.617
REMARK  Name = 54713659
REMARK  4 active torsions:
REMARK  status: ('A' for Active; 'I' for Inactive)
REMARK    1  A    between atoms: C_14  and  O_30
REMARK    2  A    between atoms: C_15  and  C_19
REMARK    3  A    between atoms: N_18  and  C_21
REMARK    4  A    between atoms: C_21  and  C_24
REMARK                            x       y       z     vdW  Elec       q    Type
REMARK                         _______ _______ _______ _____ _____    ______ ____
ROOT
ATOM      1  O   UNL     1      34.317 -24.297 -12.336  0.00  0.00    -0.334 OA
ATOM      2  O   UNL     1      38.231 -23.315 -14.525  0.00  0.00    -0.268 OA
ATOM      3  O   UNL     1      36.594 -21.071 -18.829  0.00  0.00    -0.283 OA
ATOM      4  N   UNL     1      36.217 -23.644 -13.464  0.00  0.00    -0.251 N 
ATOM      5  N   UNL     1      34.853 -23.170 -15.824  0.00  0.00    -0.275 N 
ATOM      6  C   UNL     1      34.785 -23.500 -13.432  0.00  0.00    +0.215 C 
ATOM      7  C   UNL     1      36.679 -24.278 -12.254  0.00  0.00    +0.107 C 
ATOM      8  C   UNL     1      34.205 -23.943 -14.758  0.00  0.00    +0.147 C 
ATOM      9  C   UNL     1      35.441 -25.059 -11.849  0.00  0.00    +0.164 C 
ATOM     10  C   UNL     1      37.003 -23.263 -14.530  0.00  0.00    +0.268 C 
ATOM     11  C   UNL     1      36.216 -22.822 -15.747  0.00  0.00    +0.143 C 
ATOM     12  C   UNL     1      37.085 -23.242 -11.210  0.00  0.00    +0.024 C 
ATOM     13  C   UNL     1      34.141 -22.815 -16.960  0.00  0.00    +0.074 C 
ATOM     14  C   UNL     1      36.849 -22.128 -16.716  0.00  0.00    +0.191 C 
ATOM     15  C   UNL     1      34.642 -22.129 -17.995  0.00  0.00    +0.110 C 
ATOM     16  C   UNL     1      36.069 -21.718 -17.927  0.00  0.00    +0.236 C 
ENDROOT
BRANCH  15  19
ATOM     17  O   UNL     1      32.667 -22.374 -19.242  0.00  0.00    -0.270 OA
ATOM     18  N   UNL     1      34.299 -20.888 -19.992  0.00  0.00    -0.297 N 
ATOM     19  C   UNL     1      33.762 -21.824 -19.123  0.00  0.00    +0.251 C 
ATOM     20  H   UNL     1      35.188 -20.518 -19.788  0.00  0.00    +0.150 HD
BRANCH  18  21
ATOM     21  C   UNL     1      33.622 -20.424 -21.182  0.00  0.00    +0.119 C 
BRANCH  21  24
ATOM     22  F   UNL     1      33.609 -19.737 -23.926  0.00  0.00    -0.204 F 
ATOM     23  F   UNL     1      35.862 -15.648 -23.151  0.00  0.00    -0.204 F 
ATOM     24  C   UNL     1      34.219 -19.151 -21.708  0.00  0.00    +0.025 C 
ATOM     25  C   UNL     1      34.180 -18.873 -23.074  0.00  0.00    +0.140 C 
ATOM     26  C   UNL     1      34.814 -18.245 -20.829  0.00  0.00    +0.002 C 
ATOM     27  C   UNL     1      34.734 -17.690 -23.562  0.00  0.00    +0.059 C 
ATOM     28  C   UNL     1      35.369 -17.063 -21.317  0.00  0.00    +0.030 C 
ATOM     29  C   UNL     1      35.329 -16.784 -22.683  0.00  0.00    +0.142 C 
ENDBRANCH  21  24
ENDBRANCH  18  21
ENDBRANCH  15  19
BRANCH  14  30
ATOM     30  O   UNL     1      38.174 -21.760 -16.659  0.00  0.00    -0.502 OA
ATOM     31  H   UNL     1      38.415 -20.928 -16.303  0.00  0.00    +0.292 HD
ENDBRANCH  14  30
TORSDOF 4
ENDMDL
MODEL 9
REMARK VINA RESULT:     -10.0      8.722     13.200
REMARK  Name = 54713659
REMARK  4 active torsions:
REMARK  status: ('A' for Active; 'I' for Inactive)
REMARK    1  A    between atoms: C_14  and  O_30
REMARK    2  A    between atoms: C_15  and  C_19
REMARK    3  A    between atoms: N_18  and  C_21
REMARK    4  A    between atoms: C_21  and  C_24
REMARK                            x       y       z     vdW  Elec       q    Type
REMARK                         _______ _______ _______ _____ _____    ______ ____
ROOT
ATOM      1  O   UNL     1      31.096 -10.853 -20.212  0.00  0.00    -0.334 OA
ATOM      2  O   UNL     1      33.934  -9.652 -23.614  0.00  0.00    -0.268 OA
ATOM      3  O   UNL     1      34.334 -13.971 -26.339  0.00  0.00    -0.283 OA
ATOM      4  N   UNL     1      32.409 -10.328 -22.030  0.00  0.00    -0.251 N 
ATOM      5  N   UNL     1      32.825 -12.978 -22.706  0.00  0.00    -0.275 N 
ATOM      6  C   UNL     1      31.538 -11.337 -21.487  0.00  0.00    +0.215 C 
ATOM      7  C   UNL     1      32.298  -9.112 -21.263  0.00  0.00    +0.107 C 
ATOM      8  C   UNL     1      32.291 -12.646 -21.379  0.00  0.00    +0.147 C 
ATOM      9  C   UNL     1      31.852  -9.661 -19.919  0.00  0.00    +0.164 C 
ATOM     10  C   UNL     1      33.249 -10.536 -23.103  0.00  0.00    +0.268 C 
ATOM     11  C   UNL     1      33.303 -11.975 -23.571  0.00  0.00    +0.143 C 
ATOM     12  C   UNL     1      31.274  -8.164 -21.877  0.00  0.00    +0.024 C 
ATOM     13  C   UNL     1      32.921 -14.302 -23.107  0.00  0.00    +0.074 C 
ATOM     14  C   UNL     1      33.818 -12.245 -24.789  0.00  0.00    +0.191 C 
ATOM     15  C   UNL     1      33.410 -14.712 -24.284  0.00  0.00    +0.110 C 
ATOM     16  C   UNL     1      33.890 -13.673 -25.234  0.00  0.00    +0.236 C 
ENDROOT
BRANCH  15  19
ATOM     17  O   UNL     1      32.814 -16.622 -25.515  0.00  0.00    -0.270 OA
ATOM     18  N   UNL     1      34.225 -16.859 -23.674  0.00  0.00    -0.297 N 
ATOM     19  C   UNL     1      33.441 -16.147 -24.567  0.00  0.00    +0.251 C 
ATOM     20  H   UNL     1      34.678 -16.363 -22.954  0.00  0.00    +0.150 HD
BRANCH  18  21
ATOM     21  C   UNL     1      34.412 -18.290 -23.742  0.00  0.00    +0.119 C 
BRANCH  21  24
ATOM     22  F   UNL     1      33.118 -19.928 -21.833  0.00  0.00    -0.204 F 
ATOM     23  F   UNL     1      37.011 -20.296 -19.167  0.00  0.00    -0.204 F 
ATOM     24  C   UNL     1      35.104 -18.826 -22.522  0.00  0.00    +0.025 C 
ATOM     25  C   UNL     1      34.407 -19.628 -21.619  0.00  0.00    +0.140 C 
ATOM     26  C   UNL     1      36.446 -18.519 -22.291  0.00  0.00    +0.002 C 
ATOM     27  C   UNL     1      35.050 -20.125 -20.486  0.00  0.00    +0.059 C 
ATOM     28  C   UNL     1      37.088 -19.015 -21.157  0.00  0.00    +0.030 C 
ATOM     29  C   UNL     1      36.392 -19.819 -20.255  0.00  0.00    +0.142 C 
ENDBRANCH  21  24
ENDBRANCH  18  21
ENDBRANCH  15  19
BRANCH  14  30
ATOM     30  O   UNL     1      34.275 -11.284 -25.662  0.00  0.00    -0.502 OA
ATOM     31  H   UNL     1      35.179 -11.036 -25.655  0.00  0.00    +0.292 HD
ENDBRANCH  14  30
TORSDOF 4
ENDMDL
