MODEL 1
REMARK VINA RESULT:     -11.8      0.000      0.000
REMARK  Name = 46937134
REMARK  9 active torsions:
REMARK  status: ('A' for Active; 'I' for Inactive)
REMARK    1  A    between atoms: N_2  and  C_15
REMARK    2  A    between atoms: N_6  and  C_29
REMARK    3  A    between atoms: C_16  and  O_19
REMARK    4  A    between atoms: C_18  and  C_21
REMARK    5  A    between atoms: C_21  and  O_22
REMARK    6  A    between atoms: O_22  and  P_23
REMARK    7  A    between atoms: P_23  and  O_25
REMARK    8  A    between atoms: P_23  and  O_27
REMARK    9  A    between atoms: C_29  and  C_30
REMARK                            x       y       z     vdW  Elec       q    Type
REMARK                         _______ _______ _______ _____ _____    ______ ____
ROOT
ATOM      1  O   UNL     1      37.448 -22.772 -13.967  0.00  0.00    -0.208 OA
ATOM      2  N   UNL     1      33.295 -24.536 -13.696  0.00  0.00    -0.209 NA
ATOM      3  N   UNL     1      33.901 -23.489 -15.806  0.00  0.00    -0.279 N 
ATOM      4  N   UNL     1      35.230 -24.172 -12.620  0.00  0.00    -0.241 NA
ATOM      5  N   UNL     1      36.122 -22.579 -15.858  0.00  0.00    -0.301 NA
ATOM      6  N   UNL     1      34.683 -22.456 -17.693  0.00  0.00    -0.292 N 
ATOM      7  C   UNL     1      34.117 -23.882 -14.548  0.00  0.00    +0.191 C 
ATOM      8  C   UNL     1      34.017 -24.690 -12.534  0.00  0.00    +0.205 C 
ATOM      9  C   UNL     1      35.291 -23.665 -13.888  0.00  0.00    +0.183 C 
ATOM     10  C   UNL     1      34.957 -22.828 -16.428  0.00  0.00    +0.248 C 
ATOM     11  C   UNL     1      36.386 -22.977 -14.542  0.00  0.00    +0.224 C 
ATOM     12  H   UNL     1      33.045 -23.656 -16.266  0.00  0.00    +0.152 HD
ATOM     13  H   UNL     1      33.796 -22.669 -18.063  0.00  0.00    +0.151 HD
ENDROOT
BRANCH   2  15
ATOM     14  O   UNL     1      31.393 -24.596 -15.232  0.00  0.00    -0.338 OA
ATOM     15  C   UNL     1      31.883 -25.006 -13.941  0.00  0.00    +0.182 C 
ATOM     16  C   UNL     1      29.589 -24.517 -13.684  0.00  0.00    +0.144 C 
ATOM     17  C   UNL     1      30.889 -24.473 -12.915  0.00  0.00    +0.079 C 
ATOM     18  C   UNL     1      30.020 -24.175 -15.105  0.00  0.00    +0.174 C 
BRANCH  16  19
ATOM     19  O   UNL     1      29.086 -25.850 -13.645  0.00  0.00    -0.382 OA
ATOM     20  H   UNL     1      29.057 -26.211 -14.546  0.00  0.00    +0.210 HD
ENDBRANCH  16  19
BRANCH  18  21
ATOM     21  C   UNL     1      29.960 -22.681 -15.394  0.00  0.00    +0.186 C 
BRANCH  21  22
ATOM     22  O   UNL     1      29.149 -22.473 -16.538  0.00  0.00    -0.271 OA
BRANCH  22  23
ATOM     23  P   UNL     1      27.554 -22.720 -16.410  0.00  0.00    +0.473 P 
ATOM     24  O   UNL     1      27.030 -22.758 -15.005  0.00  0.00    -0.227 OA
BRANCH  23  25
ATOM     25  O   UNL     1      26.931 -21.554 -17.341  0.00  0.00    -0.303 OA
ATOM     26  H   UNL     1      26.801 -21.894 -18.241  0.00  0.00    +0.222 HD
ENDBRANCH  23  25
BRANCH  23  27
ATOM     27  O   UNL     1      27.305 -24.062 -17.278  0.00  0.00    -0.303 OA
ATOM     28  H   UNL     1      27.763 -24.807 -16.859  0.00  0.00    +0.222 HD
ENDBRANCH  23  27
ENDBRANCH  22  23
ENDBRANCH  21  22
ENDBRANCH  18  21
ENDBRANCH   2  15
BRANCH   6  29
ATOM     29  C   UNL     1      35.630 -21.757 -18.530  0.00  0.00    +0.117 C 
BRANCH  29  30
ATOM     30  C   UNL     1      34.923 -20.962 -19.583  0.00  0.00    -0.003 C 
ATOM     31  C   UNL     1      35.604 -20.067 -20.424  0.00  0.00    -0.002 C 
ATOM     32  C   UNL     1      34.877 -19.343 -21.400  0.00  0.00    -0.000 C 
ATOM     33  C   UNL     1      33.545 -21.142 -19.703  0.00  0.00    -0.003 C 
ATOM     34  C   UNL     1      36.990 -19.872 -20.318  0.00  0.00    -0.000 C 
ATOM     35  C   UNL     1      33.490 -19.537 -21.505  0.00  0.00    -0.000 C 
ATOM     36  C   UNL     1      32.830 -20.432 -20.662  0.00  0.00    -0.000 C 
ATOM     37  C   UNL     1      35.558 -18.447 -22.240  0.00  0.00    -0.000 C 
ATOM     38  C   UNL     1      37.651 -18.978 -21.160  0.00  0.00    -0.000 C 
ATOM     39  C   UNL     1      36.936 -18.268 -22.120  0.00  0.00    -0.000 C 
ENDBRANCH  29  30
ENDBRANCH   6  29
TORSDOF 9
ENDMDL
MODEL 2
REMARK VINA RESULT:     -10.8      2.960      6.291
REMARK  Name = 46937134
REMARK  9 active torsions:
REMARK  status: ('A' for Active; 'I' for Inactive)
REMARK    1  A    between atoms: N_2  and  C_15
REMARK    2  A    between atoms: N_6  and  C_29
REMARK    3  A    between atoms: C_16  and  O_19
REMARK    4  A    between atoms: C_18  and  C_21
REMARK    5  A    between atoms: C_21  and  O_22
REMARK    6  A    between atoms: O_22  and  P_23
REMARK    7  A    between atoms: P_23  and  O_25
REMARK    8  A    between atoms: P_23  and  O_27
REMARK    9  A    between atoms: C_29  and  C_30
REMARK                            x       y       z     vdW  Elec       q    Type
REMARK                         _______ _______ _______ _____ _____    ______ ____
ROOT
ATOM      1  O   UNL     1      30.638 -23.188 -16.717  0.00  0.00    -0.208 OA
ATOM      2  N   UNL     1      33.888 -23.695 -13.617  0.00  0.00    -0.209 NA
ATOM      3  N   UNL     1      34.589 -22.940 -15.821  0.00  0.00    -0.279 N 
ATOM      4  N   UNL     1      31.691 -23.855 -14.045  0.00  0.00    -0.241 NA
ATOM      5  N   UNL     1      32.798 -22.701 -17.401  0.00  0.00    -0.301 NA
ATOM      6  N   UNL     1      35.018 -22.241 -17.957  0.00  0.00    -0.292 N 
ATOM      7  C   UNL     1      33.697 -23.332 -14.906  0.00  0.00    +0.191 C 
ATOM      8  C   UNL     1      32.636 -24.005 -13.134  0.00  0.00    +0.205 C 
ATOM      9  C   UNL     1      32.360 -23.431 -15.159  0.00  0.00    +0.183 C 
ATOM     10  C   UNL     1      34.076 -22.629 -17.078  0.00  0.00    +0.248 C 
ATOM     11  C   UNL     1      31.834 -23.107 -16.469  0.00  0.00    +0.224 C 
ATOM     12  H   UNL     1      35.551 -22.874 -15.618  0.00  0.00    +0.152 HD
ATOM     13  H   UNL     1      35.955 -22.208 -17.657  0.00  0.00    +0.151 HD
ENDROOT
BRANCH   2  15
ATOM     14  O   UNL     1      36.322 -23.901 -13.720  0.00  0.00    -0.338 OA
ATOM     15  C   UNL     1      35.184 -23.757 -12.849  0.00  0.00    +0.182 C 
ATOM     16  C   UNL     1      36.732 -25.149 -11.737  0.00  0.00    +0.144 C 
ATOM     17  C   UNL     1      35.243 -24.924 -11.869  0.00  0.00    +0.079 C 
ATOM     18  C   UNL     1      37.250 -24.837 -13.136  0.00  0.00    +0.174 C 
BRANCH  16  19
ATOM     19  O   UNL     1      37.253 -24.198 -10.811  0.00  0.00    -0.382 OA
ATOM     20  H   UNL     1      38.166 -23.978 -11.055  0.00  0.00    +0.210 HD
ENDBRANCH  16  19
BRANCH  18  21
ATOM     21  C   UNL     1      37.301 -26.068 -14.032  0.00  0.00    +0.186 C 
BRANCH  21  22
ATOM     22  O   UNL     1      38.648 -26.493 -14.141  0.00  0.00    -0.271 OA
BRANCH  22  23
ATOM     23  P   UNL     1      39.774 -25.399 -14.537  0.00  0.00    +0.473 P 
ATOM     24  O   UNL     1      40.646 -24.948 -13.402  0.00  0.00    -0.227 OA
BRANCH  23  25
ATOM     25  O   UNL     1      40.559 -26.113 -15.758  0.00  0.00    -0.303 OA
ATOM     26  H   UNL     1      40.350 -25.656 -16.588  0.00  0.00    +0.222 HD
ENDBRANCH  23  25
BRANCH  23  27
ATOM     27  O   UNL     1      38.931 -24.230 -15.270  0.00  0.00    -0.303 OA
ATOM     28  H   UNL     1      38.064 -24.142 -14.844  0.00  0.00    +0.222 HD
ENDBRANCH  23  27
ENDBRANCH  22  23
ENDBRANCH  21  22
ENDBRANCH  18  21
ENDBRANCH   2  15
BRANCH   6  29
ATOM     29  C   UNL     1      34.717 -21.870 -19.321  0.00  0.00    +0.117 C 
BRANCH  29  30
ATOM     30  C   UNL     1      35.607 -20.756 -19.777  0.00  0.00    -0.003 C 
ATOM     31  C   UNL     1      35.284 -19.949 -20.880  0.00  0.00    -0.002 C 
ATOM     32  C   UNL     1      36.168 -18.912 -21.262  0.00  0.00    -0.000 C 
ATOM     33  C   UNL     1      36.783 -20.541 -19.059  0.00  0.00    -0.003 C 
ATOM     34  C   UNL     1      34.104 -20.150 -21.615  0.00  0.00    -0.000 C 
ATOM     35  C   UNL     1      37.349 -18.712 -20.529  0.00  0.00    -0.000 C 
ATOM     36  C   UNL     1      37.653 -19.522 -19.434  0.00  0.00    -0.000 C 
ATOM     37  C   UNL     1      35.846 -18.106 -22.366  0.00  0.00    -0.000 C 
ATOM     38  C   UNL     1      33.799 -19.340 -22.709  0.00  0.00    -0.000 C 
ATOM     39  C   UNL     1      34.669 -18.319 -23.083  0.00  0.00    -0.000 C 
ENDBRANCH  29  30
ENDBRANCH   6  29
TORSDOF 9
ENDMDL
MODEL 3
REMARK VINA RESULT:     -10.6      3.871      6.619
REMARK  Name = 46937134
REMARK  9 active torsions:
REMARK  status: ('A' for Active; 'I' for Inactive)
REMARK    1  A    between atoms: N_2  and  C_15
REMARK    2  A    between atoms: N_6  and  C_29
REMARK    3  A    between atoms: C_16  and  O_19
REMARK    4  A    between atoms: C_18  and  C_21
REMARK    5  A    between atoms: C_21  and  O_22
REMARK    6  A    between atoms: O_22  and  P_23
REMARK    7  A    between atoms: P_23  and  O_25
REMARK    8  A    between atoms: P_23  and  O_27
REMARK    9  A    between atoms: C_29  and  C_30
REMARK                            x       y       z     vdW  Elec       q    Type
REMARK                         _______ _______ _______ _____ _____    ______ ____
ROOT
ATOM      1  O   UNL     1      31.710 -20.461 -20.705  0.00  0.00    -0.208 OA
ATOM      2  N   UNL     1      34.708 -22.305 -17.870  0.00  0.00    -0.209 NA
ATOM      3  N   UNL     1      35.597 -20.844 -19.600  0.00  0.00    -0.279 N 
ATOM      4  N   UNL     1      32.540 -22.138 -18.427  0.00  0.00    -0.241 NA
ATOM      5  N   UNL     1      33.933 -19.912 -21.058  0.00  0.00    -0.301 NA
ATOM      6  N   UNL     1      36.207 -19.440 -21.301  0.00  0.00    -0.292 N 
ATOM      7  C   UNL     1      34.626 -21.480 -18.939  0.00  0.00    +0.191 C 
ATOM      8  C   UNL     1      33.412 -22.681 -17.595  0.00  0.00    +0.205 C 
ATOM      9  C   UNL     1      33.306 -21.383 -19.271  0.00  0.00    +0.183 C 
ATOM     10  C   UNL     1      35.188 -20.057 -20.674  0.00  0.00    +0.248 C 
ATOM     11  C   UNL     1      32.889 -20.562 -20.390  0.00  0.00    +0.224 C 
ATOM     12  H   UNL     1      36.544 -20.927 -19.343  0.00  0.00    +0.152 HD
ATOM     13  H   UNL     1      37.122 -19.588 -20.968  0.00  0.00    +0.151 HD
ENDROOT
BRANCH   2  15
ATOM     14  O   UNL     1      35.661 -23.781 -16.169  0.00  0.00    -0.338 OA
ATOM     15  C   UNL     1      35.943 -22.738 -17.121  0.00  0.00    +0.182 C 
ATOM     16  C   UNL     1      37.327 -22.356 -15.248  0.00  0.00    +0.144 C 
ATOM     17  C   UNL     1      36.594 -21.605 -16.335  0.00  0.00    +0.079 C 
ATOM     18  C   UNL     1      36.398 -23.528 -14.956  0.00  0.00    +0.174 C 
BRANCH  16  19
ATOM     19  O   UNL     1      38.556 -22.842 -15.783  0.00  0.00    -0.382 OA
ATOM     20  H   UNL     1      38.402 -23.693 -16.224  0.00  0.00    +0.210 HD
ENDBRANCH  16  19
BRANCH  18  21
ATOM     21  C   UNL     1      35.394 -23.222 -13.853  0.00  0.00    +0.186 C 
BRANCH  21  22
ATOM     22  O   UNL     1      36.034 -23.385 -12.599  0.00  0.00    -0.271 OA
BRANCH  22  23
ATOM     23  P   UNL     1      35.561 -24.602 -11.642  0.00  0.00    +0.473 P 
ATOM     24  O   UNL     1      35.867 -24.417 -10.184  0.00  0.00    -0.227 OA
BRANCH  23  25
ATOM     25  O   UNL     1      33.991 -24.751 -11.997  0.00  0.00    -0.303 OA
ATOM     26  H   UNL     1      33.522 -25.127 -11.235  0.00  0.00    +0.222 HD
ENDBRANCH  23  25
BRANCH  23  27
ATOM     27  O   UNL     1      36.225 -25.908 -12.327  0.00  0.00    -0.303 OA
ATOM     28  H   UNL     1      36.509 -26.526 -11.637  0.00  0.00    +0.222 HD
ENDBRANCH  23  27
ENDBRANCH  22  23
ENDBRANCH  21  22
ENDBRANCH  18  21
ENDBRANCH   2  15
BRANCH   6  29
ATOM     29  C   UNL     1      36.019 -18.573 -22.442  0.00  0.00    +0.117 C 
BRANCH  29  30
ATOM     30  C   UNL     1      35.353 -17.296 -22.033  0.00  0.00    -0.003 C 
ATOM     31  C   UNL     1      34.768 -16.428 -22.970  0.00  0.00    -0.002 C 
ATOM     32  C   UNL     1      34.154 -15.235 -22.520  0.00  0.00    -0.000 C 
ATOM     33  C   UNL     1      35.330 -16.993 -20.672  0.00  0.00    -0.003 C 
ATOM     34  C   UNL     1      34.782 -16.717 -24.344  0.00  0.00    -0.000 C 
ATOM     35  C   UNL     1      34.142 -14.946 -21.146  0.00  0.00    -0.000 C 
ATOM     36  C   UNL     1      34.726 -15.820 -20.229  0.00  0.00    -0.000 C 
ATOM     37  C   UNL     1      33.571 -14.367 -23.457  0.00  0.00    -0.000 C 
ATOM     38  C   UNL     1      34.198 -15.843 -25.262  0.00  0.00    -0.000 C 
ATOM     39  C   UNL     1      33.593 -14.671 -24.818  0.00  0.00    -0.000 C 
ENDBRANCH  29  30
ENDBRANCH   6  29
TORSDOF 9
ENDMDL
MODEL 4
REMARK VINA RESULT:     -10.4      2.880      5.878
REMARK  Name = 46937134
REMARK  9 active torsions:
REMARK  status: ('A' for Active; 'I' for Inactive)
REMARK    1  A    between atoms: N_2  and  C_15
REMARK    2  A    between atoms: N_6  and  C_29
REMARK    3  A    between atoms: C_16  and  O_19
REMARK    4  A    between atoms: C_18  and  C_21
REMARK    5  A    between atoms: C_21  and  O_22
REMARK    6  A    between atoms: O_22  and  P_23
REMARK    7  A    between atoms: P_23  and  O_25
REMARK    8  A    between atoms: P_23  and  O_27
REMARK    9  A    between atoms: C_29  and  C_30
REMARK                            x       y       z     vdW  Elec       q    Type
REMARK                         _______ _______ _______ _____ _____    ______ ____
ROOT
ATOM      1  O   UNL     1      31.126 -22.721 -16.587  0.00  0.00    -0.208 OA
ATOM      2  N   UNL     1      35.071 -24.342 -15.091  0.00  0.00    -0.209 NA
ATOM      3  N   UNL     1      35.130 -23.066 -17.161  0.00  0.00    -0.279 N 
ATOM      4  N   UNL     1      32.864 -24.191 -14.713  0.00  0.00    -0.241 NA
ATOM      5  N   UNL     1      32.991 -22.247 -17.879  0.00  0.00    -0.301 NA
ATOM      6  N   UNL     1      34.948 -21.839 -19.084  0.00  0.00    -0.292 N 
ATOM      7  C   UNL     1      34.535 -23.620 -16.101  0.00  0.00    +0.191 C 
ATOM      8  C   UNL     1      34.015 -24.668 -14.270  0.00  0.00    +0.205 C 
ATOM      9  C   UNL     1      33.194 -23.532 -15.864  0.00  0.00    +0.183 C 
ATOM     10  C   UNL     1      34.295 -22.376 -18.037  0.00  0.00    +0.248 C 
ATOM     11  C   UNL     1      32.332 -22.813 -16.781  0.00  0.00    +0.224 C 
ATOM     12  H   UNL     1      36.100 -23.141 -17.314  0.00  0.00    +0.152 HD
ATOM     13  H   UNL     1      35.922 -21.971 -19.148  0.00  0.00    +0.151 HD
ENDROOT
BRANCH   2  15
ATOM     14  O   UNL     1      36.650 -26.014 -14.259  0.00  0.00    -0.338 OA
ATOM     15  C   UNL     1      36.515 -24.724 -14.885  0.00  0.00    +0.182 C 
ATOM     16  C   UNL     1      38.382 -24.602 -13.446  0.00  0.00    +0.144 C 
ATOM     17  C   UNL     1      37.275 -23.738 -14.003  0.00  0.00    +0.079 C 
ATOM     18  C   UNL     1      37.708 -25.959 -13.281  0.00  0.00    +0.174 C 
BRANCH  16  19
ATOM     19  O   UNL     1      39.416 -24.698 -14.423  0.00  0.00    -0.382 OA
ATOM     20  H   UNL     1      40.168 -24.147 -14.152  0.00  0.00    +0.210 HD
ENDBRANCH  16  19
BRANCH  18  21
ATOM     21  C   UNL     1      37.084 -26.142 -11.904  0.00  0.00    +0.186 C 
BRANCH  21  22
ATOM     22  O   UNL     1      35.873 -25.407 -11.853  0.00  0.00    -0.271 OA
BRANCH  22  23
ATOM     23  P   UNL     1      35.705 -24.274 -10.708  0.00  0.00    +0.473 P 
ATOM     24  O   UNL     1      36.924 -23.436 -10.462  0.00  0.00    -0.227 OA
BRANCH  23  25
ATOM     25  O   UNL     1      34.400 -23.455 -11.199  0.00  0.00    -0.303 OA
ATOM     26  H   UNL     1      34.105 -23.801 -12.057  0.00  0.00    +0.222 HD
ENDBRANCH  23  25
BRANCH  23  27
ATOM     27  O   UNL     1      35.164 -25.102  -9.428  0.00  0.00    -0.303 OA
ATOM     28  H   UNL     1      34.527 -25.771  -9.721  0.00  0.00    +0.222 HD
ENDBRANCH  23  27
ENDBRANCH  22  23
ENDBRANCH  21  22
ENDBRANCH  18  21
ENDBRANCH   2  15
BRANCH   6  29
ATOM     29  C   UNL     1      34.285 -21.080 -20.120  0.00  0.00    +0.117 C 
BRANCH  29  30
ATOM     30  C   UNL     1      35.211 -20.058 -20.704  0.00  0.00    -0.003 C 
ATOM     31  C   UNL     1      34.898 -19.356 -21.879  0.00  0.00    -0.002 C 
ATOM     32  C   UNL     1      35.816 -18.403 -22.381  0.00  0.00    -0.000 C 
ATOM     33  C   UNL     1      36.410 -19.822 -20.032  0.00  0.00    -0.003 C 
ATOM     34  C   UNL     1      33.696 -19.580 -22.569  0.00  0.00    -0.000 C 
ATOM     35  C   UNL     1      37.019 -18.179 -21.692  0.00  0.00    -0.000 C 
ATOM     36  C   UNL     1      37.312 -18.885 -20.524  0.00  0.00    -0.000 C 
ATOM     37  C   UNL     1      35.505 -17.701 -23.557  0.00  0.00    -0.000 C 
ATOM     38  C   UNL     1      33.402 -18.875 -23.736  0.00  0.00    -0.000 C 
ATOM     39  C   UNL     1      34.305 -17.936 -24.229  0.00  0.00    -0.000 C 
ENDBRANCH  29  30
ENDBRANCH   6  29
TORSDOF 9
ENDMDL
MODEL 5
REMARK VINA RESULT:     -10.3      7.161     10.603
REMARK  Name = 46937134
REMARK  9 active torsions:
REMARK  status: ('A' for Active; 'I' for Inactive)
REMARK    1  A    between atoms: N_2  and  C_15
REMARK    2  A    between atoms: N_6  and  C_29
REMARK    3  A    between atoms: C_16  and  O_19
REMARK    4  A    between atoms: C_18  and  C_21
REMARK    5  A    between atoms: C_21  and  O_22
REMARK    6  A    between atoms: O_22  and  P_23
REMARK    7  A    between atoms: P_23  and  O_25
REMARK    8  A    between atoms: P_23  and  O_27
REMARK    9  A    between atoms: C_29  and  C_30
REMARK                            x       y       z     vdW  Elec       q    Type
REMARK                         _______ _______ _______ _____ _____    ______ ____
ROOT
ATOM      1  O   UNL     1      32.299 -16.225 -26.261  0.00  0.00    -0.208 OA
ATOM      2  N   UNL     1      35.057 -18.243 -23.304  0.00  0.00    -0.209 NA
ATOM      3  N   UNL     1      34.815 -15.832 -23.100  0.00  0.00    -0.279 N 
ATOM      4  N   UNL     1      33.679 -18.532 -25.051  0.00  0.00    -0.241 NA
ATOM      5  N   UNL     1      33.334 -14.847 -24.712  0.00  0.00    -0.301 NA
ATOM      6  N   UNL     1      34.438 -13.575 -23.095  0.00  0.00    -0.292 N 
ATOM      7  C   UNL     1      34.573 -17.027 -23.644  0.00  0.00    +0.191 C 
ATOM      8  C   UNL     1      34.484 -19.129 -24.189  0.00  0.00    +0.205 C 
ATOM      9  C   UNL     1      33.736 -17.211 -24.706  0.00  0.00    +0.183 C 
ATOM     10  C   UNL     1      34.156 -14.752 -23.684  0.00  0.00    +0.248 C 
ATOM     11  C   UNL     1      33.055 -16.083 -25.308  0.00  0.00    +0.224 C 
ATOM     12  H   UNL     1      35.423 -15.721 -22.333  0.00  0.00    +0.152 HD
ATOM     13  H   UNL     1      35.060 -13.568 -22.332  0.00  0.00    +0.151 HD
ENDROOT
BRANCH   2  15
ATOM     14  O   UNL     1      36.023 -19.993 -21.894  0.00  0.00    -0.338 OA
ATOM     15  C   UNL     1      36.021 -18.584 -22.195  0.00  0.00    +0.182 C 
ATOM     16  C   UNL     1      36.323 -18.792 -19.864  0.00  0.00    +0.144 C 
ATOM     17  C   UNL     1      35.706 -17.866 -20.887  0.00  0.00    +0.079 C 
ATOM     18  C   UNL     1      36.089 -20.172 -20.465  0.00  0.00    +0.174 C 
BRANCH  16  19
ATOM     19  O   UNL     1      37.723 -18.528 -19.802  0.00  0.00    -0.382 OA
ATOM     20  H   UNL     1      38.071 -18.831 -18.948  0.00  0.00    +0.210 HD
ENDBRANCH  16  19
BRANCH  18  21
ATOM     21  C   UNL     1      34.777 -20.797 -20.009  0.00  0.00    +0.186 C 
BRANCH  21  22
ATOM     22  O   UNL     1      35.058 -21.762 -19.009  0.00  0.00    -0.271 OA
BRANCH  22  23
ATOM     23  P   UNL     1      33.832 -22.636 -18.414  0.00  0.00    +0.473 P 
ATOM     24  O   UNL     1      32.498 -21.949 -18.429  0.00  0.00    -0.227 OA
BRANCH  23  25
ATOM     25  O   UNL     1      33.908 -24.000 -19.279  0.00  0.00    -0.303 OA
ATOM     26  H   UNL     1      33.757 -24.761 -18.696  0.00  0.00    +0.222 HD
ENDBRANCH  23  25
BRANCH  23  27
ATOM     27  O   UNL     1      34.360 -23.091 -16.955  0.00  0.00    -0.303 OA
ATOM     28  H   UNL     1      34.094 -22.432 -16.295  0.00  0.00    +0.222 HD
ENDBRANCH  23  27
ENDBRANCH  22  23
ENDBRANCH  21  22
ENDBRANCH  18  21
ENDBRANCH   2  15
BRANCH   6  29
ATOM     29  C   UNL     1      33.868 -12.321 -23.533  0.00  0.00    +0.117 C 
BRANCH  29  30
ATOM     30  C   UNL     1      32.952 -11.761 -22.489  0.00  0.00    -0.003 C 
ATOM     31  C   UNL     1      32.738 -10.380 -22.350  0.00  0.00    -0.002 C 
ATOM     32  C   UNL     1      31.860  -9.913 -21.342  0.00  0.00    -0.000 C 
ATOM     33  C   UNL     1      32.308 -12.669 -21.649  0.00  0.00    -0.003 C 
ATOM     34  C   UNL     1      33.377  -9.451 -23.186  0.00  0.00    -0.000 C 
ATOM     35  C   UNL     1      31.222 -10.842 -20.504  0.00  0.00    -0.000 C 
ATOM     36  C   UNL     1      31.445 -12.211 -20.658  0.00  0.00    -0.000 C 
ATOM     37  C   UNL     1      31.647  -8.532 -21.201  0.00  0.00    -0.000 C 
ATOM     38  C   UNL     1      33.154  -8.082 -23.033  0.00  0.00    -0.000 C 
ATOM     39  C   UNL     1      32.290  -7.624 -22.043  0.00  0.00    -0.000 C 
ENDBRANCH  29  30
ENDBRANCH   6  29
TORSDOF 9
ENDMDL
MODEL 6
REMARK VINA RESULT:     -10.0     12.086     15.232
REMARK  Name = 46937134
REMARK  9 active torsions:
REMARK  status: ('A' for Active; 'I' for Inactive)
REMARK    1  A    between atoms: N_2  and  C_15
REMARK    2  A    between atoms: N_6  and  C_29
REMARK    3  A    between atoms: C_16  and  O_19
REMARK    4  A    between atoms: C_18  and  C_21
REMARK    5  A    between atoms: C_21  and  O_22
REMARK    6  A    between atoms: O_22  and  P_23
REMARK    7  A    between atoms: P_23  and  O_25
REMARK    8  A    between atoms: P_23  and  O_27
REMARK    9  A    between atoms: C_29  and  C_30
REMARK                            x       y       z     vdW  Elec       q    Type
REMARK                         _______ _______ _______ _____ _____    ______ ____
ROOT
ATOM      1  O   UNL     1      31.679  -8.371 -18.844  0.00  0.00    -0.208 OA
ATOM      2  N   UNL     1      32.198 -11.845 -21.688  0.00  0.00    -0.209 NA
ATOM      3  N   UNL     1      32.484  -9.618 -22.622  0.00  0.00    -0.279 N 
ATOM      4  N   UNL     1      31.746 -11.225 -19.579  0.00  0.00    -0.241 NA
ATOM      5  N   UNL     1      32.188  -7.836 -21.040  0.00  0.00    -0.301 NA
ATOM      6  N   UNL     1      32.706  -7.438 -23.282  0.00  0.00    -0.292 N 
ATOM      7  C   UNL     1      32.235 -10.494 -21.645  0.00  0.00    +0.191 C 
ATOM      8  C   UNL     1      31.896 -12.246 -20.406  0.00  0.00    +0.205 C 
ATOM      9  C   UNL     1      31.959 -10.125 -20.361  0.00  0.00    +0.183 C 
ATOM     10  C   UNL     1      32.447  -8.274 -22.259  0.00  0.00    +0.248 C 
ATOM     11  C   UNL     1      31.923  -8.724 -19.991  0.00  0.00    +0.224 C 
ATOM     12  H   UNL     1      32.681  -9.905 -23.544  0.00  0.00    +0.152 HD
ATOM     13  H   UNL     1      32.891  -7.824 -24.168  0.00  0.00    +0.151 HD
ENDROOT
BRANCH   2  15
ATOM     14  O   UNL     1      32.475 -14.135 -22.499  0.00  0.00    -0.338 OA
ATOM     15  C   UNL     1      32.433 -12.746 -22.874  0.00  0.00    +0.182 C 
ATOM     16  C   UNL     1      34.045 -13.784 -24.251  0.00  0.00    +0.144 C 
ATOM     17  C   UNL     1      33.746 -12.456 -23.595  0.00  0.00    +0.079 C 
ATOM     18  C   UNL     1      33.528 -14.793 -23.232  0.00  0.00    +0.174 C 
BRANCH  16  19
ATOM     19  O   UNL     1      33.278 -13.879 -25.449  0.00  0.00    -0.382 OA
ATOM     20  H   UNL     1      32.597 -13.188 -25.452  0.00  0.00    +0.210 HD
ENDBRANCH  16  19
BRANCH  18  21
ATOM     21  C   UNL     1      34.597 -15.221 -22.235  0.00  0.00    +0.186 C 
BRANCH  21  22
ATOM     22  O   UNL     1      35.386 -16.240 -22.826  0.00  0.00    -0.271 OA
BRANCH  22  23
ATOM     23  P   UNL     1      35.347 -17.722 -22.176  0.00  0.00    +0.473 P 
ATOM     24  O   UNL     1      34.308 -18.639 -22.752  0.00  0.00    -0.227 OA
BRANCH  23  25
ATOM     25  O   UNL     1      36.873 -18.230 -22.342  0.00  0.00    -0.303 OA
ATOM     26  H   UNL     1      37.391 -17.551 -22.804  0.00  0.00    +0.222 HD
ENDBRANCH  23  25
BRANCH  23  27
ATOM     27  O   UNL     1      35.219 -17.441 -20.589  0.00  0.00    -0.303 OA
ATOM     28  H   UNL     1      34.527 -16.779 -20.433  0.00  0.00    +0.222 HD
ENDBRANCH  23  27
ENDBRANCH  22  23
ENDBRANCH  21  22
ENDBRANCH  18  21
ENDBRANCH   2  15
BRANCH   6  29
ATOM     29  C   UNL     1      32.722  -6.000 -23.138  0.00  0.00    +0.117 C 
BRANCH  29  30
ATOM     30  C   UNL     1      33.386  -5.356 -24.316  0.00  0.00    -0.003 C 
ATOM     31  C   UNL     1      32.821  -4.255 -24.980  0.00  0.00    -0.002 C 
ATOM     32  C   UNL     1      33.498  -3.693 -26.088  0.00  0.00    -0.000 C 
ATOM     33  C   UNL     1      34.603  -5.893 -24.737  0.00  0.00    -0.003 C 
ATOM     34  C   UNL     1      31.598  -3.701 -24.570  0.00  0.00    -0.000 C 
ATOM     35  C   UNL     1      34.721  -4.247 -26.499  0.00  0.00    -0.000 C 
ATOM     36  C   UNL     1      35.269  -5.340 -25.826  0.00  0.00    -0.000 C 
ATOM     37  C   UNL     1      32.932  -2.592 -26.753  0.00  0.00    -0.000 C 
ATOM     38  C   UNL     1      31.050  -2.608 -25.241  0.00  0.00    -0.000 C 
ATOM     39  C   UNL     1      31.717  -2.055 -26.330  0.00  0.00    -0.000 C 
ENDBRANCH  29  30
ENDBRANCH   6  29
TORSDOF 9
ENDMDL
MODEL 7
REMARK VINA RESULT:      -9.9     11.298     14.424
REMARK  Name = 46937134
REMARK  9 active torsions:
REMARK  status: ('A' for Active; 'I' for Inactive)
REMARK    1  A    between atoms: N_2  and  C_15
REMARK    2  A    between atoms: N_6  and  C_29
REMARK    3  A    between atoms: C_16  and  O_19
REMARK    4  A    between atoms: C_18  and  C_21
REMARK    5  A    between atoms: C_21  and  O_22
REMARK    6  A    between atoms: O_22  and  P_23
REMARK    7  A    between atoms: P_23  and  O_25
REMARK    8  A    between atoms: P_23  and  O_27
REMARK    9  A    between atoms: C_29  and  C_30
REMARK                            x       y       z     vdW  Elec       q    Type
REMARK                         _______ _______ _______ _____ _____    ______ ____
ROOT
ATOM      1  O   UNL     1      31.550 -10.330 -18.145  0.00  0.00    -0.208 OA
ATOM      2  N   UNL     1      32.323 -12.718 -21.904  0.00  0.00    -0.209 NA
ATOM      3  N   UNL     1      32.126 -10.308 -22.164  0.00  0.00    -0.279 N 
ATOM      4  N   UNL     1      32.011 -12.803 -19.683  0.00  0.00    -0.241 NA
ATOM      5  N   UNL     1      31.715  -9.123 -20.117  0.00  0.00    -0.301 NA
ATOM      6  N   UNL     1      31.906  -8.030 -22.171  0.00  0.00    -0.292 N 
ATOM      7  C   UNL     1      32.138 -11.450 -21.471  0.00  0.00    +0.191 C 
ATOM      8  C   UNL     1      32.237 -13.507 -20.779  0.00  0.00    +0.205 C 
ATOM      9  C   UNL     1      31.949 -11.510 -20.121  0.00  0.00    +0.183 C 
ATOM     10  C   UNL     1      31.906  -9.149 -21.423  0.00  0.00    +0.248 C 
ATOM     11  C   UNL     1      31.721 -10.300 -19.358  0.00  0.00    +0.224 C 
ATOM     12  H   UNL     1      32.265 -10.287 -23.139  0.00  0.00    +0.152 HD
ATOM     13  H   UNL     1      32.053  -8.114 -23.141  0.00  0.00    +0.151 HD
ENDROOT
BRANCH   2  15
ATOM     14  O   UNL     1      32.753 -14.622 -23.378  0.00  0.00    -0.338 OA
ATOM     15  C   UNL     1      32.571 -13.194 -23.313  0.00  0.00    +0.182 C 
ATOM     16  C   UNL     1      34.192 -13.609 -24.978  0.00  0.00    +0.144 C 
ATOM     17  C   UNL     1      33.815 -12.574 -23.943  0.00  0.00    +0.079 C 
ATOM     18  C   UNL     1      33.819 -14.922 -24.301  0.00  0.00    +0.174 C 
BRANCH  16  19
ATOM     19  O   UNL     1      33.374 -13.416 -26.130  0.00  0.00    -0.382 OA
ATOM     20  H   UNL     1      32.439 -13.440 -25.870  0.00  0.00    +0.210 HD
ENDBRANCH  16  19
BRANCH  18  21
ATOM     21  C   UNL     1      34.971 -15.523 -23.507  0.00  0.00    +0.186 C 
BRANCH  21  22
ATOM     22  O   UNL     1      34.991 -16.923 -23.726  0.00  0.00    -0.271 OA
BRANCH  22  23
ATOM     23  P   UNL     1      35.162 -17.903 -22.448  0.00  0.00    +0.473 P 
ATOM     24  O   UNL     1      34.250 -19.093 -22.436  0.00  0.00    -0.227 OA
BRANCH  23  25
ATOM     25  O   UNL     1      36.741 -18.252 -22.469  0.00  0.00    -0.303 OA
ATOM     26  H   UNL     1      37.248 -17.445 -22.653  0.00  0.00    +0.222 HD
ENDBRANCH  23  25
BRANCH  23  27
ATOM     27  O   UNL     1      35.018 -16.908 -21.181  0.00  0.00    -0.303 OA
ATOM     28  H   UNL     1      35.152 -15.992 -21.472  0.00  0.00    +0.222 HD
ENDBRANCH  23  27
ENDBRANCH  22  23
ENDBRANCH  21  22
ENDBRANCH  18  21
ENDBRANCH   2  15
BRANCH   6  29
ATOM     29  C   UNL     1      31.698  -6.713 -21.616  0.00  0.00    +0.117 C 
BRANCH  29  30
ATOM     30  C   UNL     1      31.765  -5.669 -22.687  0.00  0.00    -0.003 C 
ATOM     31  C   UNL     1      32.823  -5.613 -23.608  0.00  0.00    -0.002 C 
ATOM     32  C   UNL     1      32.829  -4.600 -24.597  0.00  0.00    -0.000 C 
ATOM     33  C   UNL     1      30.725  -4.740 -22.742  0.00  0.00    -0.003 C 
ATOM     34  C   UNL     1      33.878  -6.539 -23.569  0.00  0.00    -0.000 C 
ATOM     35  C   UNL     1      31.775  -3.673 -24.636  0.00  0.00    -0.000 C 
ATOM     36  C   UNL     1      30.730  -3.745 -23.714  0.00  0.00    -0.000 C 
ATOM     37  C   UNL     1      33.889  -4.544 -25.517  0.00  0.00    -0.000 C 
ATOM     38  C   UNL     1      34.923  -6.469 -24.490  0.00  0.00    -0.000 C 
ATOM     39  C   UNL     1      34.927  -5.473 -25.463  0.00  0.00    -0.000 C 
ENDBRANCH  29  30
ENDBRANCH   6  29
TORSDOF 9
ENDMDL
MODEL 8
REMARK VINA RESULT:      -9.7      7.187     11.001
REMARK  Name = 46937134
REMARK  9 active torsions:
REMARK  status: ('A' for Active; 'I' for Inactive)
REMARK    1  A    between atoms: N_2  and  C_15
REMARK    2  A    between atoms: N_6  and  C_29
REMARK    3  A    between atoms: C_16  and  O_19
REMARK    4  A    between atoms: C_18  and  C_21
REMARK    5  A    between atoms: C_21  and  O_22
REMARK    6  A    between atoms: O_22  and  P_23
REMARK    7  A    between atoms: P_23  and  O_25
REMARK    8  A    between atoms: P_23  and  O_27
REMARK    9  A    between atoms: C_29  and  C_30
REMARK                            x       y       z     vdW  Elec       q    Type
REMARK                         _______ _______ _______ _____ _____    ______ ____
ROOT
ATOM      1  O   UNL     1      33.679 -19.830 -25.017  0.00  0.00    -0.208 OA
ATOM      2  N   UNL     1      34.048 -15.381 -24.312  0.00  0.00    -0.209 NA
ATOM      3  N   UNL     1      35.150 -16.836 -22.704  0.00  0.00    -0.279 N 
ATOM      4  N   UNL     1      33.205 -16.986 -25.634  0.00  0.00    -0.241 NA
ATOM      5  N   UNL     1      34.899 -19.180 -23.157  0.00  0.00    -0.301 NA
ATOM      6  N   UNL     1      36.104 -18.389 -21.320  0.00  0.00    -0.292 N 
ATOM      7  C   UNL     1      34.421 -16.573 -23.792  0.00  0.00    +0.191 C 
ATOM      8  C   UNL     1      33.309 -15.684 -25.433  0.00  0.00    +0.205 C 
ATOM      9  C   UNL     1      33.905 -17.543 -24.600  0.00  0.00    +0.183 C 
ATOM     10  C   UNL     1      35.364 -18.184 -22.426  0.00  0.00    +0.248 C 
ATOM     11  C   UNL     1      34.132 -18.943 -24.304  0.00  0.00    +0.224 C 
ATOM     12  H   UNL     1      35.514 -16.120 -22.133  0.00  0.00    +0.152 HD
ATOM     13  H   UNL     1      36.422 -17.606 -20.815  0.00  0.00    +0.151 HD
ENDROOT
BRANCH   2  15
ATOM     14  O   UNL     1      34.274 -13.929 -22.357  0.00  0.00    -0.338 OA
ATOM     15  C   UNL     1      34.361 -14.000 -23.793  0.00  0.00    +0.182 C 
ATOM     16  C   UNL     1      33.495 -11.871 -23.258  0.00  0.00    +0.144 C 
ATOM     17  C   UNL     1      33.418 -12.930 -24.333  0.00  0.00    +0.079 C 
ATOM     18  C   UNL     1      33.641 -12.689 -21.981  0.00  0.00    +0.174 C 
BRANCH  16  19
ATOM     19  O   UNL     1      34.674 -11.098 -23.468  0.00  0.00    -0.382 OA
ATOM     20  H   UNL     1      34.656 -10.717 -24.361  0.00  0.00    +0.210 HD
ENDBRANCH  16  19
BRANCH  18  21
ATOM     21  C   UNL     1      32.301 -13.022 -21.339  0.00  0.00    +0.186 C 
BRANCH  21  22
ATOM     22  O   UNL     1      32.107 -12.168 -20.225  0.00  0.00    -0.271 OA
BRANCH  22  23
ATOM     23  P   UNL     1      31.317 -10.773 -20.450  0.00  0.00    +0.473 P 
ATOM     24  O   UNL     1      32.112  -9.697 -21.130  0.00  0.00    -0.227 OA
BRANCH  23  25
ATOM     25  O   UNL     1      29.982 -11.236 -21.236  0.00  0.00    -0.303 OA
ATOM     26  H   UNL     1      30.095 -12.145 -21.555  0.00  0.00    +0.222 HD
ENDBRANCH  23  25
BRANCH  23  27
ATOM     27  O   UNL     1      30.771 -10.400 -18.974  0.00  0.00    -0.303 OA
ATOM     28  H   UNL     1      30.923  -9.458 -18.801  0.00  0.00    +0.222 HD
ENDBRANCH  23  27
ENDBRANCH  22  23
ENDBRANCH  21  22
ENDBRANCH  18  21
ENDBRANCH   2  15
BRANCH   6  29
ATOM     29  C   UNL     1      36.452 -19.707 -20.840  0.00  0.00    +0.117 C 
BRANCH  29  30
ATOM     30  C   UNL     1      35.283 -20.351 -20.163  0.00  0.00    -0.003 C 
ATOM     31  C   UNL     1      35.432 -21.148 -19.016  0.00  0.00    -0.002 C 
ATOM     32  C   UNL     1      34.287 -21.730 -18.422  0.00  0.00    -0.000 C 
ATOM     33  C   UNL     1      34.021 -20.130 -20.715  0.00  0.00    -0.003 C 
ATOM     34  C   UNL     1      36.694 -21.381 -18.445  0.00  0.00    -0.000 C 
ATOM     35  C   UNL     1      33.025 -21.498 -18.994  0.00  0.00    -0.000 C 
ATOM     36  C   UNL     1      32.895 -20.702 -20.132  0.00  0.00    -0.000 C 
ATOM     37  C   UNL     1      34.436 -22.528 -17.276  0.00  0.00    -0.000 C 
ATOM     38  C   UNL     1      36.825 -22.176 -17.306  0.00  0.00    -0.000 C 
ATOM     39  C   UNL     1      35.698 -22.747 -16.723  0.00  0.00    -0.000 C 
ENDBRANCH  29  30
ENDBRANCH   6  29
TORSDOF 9
ENDMDL
MODEL 9
REMARK VINA RESULT:      -9.6      2.761      5.958
REMARK  Name = 46937134
REMARK  9 active torsions:
REMARK  status: ('A' for Active; 'I' for Inactive)
REMARK    1  A    between atoms: N_2  and  C_15
REMARK    2  A    between atoms: N_6  and  C_29
REMARK    3  A    between atoms: C_16  and  O_19
REMARK    4  A    between atoms: C_18  and  C_21
REMARK    5  A    between atoms: C_21  and  O_22
REMARK    6  A    between atoms: O_22  and  P_23
REMARK    7  A    between atoms: P_23  and  O_25
REMARK    8  A    between atoms: P_23  and  O_27
REMARK    9  A    between atoms: C_29  and  C_30
REMARK                            x       y       z     vdW  Elec       q    Type
REMARK                         _______ _______ _______ _____ _____    ______ ____
ROOT
ATOM      1  O   UNL     1      29.603 -22.358 -16.706  0.00  0.00    -0.208 OA
ATOM      2  N   UNL     1      32.691 -24.611 -14.295  0.00  0.00    -0.209 NA
ATOM      3  N   UNL     1      33.474 -23.520 -16.323  0.00  0.00    -0.279 N 
ATOM      4  N   UNL     1      30.536 -24.004 -14.445  0.00  0.00    -0.241 NA
ATOM      5  N   UNL     1      31.765 -22.350 -17.539  0.00  0.00    -0.301 NA
ATOM      6  N   UNL     1      33.984 -22.420 -18.264  0.00  0.00    -0.292 N 
ATOM      7  C   UNL     1      32.555 -23.871 -15.419  0.00  0.00    +0.191 C 
ATOM      8  C   UNL     1      31.435 -24.665 -13.735  0.00  0.00    +0.205 C 
ATOM      9  C   UNL     1      31.244 -23.506 -15.503  0.00  0.00    +0.183 C 
ATOM     10  C   UNL     1      33.016 -22.743 -17.385  0.00  0.00    +0.248 C 
ATOM     11  C   UNL     1      30.776 -22.698 -16.611  0.00  0.00    +0.224 C 
ATOM     12  H   UNL     1      34.417 -23.794 -16.244  0.00  0.00    +0.152 HD
ATOM     13  H   UNL     1      34.898 -22.744 -18.096  0.00  0.00    +0.151 HD
ENDROOT
BRANCH   2  15
ATOM     14  O   UNL     1      34.604 -24.414 -12.784  0.00  0.00    -0.338 OA
ATOM     15  C   UNL     1      33.942 -25.253 -13.749  0.00  0.00    +0.182 C 
ATOM     16  C   UNL     1      36.263 -25.568 -14.038  0.00  0.00    +0.144 C 
ATOM     17  C   UNL     1      34.975 -25.564 -14.828  0.00  0.00    +0.079 C 
ATOM     18  C   UNL     1      36.029 -24.481 -12.996  0.00  0.00    +0.174 C 
BRANCH  16  19
ATOM     19  O   UNL     1      36.393 -26.831 -13.391  0.00  0.00    -0.382 OA
ATOM     20  H   UNL     1      36.227 -27.541 -14.031  0.00  0.00    +0.210 HD
ENDBRANCH  16  19
BRANCH  18  21
ATOM     21  C   UNL     1      36.499 -23.109 -13.461  0.00  0.00    +0.186 C 
BRANCH  21  22
ATOM     22  O   UNL     1      37.732 -22.814 -12.827  0.00  0.00    -0.271 OA
BRANCH  22  23
ATOM     23  P   UNL     1      38.001 -23.409 -11.346  0.00  0.00    +0.473 P 
ATOM     24  O   UNL     1      37.738 -24.879 -11.196  0.00  0.00    -0.227 OA
BRANCH  23  25
ATOM     25  O   UNL     1      39.523 -22.954 -11.044  0.00  0.00    -0.303 OA
ATOM     26  H   UNL     1      40.132 -23.485 -11.582  0.00  0.00    +0.222 HD
ENDBRANCH  23  25
BRANCH  23  27
ATOM     27  O   UNL     1      37.127 -22.448 -10.382  0.00  0.00    -0.303 OA
ATOM     28  H   UNL     1      37.044 -21.572 -10.790  0.00  0.00    +0.222 HD
ENDBRANCH  23  27
ENDBRANCH  22  23
ENDBRANCH  21  22
ENDBRANCH  18  21
ENDBRANCH   2  15
BRANCH   6  29
ATOM     29  C   UNL     1      33.740 -21.620 -19.443  0.00  0.00    +0.117 C 
BRANCH  29  30
ATOM     30  C   UNL     1      34.957 -20.828 -19.807  0.00  0.00    -0.003 C 
ATOM     31  C   UNL     1      34.979 -19.963 -20.913  0.00  0.00    -0.002 C 
ATOM     32  C   UNL     1      36.162 -19.242 -21.205  0.00  0.00    -0.000 C 
ATOM     33  C   UNL     1      36.085 -20.978 -18.999  0.00  0.00    -0.003 C 
ATOM     34  C   UNL     1      33.855 -19.799 -21.737  0.00  0.00    -0.000 C 
ATOM     35  C   UNL     1      37.287 -19.408 -20.382  0.00  0.00    -0.000 C 
ATOM     36  C   UNL     1      37.247 -20.270 -19.286  0.00  0.00    -0.000 C 
ATOM     37  C   UNL     1      36.185 -18.378 -22.313  0.00  0.00    -0.000 C 
ATOM     38  C   UNL     1      33.894 -18.936 -22.833  0.00  0.00    -0.000 C 
ATOM     39  C   UNL     1      35.057 -18.227 -23.119  0.00  0.00    -0.000 C 
ENDBRANCH  29  30
ENDBRANCH   6  29
TORSDOF 9
ENDMDL
