MODEL 1
REMARK VINA RESULT:     -12.1      0.000      0.000
REMARK  Name = 216239
REMARK  6 active torsions:
REMARK  status: ('A' for Active; 'I' for Inactive)
REMARK    1  A    between atoms: C_1  and  N_9
REMARK    2  A    between atoms: C_2  and  O_24
REMARK    3  A    between atoms: N_8  and  C_14
REMARK    4  A    between atoms: C_15  and  C_23
REMARK    5  A    between atoms: O_24  and  C_26
REMARK    6  A    between atoms: C_28  and  C_33
REMARK                            x       y       z     vdW  Elec       q    Type
REMARK                         _______ _______ _______ _____ _____    ______ ____
ROOT
ATOM      1  C   UNL     1      34.897 -21.997 -18.309  0.00  0.00    +0.052 C 
ATOM      2  C   UNL     1      34.110 -23.517 -16.131  0.00  0.00    +0.145 C 
ATOM      3  C   UNL     1      35.694 -22.022 -17.178  0.00  0.00    +0.018 C 
ATOM      4  C   UNL     1      33.715 -22.715 -18.377  0.00  0.00    +0.018 C 
ATOM      5  C   UNL     1      35.297 -22.788 -16.081  0.00  0.00    +0.039 C 
ATOM      6  C   UNL     1      33.317 -23.480 -17.279  0.00  0.00    +0.039 C 
ENDROOT
BRANCH   1   9
ATOM      7  O   UNL     1      33.312 -20.161 -20.052  0.00  0.00    -0.252 OA
ATOM      8  N   UNL     1      35.303 -19.778 -21.226  0.00  0.00    -0.268 N 
ATOM      9  N   UNL     1      35.300 -21.221 -19.421  0.00  0.00    -0.268 N 
ATOM     10  C   UNL     1      34.510 -20.368 -20.211  0.00  0.00    +0.308 C 
ATOM     11  H   UNL     1      36.252 -20.040 -21.233  0.00  0.00    +0.156 HD
ATOM     12  H   UNL     1      36.249 -21.285 -19.673  0.00  0.00    +0.156 HD
BRANCH   8  14
ATOM     13 CL   UNL     1      33.670 -15.994 -25.463  0.00  0.00    -0.082 Cl
ATOM     14  C   UNL     1      34.917 -18.877 -22.219  0.00  0.00    +0.052 C 
ATOM     15  C   UNL     1      34.465 -16.613 -22.930  0.00  0.00    +0.083 C 
ATOM     16  C   UNL     1      34.849 -17.514 -21.937  0.00  0.00    +0.019 C 
ATOM     17  C   UNL     1      34.601 -19.342 -23.496  0.00  0.00    +0.016 C 
ATOM     18  C   UNL     1      34.148 -17.077 -24.207  0.00  0.00    +0.062 C 
ATOM     19  C   UNL     1      34.216 -18.442 -24.489  0.00  0.00    +0.013 C 
BRANCH  15  23
ATOM     20  F   UNL     1      35.224 -14.386 -23.359  0.00  0.00    -0.166 F 
ATOM     21  F   UNL     1      33.162 -14.618 -22.727  0.00  0.00    -0.166 F 
ATOM     22  F   UNL     1      34.774 -14.913 -21.298  0.00  0.00    -0.166 F 
ATOM     23  C   UNL     1      34.406 -15.159 -22.588  0.00  0.00    +0.419 C 
ENDBRANCH  15  23
ENDBRANCH   8  14
ENDBRANCH   1   9
BRANCH   2  24
ATOM     24  O   UNL     1      33.722 -24.262 -15.061  0.00  0.00    -0.453 OA
BRANCH  24  26
ATOM     25  N   UNL     1      36.619 -25.261 -12.254  0.00  0.00    -0.239 NA
ATOM     26  C   UNL     1      34.687 -24.596 -14.126  0.00  0.00    +0.149 C 
ATOM     27  C   UNL     1      35.827 -25.252 -14.538  0.00  0.00    +0.061 C 
ATOM     28  C   UNL     1      36.763 -25.562 -13.565  0.00  0.00    +0.137 C 
ATOM     29  C   UNL     1      34.487 -24.263 -12.803  0.00  0.00    +0.058 C 
ATOM     30  C   UNL     1      35.482 -24.619 -11.906  0.00  0.00    +0.102 C 
BRANCH  28  33
ATOM     31  O   UNL     1      37.951 -27.351 -14.506  0.00  0.00    -0.268 OA
ATOM     32  N   UNL     1      39.195 -25.617 -13.600  0.00  0.00    -0.298 N 
ATOM     33  C   UNL     1      37.990 -26.253 -13.922  0.00  0.00    +0.264 C 
ATOM     34  C   UNL     1      40.496 -26.166 -13.911  0.00  0.00    +0.111 C 
ATOM     35  H   UNL     1      39.155 -24.749 -13.137  0.00  0.00    +0.150 HD
ENDBRANCH  28  33
ENDBRANCH  24  26
ENDBRANCH   2  24
TORSDOF 6
ENDMDL
MODEL 2
REMARK VINA RESULT:     -12.0      5.847      9.789
REMARK  Name = 216239
REMARK  6 active torsions:
REMARK  status: ('A' for Active; 'I' for Inactive)
REMARK    1  A    between atoms: C_1  and  N_9
REMARK    2  A    between atoms: C_2  and  O_24
REMARK    3  A    between atoms: N_8  and  C_14
REMARK    4  A    between atoms: C_15  and  C_23
REMARK    5  A    between atoms: O_24  and  C_26
REMARK    6  A    between atoms: C_28  and  C_33
REMARK                            x       y       z     vdW  Elec       q    Type
REMARK                         _______ _______ _______ _____ _____    ______ ____
ROOT
ATOM      1  C   UNL     1      33.542 -13.969 -22.573  0.00  0.00    +0.052 C 
ATOM      2  C   UNL     1      34.702 -16.433 -23.076  0.00  0.00    +0.145 C 
ATOM      3  C   UNL     1      34.236 -14.610 -21.561  0.00  0.00    +0.018 C 
ATOM      4  C   UNL     1      33.416 -14.532 -23.831  0.00  0.00    +0.018 C 
ATOM      5  C   UNL     1      34.820 -15.851 -21.814  0.00  0.00    +0.039 C 
ATOM      6  C   UNL     1      33.999 -15.774 -24.085  0.00  0.00    +0.039 C 
ENDROOT
BRANCH   1   9
ATOM      7  O   UNL     1      34.054 -11.307 -23.826  0.00  0.00    -0.252 OA
ATOM      8  N   UNL     1      32.412 -10.464 -22.384  0.00  0.00    -0.268 N 
ATOM      9  N   UNL     1      32.950 -12.710 -22.315  0.00  0.00    -0.268 N 
ATOM     10  C   UNL     1      33.228 -11.481 -22.937  0.00  0.00    +0.308 C 
ATOM     11  H   UNL     1      31.793 -10.752 -21.673  0.00  0.00    +0.156 HD
ATOM     12  H   UNL     1      32.259 -12.692 -21.615  0.00  0.00    +0.156 HD
BRANCH   8  14
ATOM     13 CL   UNL     1      32.178  -4.721 -23.759  0.00  0.00    -0.082 Cl
ATOM     14  C   UNL     1      32.367  -9.109 -22.711  0.00  0.00    +0.052 C 
ATOM     15  C   UNL     1      33.457  -7.117 -23.537  0.00  0.00    +0.083 C 
ATOM     16  C   UNL     1      33.503  -8.472 -23.210  0.00  0.00    +0.019 C 
ATOM     17  C   UNL     1      31.183  -8.390 -22.538  0.00  0.00    +0.016 C 
ATOM     18  C   UNL     1      32.274  -6.398 -23.364  0.00  0.00    +0.062 C 
ATOM     19  C   UNL     1      31.137  -7.035 -22.865  0.00  0.00    +0.013 C 
BRANCH  15  23
ATOM     20  F   UNL     1      35.185  -7.081 -25.190  0.00  0.00    -0.166 F 
ATOM     21  F   UNL     1      34.521  -5.165 -24.419  0.00  0.00    -0.166 F 
ATOM     22  F   UNL     1      35.718  -6.481 -23.169  0.00  0.00    -0.166 F 
ATOM     23  C   UNL     1      34.695  -6.473 -24.071  0.00  0.00    +0.419 C 
ENDBRANCH  15  23
ENDBRANCH   8  14
ENDBRANCH   1   9
BRANCH   2  24
ATOM     24  O   UNL     1      35.270 -17.645 -23.323  0.00  0.00    -0.453 OA
BRANCH  24  26
ATOM     25  N   UNL     1      36.031 -20.121 -20.073  0.00  0.00    -0.239 NA
ATOM     26  C   UNL     1      35.523 -18.469 -22.239  0.00  0.00    +0.149 C 
ATOM     27  C   UNL     1      34.484 -19.179 -21.675  0.00  0.00    +0.061 C 
ATOM     28  C   UNL     1      34.790 -19.990 -20.594  0.00  0.00    +0.137 C 
ATOM     29  C   UNL     1      36.809 -18.564 -21.750  0.00  0.00    +0.058 C 
ATOM     30  C   UNL     1      37.010 -19.402 -20.665  0.00  0.00    +0.102 C 
BRANCH  28  33
ATOM     31  O   UNL     1      32.561 -20.658 -20.301  0.00  0.00    -0.268 OA
ATOM     32  N   UNL     1      34.150 -21.652 -18.935  0.00  0.00    -0.298 N 
ATOM     33  C   UNL     1      33.748 -20.769 -19.946  0.00  0.00    +0.264 C 
ATOM     34  C   UNL     1      33.236 -22.509 -18.214  0.00  0.00    +0.111 C 
ATOM     35  H   UNL     1      35.106 -21.690 -18.703  0.00  0.00    +0.150 HD
ENDBRANCH  28  33
ENDBRANCH  24  26
ENDBRANCH   2  24
TORSDOF 6
ENDMDL
MODEL 3
REMARK VINA RESULT:     -11.8      2.903      4.546
REMARK  Name = 216239
REMARK  6 active torsions:
REMARK  status: ('A' for Active; 'I' for Inactive)
REMARK    1  A    between atoms: C_1  and  N_9
REMARK    2  A    between atoms: C_2  and  O_24
REMARK    3  A    between atoms: N_8  and  C_14
REMARK    4  A    between atoms: C_15  and  C_23
REMARK    5  A    between atoms: O_24  and  C_26
REMARK    6  A    between atoms: C_28  and  C_33
REMARK                            x       y       z     vdW  Elec       q    Type
REMARK                         _______ _______ _______ _____ _____    ______ ____
ROOT
ATOM      1  C   UNL     1      35.187 -21.511 -18.953  0.00  0.00    +0.052 C 
ATOM      2  C   UNL     1      34.550 -23.235 -16.880  0.00  0.00    +0.145 C 
ATOM      3  C   UNL     1      36.060 -21.641 -17.887  0.00  0.00    +0.018 C 
ATOM      4  C   UNL     1      34.001 -22.225 -19.006  0.00  0.00    +0.018 C 
ATOM      5  C   UNL     1      35.740 -22.509 -16.843  0.00  0.00    +0.039 C 
ATOM      6  C   UNL     1      33.680 -23.093 -17.962  0.00  0.00    +0.039 C 
ENDROOT
BRANCH   1   9
ATOM      7  O   UNL     1      33.429 -19.750 -20.604  0.00  0.00    -0.252 OA
ATOM      8  N   UNL     1      35.376 -19.089 -21.726  0.00  0.00    -0.268 N 
ATOM      9  N   UNL     1      35.513 -20.631 -20.011  0.00  0.00    -0.268 N 
ATOM     10  C   UNL     1      34.643 -19.820 -20.759  0.00  0.00    +0.308 C 
ATOM     11  H   UNL     1      36.348 -19.247 -21.736  0.00  0.00    +0.156 HD
ATOM     12  H   UNL     1      36.465 -20.579 -20.253  0.00  0.00    +0.156 HD
BRANCH   8  14
ATOM     13 CL   UNL     1      33.379 -15.249 -25.751  0.00  0.00    -0.082 Cl
ATOM     14  C   UNL     1      34.905 -18.175 -22.669  0.00  0.00    +0.052 C 
ATOM     15  C   UNL     1      34.292 -15.917 -23.271  0.00  0.00    +0.083 C 
ATOM     16  C   UNL     1      34.763 -16.830 -22.328  0.00  0.00    +0.019 C 
ATOM     17  C   UNL     1      34.575 -18.608 -23.954  0.00  0.00    +0.016 C 
ATOM     18  C   UNL     1      33.962 -16.349 -24.556  0.00  0.00    +0.062 C 
ATOM     19  C   UNL     1      34.105 -17.694 -24.897  0.00  0.00    +0.013 C 
BRANCH  15  23
ATOM     20  F   UNL     1      32.876 -14.020 -22.931  0.00  0.00    -0.166 F 
ATOM     21  F   UNL     1      34.565 -14.239 -21.588  0.00  0.00    -0.166 F 
ATOM     22  F   UNL     1      34.892 -13.648 -23.655  0.00  0.00    -0.166 F 
ATOM     23  C   UNL     1      34.157 -14.484 -22.867  0.00  0.00    +0.419 C 
ENDBRANCH  15  23
ENDBRANCH   8  14
ENDBRANCH   1   9
BRANCH   2  24
ATOM     24  O   UNL     1      34.236 -24.081 -15.861  0.00  0.00    -0.453 OA
BRANCH  24  26
ATOM     25  N   UNL     1      30.796 -23.276 -13.671  0.00  0.00    -0.239 NA
ATOM     26  C   UNL     1      33.090 -23.812 -15.132  0.00  0.00    +0.149 C 
ATOM     27  C   UNL     1      31.939 -23.444 -15.796  0.00  0.00    +0.061 C 
ATOM     28  C   UNL     1      30.819 -23.188 -15.021  0.00  0.00    +0.137 C 
ATOM     29  C   UNL     1      33.126 -23.918 -13.758  0.00  0.00    +0.058 C 
ATOM     30  C   UNL     1      31.953 -23.639 -13.074  0.00  0.00    +0.102 C 
BRANCH  28  33
ATOM     31  O   UNL     1      29.537 -22.471 -16.849  0.00  0.00    -0.268 OA
ATOM     32  N   UNL     1      28.419 -22.825 -14.849  0.00  0.00    -0.298 N 
ATOM     33  C   UNL     1      29.568 -22.795 -15.648  0.00  0.00    +0.264 C 
ATOM     34  C   UNL     1      27.100 -22.486 -15.333  0.00  0.00    +0.111 C 
ATOM     35  H   UNL     1      28.514 -23.091 -13.905  0.00  0.00    +0.150 HD
ENDBRANCH  28  33
ENDBRANCH  24  26
ENDBRANCH   2  24
TORSDOF 6
ENDMDL
MODEL 4
REMARK VINA RESULT:     -11.7      4.597      7.960
REMARK  Name = 216239
REMARK  6 active torsions:
REMARK  status: ('A' for Active; 'I' for Inactive)
REMARK    1  A    between atoms: C_1  and  N_9
REMARK    2  A    between atoms: C_2  and  O_24
REMARK    3  A    between atoms: N_8  and  C_14
REMARK    4  A    between atoms: C_15  and  C_23
REMARK    5  A    between atoms: O_24  and  C_26
REMARK    6  A    between atoms: C_28  and  C_33
REMARK                            x       y       z     vdW  Elec       q    Type
REMARK                         _______ _______ _______ _____ _____    ______ ____
ROOT
ATOM      1  C   UNL     1      34.428 -15.975 -23.572  0.00  0.00    +0.052 C 
ATOM      2  C   UNL     1      34.968 -18.558 -22.730  0.00  0.00    +0.145 C 
ATOM      3  C   UNL     1      35.022 -16.175 -22.338  0.00  0.00    +0.018 C 
ATOM      4  C   UNL     1      34.098 -17.039 -24.396  0.00  0.00    +0.018 C 
ATOM      5  C   UNL     1      35.294 -17.476 -21.914  0.00  0.00    +0.039 C 
ATOM      6  C   UNL     1      34.369 -18.340 -23.971  0.00  0.00    +0.039 C 
ENDROOT
BRANCH   1   9
ATOM      7  O   UNL     1      34.597 -13.391 -22.085  0.00  0.00    -0.252 OA
ATOM      8  N   UNL     1      33.882 -12.362 -24.065  0.00  0.00    -0.268 N 
ATOM      9  N   UNL     1      34.153 -14.656 -24.002  0.00  0.00    -0.268 N 
ATOM     10  C   UNL     1      34.249 -13.468 -23.258  0.00  0.00    +0.308 C 
ATOM     11  H   UNL     1      33.623 -12.576 -24.991  0.00  0.00    +0.156 HD
ATOM     12  H   UNL     1      33.858 -14.558 -24.935  0.00  0.00    +0.156 HD
BRANCH   8  14
ATOM     13 CL   UNL     1      33.735  -6.630 -22.632  0.00  0.00    -0.082 Cl
ATOM     14  C   UNL     1      33.838 -11.010 -23.722  0.00  0.00    +0.052 C 
ATOM     15  C   UNL     1      32.726  -9.162 -22.634  0.00  0.00    +0.083 C 
ATOM     16  C   UNL     1      32.769 -10.513 -22.977  0.00  0.00    +0.019 C 
ATOM     17  C   UNL     1      34.864 -10.156 -24.126  0.00  0.00    +0.016 C 
ATOM     18  C   UNL     1      33.752  -8.307 -23.038  0.00  0.00    +0.062 C 
ATOM     19  C   UNL     1      34.821  -8.805 -23.784  0.00  0.00    +0.013 C 
BRANCH  15  23
ATOM     20  F   UNL     1      31.925  -8.103 -20.645  0.00  0.00    -0.166 F 
ATOM     21  F   UNL     1      30.825  -7.718 -22.475  0.00  0.00    -0.166 F 
ATOM     22  F   UNL     1      30.689  -9.666 -21.516  0.00  0.00    -0.166 F 
ATOM     23  C   UNL     1      31.565  -8.669 -21.833  0.00  0.00    +0.419 C 
ENDBRANCH  15  23
ENDBRANCH   8  14
ENDBRANCH   1   9
BRANCH   2  24
ATOM     24  O   UNL     1      35.232 -19.827 -22.316  0.00  0.00    -0.453 OA
BRANCH  24  26
ATOM     25  N   UNL     1      33.179 -21.234 -18.987  0.00  0.00    -0.239 NA
ATOM     26  C   UNL     1      34.548 -20.297 -21.207  0.00  0.00    +0.149 C 
ATOM     27  C   UNL     1      35.247 -20.931 -20.203  0.00  0.00    +0.061 C 
ATOM     28  C   UNL     1      34.517 -21.381 -19.114  0.00  0.00    +0.137 C 
ATOM     29  C   UNL     1      33.183 -20.118 -21.132  0.00  0.00    +0.058 C 
ATOM     30  C   UNL     1      32.545 -20.606 -20.002  0.00  0.00    +0.102 C 
BRANCH  28  33
ATOM     31  O   UNL     1      34.661 -23.050 -17.474  0.00  0.00    -0.268 OA
ATOM     32  N   UNL     1      36.431 -21.560 -17.622  0.00  0.00    -0.298 N 
ATOM     33  C   UNL     1      35.183 -22.059 -18.015  0.00  0.00    +0.264 C 
ATOM     34  C   UNL     1      37.226 -22.140 -16.562  0.00  0.00    +0.111 C 
ATOM     35  H   UNL     1      36.787 -20.772 -18.092  0.00  0.00    +0.150 HD
ENDBRANCH  28  33
ENDBRANCH  24  26
ENDBRANCH   2  24
TORSDOF 6
ENDMDL
MODEL 5
REMARK VINA RESULT:     -11.5      5.758     11.656
REMARK  Name = 216239
REMARK  6 active torsions:
REMARK  status: ('A' for Active; 'I' for Inactive)
REMARK    1  A    between atoms: C_1  and  N_9
REMARK    2  A    between atoms: C_2  and  O_24
REMARK    3  A    between atoms: N_8  and  C_14
REMARK    4  A    between atoms: C_15  and  C_23
REMARK    5  A    between atoms: O_24  and  C_26
REMARK    6  A    between atoms: C_28  and  C_33
REMARK                            x       y       z     vdW  Elec       q    Type
REMARK                         _______ _______ _______ _____ _____    ______ ____
ROOT
ATOM      1  C   UNL     1      36.380 -19.847 -20.085  0.00  0.00    +0.052 C 
ATOM      2  C   UNL     1      35.545 -18.894 -22.549  0.00  0.00    +0.145 C 
ATOM      3  C   UNL     1      37.256 -19.102 -20.856  0.00  0.00    +0.018 C 
ATOM      4  C   UNL     1      35.095 -20.126 -20.519  0.00  0.00    +0.018 C 
ATOM      5  C   UNL     1      36.835 -18.622 -22.096  0.00  0.00    +0.039 C 
ATOM      6  C   UNL     1      34.674 -19.648 -21.761  0.00  0.00    +0.039 C 
ENDROOT
BRANCH   1   9
ATOM      7  O   UNL     1      35.512 -22.262 -18.558  0.00  0.00    -0.252 OA
ATOM      8  N   UNL     1      37.049 -21.608 -16.916  0.00  0.00    -0.268 N 
ATOM      9  N   UNL     1      36.807 -20.333 -18.827  0.00  0.00    -0.268 N 
ATOM     10  C   UNL     1      36.365 -21.481 -18.150  0.00  0.00    +0.308 C 
ATOM     11  H   UNL     1      37.709 -20.904 -16.719  0.00  0.00    +0.156 HD
ATOM     12  H   UNL     1      37.499 -19.803 -18.371  0.00  0.00    +0.156 HD
BRANCH   8  14
ATOM     13 CL   UNL     1      36.433 -25.788 -12.783  0.00  0.00    -0.082 Cl
ATOM     14  C   UNL     1      36.914 -22.598 -15.942  0.00  0.00    +0.052 C 
ATOM     15  C   UNL     1      37.884 -24.341 -14.580  0.00  0.00    +0.083 C 
ATOM     16  C   UNL     1      38.020 -23.352 -15.554  0.00  0.00    +0.019 C 
ATOM     17  C   UNL     1      35.669 -22.832 -15.356  0.00  0.00    +0.016 C 
ATOM     18  C   UNL     1      36.640 -24.576 -13.993  0.00  0.00    +0.062 C 
ATOM     19  C   UNL     1      35.533 -23.821 -14.382  0.00  0.00    +0.013 C 
BRANCH  15  23
ATOM     20  F   UNL     1      39.434 -24.986 -12.876  0.00  0.00    -0.166 F 
ATOM     21  F   UNL     1      38.958 -26.470 -14.385  0.00  0.00    -0.166 F 
ATOM     22  F   UNL     1      40.202 -24.762 -14.898  0.00  0.00    -0.166 F 
ATOM     23  C   UNL     1      39.095 -25.126 -14.190  0.00  0.00    +0.419 C 
ENDBRANCH  15  23
ENDBRANCH   8  14
ENDBRANCH   1   9
BRANCH   2  24
ATOM     24  O   UNL     1      35.135 -18.428 -23.760  0.00  0.00    -0.453 OA
BRANCH  24  26
ATOM     25  N   UNL     1      33.722 -14.524 -23.949  0.00  0.00    -0.239 NA
ATOM     26  C   UNL     1      34.664 -17.127 -23.822  0.00  0.00    +0.149 C 
ATOM     27  C   UNL     1      34.461 -16.426 -22.653  0.00  0.00    +0.061 C 
ATOM     28  C   UNL     1      33.990 -15.129 -22.769  0.00  0.00    +0.137 C 
ATOM     29  C   UNL     1      34.409 -16.562 -25.054  0.00  0.00    +0.058 C 
ATOM     30  C   UNL     1      33.939 -15.258 -25.063  0.00  0.00    +0.102 C 
BRANCH  28  33
ATOM     31  O   UNL     1      34.569 -14.326 -20.644  0.00  0.00    -0.268 OA
ATOM     32  N   UNL     1      32.586 -13.550 -21.561  0.00  0.00    -0.298 N 
ATOM     33  C   UNL     1      33.751 -14.326 -21.582  0.00  0.00    +0.264 C 
ATOM     34  C   UNL     1      32.222 -12.684 -20.463  0.00  0.00    +0.111 C 
ATOM     35  H   UNL     1      31.981 -13.597 -22.337  0.00  0.00    +0.150 HD
ENDBRANCH  28  33
ENDBRANCH  24  26
ENDBRANCH   2  24
TORSDOF 6
ENDMDL
MODEL 6
REMARK VINA RESULT:     -11.5      5.393     11.151
REMARK  Name = 216239
REMARK  6 active torsions:
REMARK  status: ('A' for Active; 'I' for Inactive)
REMARK    1  A    between atoms: C_1  and  N_9
REMARK    2  A    between atoms: C_2  and  O_24
REMARK    3  A    between atoms: N_8  and  C_14
REMARK    4  A    between atoms: C_15  and  C_23
REMARK    5  A    between atoms: O_24  and  C_26
REMARK    6  A    between atoms: C_28  and  C_33
REMARK                            x       y       z     vdW  Elec       q    Type
REMARK                         _______ _______ _______ _____ _____    ______ ____
ROOT
ATOM      1  C   UNL     1      35.286 -20.423 -20.238  0.00  0.00    +0.052 C 
ATOM      2  C   UNL     1      35.517 -18.795 -22.467  0.00  0.00    +0.145 C 
ATOM      3  C   UNL     1      36.495 -19.801 -20.500  0.00  0.00    +0.018 C 
ATOM      4  C   UNL     1      34.190 -20.249 -21.065  0.00  0.00    +0.018 C 
ATOM      5  C   UNL     1      36.611 -18.981 -21.622  0.00  0.00    +0.039 C 
ATOM      6  C   UNL     1      34.306 -19.429 -22.189  0.00  0.00    +0.039 C 
ENDROOT
BRANCH   1   9
ATOM      7  O   UNL     1      32.858 -21.311 -18.743  0.00  0.00    -0.252 OA
ATOM      8  N   UNL     1      34.319 -22.483 -17.337  0.00  0.00    -0.268 N 
ATOM      9  N   UNL     1      35.169 -21.254 -19.099  0.00  0.00    -0.268 N 
ATOM     10  C   UNL     1      33.996 -21.644 -18.431  0.00  0.00    +0.308 C 
ATOM     11  H   UNL     1      35.279 -22.664 -17.206  0.00  0.00    +0.156 HD
ATOM     12  H   UNL     1      36.012 -21.603 -18.729  0.00  0.00    +0.156 HD
BRANCH   8  14
ATOM     13 CL   UNL     1      30.716 -25.058 -13.423  0.00  0.00    -0.082 Cl
ATOM     14  C   UNL     1      33.461 -23.086 -16.417  0.00  0.00    +0.052 C 
ATOM     15  C   UNL     1      31.224 -23.523 -15.617  0.00  0.00    +0.083 C 
ATOM     16  C   UNL     1      32.082 -22.919 -16.536  0.00  0.00    +0.019 C 
ATOM     17  C   UNL     1      33.983 -23.857 -15.378  0.00  0.00    +0.016 C 
ATOM     18  C   UNL     1      31.745 -24.294 -14.578  0.00  0.00    +0.062 C 
ATOM     19  C   UNL     1      33.125 -24.461 -14.460  0.00  0.00    +0.013 C 
BRANCH  15  23
ATOM     20  F   UNL     1      29.059 -24.485 -15.948  0.00  0.00    -0.166 F 
ATOM     21  F   UNL     1      29.166 -22.704 -14.714  0.00  0.00    -0.166 F 
ATOM     22  F   UNL     1      29.448 -22.552 -16.865  0.00  0.00    -0.166 F 
ATOM     23  C   UNL     1      29.751 -23.321 -15.781  0.00  0.00    +0.419 C 
ENDBRANCH  15  23
ENDBRANCH   8  14
ENDBRANCH   1   9
BRANCH   2  24
ATOM     24  O   UNL     1      35.631 -17.996 -23.563  0.00  0.00    -0.453 OA
BRANCH  24  26
ATOM     25  N   UNL     1      33.259 -14.587 -23.727  0.00  0.00    -0.239 NA
ATOM     26  C   UNL     1      34.840 -16.861 -23.616  0.00  0.00    +0.149 C 
ATOM     27  C   UNL     1      34.672 -16.102 -22.478  0.00  0.00    +0.061 C 
ATOM     28  C   UNL     1      33.872 -14.975 -22.585  0.00  0.00    +0.137 C 
ATOM     29  C   UNL     1      34.240 -16.514 -24.809  0.00  0.00    +0.058 C 
ATOM     30  C   UNL     1      33.459 -15.369 -24.811  0.00  0.00    +0.102 C 
BRANCH  28  33
ATOM     31  O   UNL     1      34.505 -14.036 -20.532  0.00  0.00    -0.268 OA
ATOM     32  N   UNL     1      32.447 -13.405 -21.392  0.00  0.00    -0.298 N 
ATOM     33  C   UNL     1      33.647 -14.124 -21.429  0.00  0.00    +0.264 C 
ATOM     34  C   UNL     1      32.089 -12.501 -20.322  0.00  0.00    +0.111 C 
ATOM     35  H   UNL     1      31.811 -13.521 -22.135  0.00  0.00    +0.150 HD
ENDBRANCH  28  33
ENDBRANCH  24  26
ENDBRANCH   2  24
TORSDOF 6
ENDMDL
MODEL 7
REMARK VINA RESULT:     -11.4      5.593      9.778
REMARK  Name = 216239
REMARK  6 active torsions:
REMARK  status: ('A' for Active; 'I' for Inactive)
REMARK    1  A    between atoms: C_1  and  N_9
REMARK    2  A    between atoms: C_2  and  O_24
REMARK    3  A    between atoms: N_8  and  C_14
REMARK    4  A    between atoms: C_15  and  C_23
REMARK    5  A    between atoms: O_24  and  C_26
REMARK    6  A    between atoms: C_28  and  C_33
REMARK                            x       y       z     vdW  Elec       q    Type
REMARK                         _______ _______ _______ _____ _____    ______ ____
ROOT
ATOM      1  C   UNL     1      34.003 -14.050 -24.013  0.00  0.00    +0.052 C 
ATOM      2  C   UNL     1      34.352 -16.796 -23.906  0.00  0.00    +0.145 C 
ATOM      3  C   UNL     1      33.550 -14.831 -25.062  0.00  0.00    +0.018 C 
ATOM      4  C   UNL     1      34.628 -14.611 -22.911  0.00  0.00    +0.018 C 
ATOM      5  C   UNL     1      33.726 -16.214 -25.008  0.00  0.00    +0.039 C 
ATOM      6  C   UNL     1      34.805 -15.994 -22.858  0.00  0.00    +0.039 C 
ENDROOT
BRANCH   1   9
ATOM      7  O   UNL     1      32.532 -12.222 -22.166  0.00  0.00    -0.252 OA
ATOM      8  N   UNL     1      33.186 -10.480 -23.588  0.00  0.00    -0.268 N 
ATOM      9  N   UNL     1      33.825 -12.648 -24.067  0.00  0.00    -0.268 N 
ATOM     10  C   UNL     1      33.120 -11.831 -23.168  0.00  0.00    +0.308 C 
ATOM     11  H   UNL     1      33.694 -10.314 -24.416  0.00  0.00    +0.156 HD
ATOM     12  H   UNL     1      34.246 -12.188 -24.828  0.00  0.00    +0.156 HD
BRANCH   8  14
ATOM     13 CL   UNL     1      30.804  -5.685 -21.085  0.00  0.00    -0.082 Cl
ATOM     14  C   UNL     1      32.626  -9.352 -22.988  0.00  0.00    +0.052 C 
ATOM     15  C   UNL     1      32.144  -8.057 -21.007  0.00  0.00    +0.083 C 
ATOM     16  C   UNL     1      32.703  -9.186 -21.606  0.00  0.00    +0.019 C 
ATOM     17  C   UNL     1      31.989  -8.390 -23.772  0.00  0.00    +0.016 C 
ATOM     18  C   UNL     1      31.506  -7.095 -21.790  0.00  0.00    +0.062 C 
ATOM     19  C   UNL     1      31.429  -7.262 -23.173  0.00  0.00    +0.013 C 
BRANCH  15  23
ATOM     20  F   UNL     1      33.008  -6.850 -19.131  0.00  0.00    -0.166 F 
ATOM     21  F   UNL     1      31.044  -7.744 -18.905  0.00  0.00    -0.166 F 
ATOM     22  F   UNL     1      32.815  -9.007 -18.933  0.00  0.00    -0.166 F 
ATOM     23  C   UNL     1      32.249  -7.915 -19.522  0.00  0.00    +0.419 C 
ENDBRANCH  15  23
ENDBRANCH   8  14
ENDBRANCH   1   9
BRANCH   2  24
ATOM     24  O   UNL     1      34.525 -18.145 -23.855  0.00  0.00    -0.453 OA
BRANCH  24  26
ATOM     25  N   UNL     1      35.807 -19.794 -20.262  0.00  0.00    -0.239 NA
ATOM     26  C   UNL     1      34.951 -18.694 -22.657  0.00  0.00    +0.149 C 
ATOM     27  C   UNL     1      34.069 -19.440 -21.906  0.00  0.00    +0.061 C 
ATOM     28  C   UNL     1      34.545 -19.968 -20.717  0.00  0.00    +0.137 C 
ATOM     29  C   UNL     1      36.250 -18.482 -22.244  0.00  0.00    +0.058 C 
ATOM     30  C   UNL     1      36.628 -19.053 -21.038  0.00  0.00    +0.102 C 
BRANCH  28  33
ATOM     31  O   UNL     1      32.439 -20.640 -19.936  0.00  0.00    -0.268 OA
ATOM     32  N   UNL     1      34.291 -21.684 -19.010  0.00  0.00    -0.298 N 
ATOM     33  C   UNL     1      33.675 -20.767 -19.870  0.00  0.00    +0.264 C 
ATOM     34  C   UNL     1      33.561 -22.564 -18.125  0.00  0.00    +0.111 C 
ATOM     35  H   UNL     1      35.274 -21.733 -19.007  0.00  0.00    +0.150 HD
ENDBRANCH  28  33
ENDBRANCH  24  26
ENDBRANCH   2  24
TORSDOF 6
ENDMDL
MODEL 8
REMARK VINA RESULT:     -11.4      5.845     11.857
REMARK  Name = 216239
REMARK  6 active torsions:
REMARK  status: ('A' for Active; 'I' for Inactive)
REMARK    1  A    between atoms: C_1  and  N_9
REMARK    2  A    between atoms: C_2  and  O_24
REMARK    3  A    between atoms: N_8  and  C_14
REMARK    4  A    between atoms: C_15  and  C_23
REMARK    5  A    between atoms: O_24  and  C_26
REMARK    6  A    between atoms: C_28  and  C_33
REMARK                            x       y       z     vdW  Elec       q    Type
REMARK                         _______ _______ _______ _____ _____    ______ ____
ROOT
ATOM      1  C   UNL     1      34.993 -21.091 -19.472  0.00  0.00    +0.052 C 
ATOM      2  C   UNL     1      35.676 -19.365 -21.527  0.00  0.00    +0.145 C 
ATOM      3  C   UNL     1      36.323 -20.764 -19.667  0.00  0.00    +0.018 C 
ATOM      4  C   UNL     1      33.995 -20.573 -20.282  0.00  0.00    +0.018 C 
ATOM      5  C   UNL     1      36.668 -19.895 -20.702  0.00  0.00    +0.039 C 
ATOM      6  C   UNL     1      34.340 -19.704 -21.318  0.00  0.00    +0.039 C 
ENDROOT
BRANCH   1   9
ATOM      7  O   UNL     1      36.335 -21.594 -16.852  0.00  0.00    -0.252 OA
ATOM      8  N   UNL     1      34.632 -23.145 -16.431  0.00  0.00    -0.268 N 
ATOM      9  N   UNL     1      34.644 -21.973 -18.422  0.00  0.00    -0.268 N 
ATOM     10  C   UNL     1      35.313 -22.172 -17.203  0.00  0.00    +0.308 C 
ATOM     11  H   UNL     1      33.822 -23.527 -16.843  0.00  0.00    +0.156 HD
ATOM     12  H   UNL     1      33.833 -22.513 -18.562  0.00  0.00    +0.156 HD
BRANCH   8  14
ATOM     13 CL   UNL     1      35.962 -25.218 -11.059  0.00  0.00    -0.082 Cl
ATOM     14  C   UNL     1      34.956 -23.637 -15.167  0.00  0.00    +0.052 C 
ATOM     15  C   UNL     1      36.568 -24.588 -13.640  0.00  0.00    +0.083 C 
ATOM     16  C   UNL     1      36.245 -24.097 -14.905  0.00  0.00    +0.019 C 
ATOM     17  C   UNL     1      33.987 -23.669 -14.163  0.00  0.00    +0.016 C 
ATOM     18  C   UNL     1      35.600 -24.620 -12.636  0.00  0.00    +0.062 C 
ATOM     19  C   UNL     1      34.309 -24.159 -12.898  0.00  0.00    +0.013 C 
BRANCH  15  23
ATOM     20  F   UNL     1      38.792 -24.890 -14.467  0.00  0.00    -0.166 F 
ATOM     21  F   UNL     1      38.581 -24.446 -12.355  0.00  0.00    -0.166 F 
ATOM     22  F   UNL     1      38.012 -26.403 -13.115  0.00  0.00    -0.166 F 
ATOM     23  C   UNL     1      37.963 -25.070 -13.399  0.00  0.00    +0.419 C 
ENDBRANCH  15  23
ENDBRANCH   8  14
ENDBRANCH   1   9
BRANCH   2  24
ATOM     24  O   UNL     1      36.013 -18.518 -22.538  0.00  0.00    -0.453 OA
BRANCH  24  26
ATOM     25  N   UNL     1      33.993 -14.893 -22.769  0.00  0.00    -0.239 NA
ATOM     26  C   UNL     1      35.341 -17.310 -22.616  0.00  0.00    +0.149 C 
ATOM     27  C   UNL     1      34.874 -16.875 -23.838  0.00  0.00    +0.061 C 
ATOM     28  C   UNL     1      34.206 -15.661 -23.861  0.00  0.00    +0.137 C 
ATOM     29  C   UNL     1      35.153 -16.569 -21.468  0.00  0.00    +0.058 C 
ATOM     30  C   UNL     1      34.474 -15.367 -21.598  0.00  0.00    +0.102 C 
BRANCH  28  33
ATOM     31  O   UNL     1      33.426 -15.901 -26.060  0.00  0.00    -0.268 OA
ATOM     32  N   UNL     1      33.469 -13.755 -25.182  0.00  0.00    -0.298 N 
ATOM     33  C   UNL     1      33.684 -15.137 -25.112  0.00  0.00    +0.264 C 
ATOM     34  C   UNL     1      32.933 -13.088 -26.347  0.00  0.00    +0.111 C 
ATOM     35  H   UNL     1      33.695 -13.207 -24.395  0.00  0.00    +0.150 HD
ENDBRANCH  28  33
ENDBRANCH  24  26
ENDBRANCH   2  24
TORSDOF 6
ENDMDL
MODEL 9
REMARK VINA RESULT:     -11.3      4.737      7.864
REMARK  Name = 216239
REMARK  6 active torsions:
REMARK  status: ('A' for Active; 'I' for Inactive)
REMARK    1  A    between atoms: C_1  and  N_9
REMARK    2  A    between atoms: C_2  and  O_24
REMARK    3  A    between atoms: N_8  and  C_14
REMARK    4  A    between atoms: C_15  and  C_23
REMARK    5  A    between atoms: O_24  and  C_26
REMARK    6  A    between atoms: C_28  and  C_33
REMARK                            x       y       z     vdW  Elec       q    Type
REMARK                         _______ _______ _______ _____ _____    ______ ____
ROOT
ATOM      1  C   UNL     1      34.574 -15.903 -22.796  0.00  0.00    +0.052 C 
ATOM      2  C   UNL     1      35.265 -18.443 -21.933  0.00  0.00    +0.145 C 
ATOM      3  C   UNL     1      34.564 -16.951 -23.700  0.00  0.00    +0.018 C 
ATOM      4  C   UNL     1      34.923 -16.096 -21.469  0.00  0.00    +0.018 C 
ATOM      5  C   UNL     1      34.911 -18.231 -23.265  0.00  0.00    +0.039 C 
ATOM      6  C   UNL     1      35.271 -17.375 -21.035  0.00  0.00    +0.039 C 
ENDROOT
BRANCH   1   9
ATOM      7  O   UNL     1      33.778 -13.487 -21.232  0.00  0.00    -0.252 OA
ATOM      8  N   UNL     1      33.579 -12.387 -23.291  0.00  0.00    -0.268 N 
ATOM      9  N   UNL     1      34.222 -14.606 -23.237  0.00  0.00    -0.268 N 
ATOM     10  C   UNL     1      33.853 -13.498 -22.455  0.00  0.00    +0.308 C 
ATOM     11  H   UNL     1      33.680 -12.544 -24.258  0.00  0.00    +0.156 HD
ATOM     12  H   UNL     1      34.236 -14.461 -24.210  0.00  0.00    +0.156 HD
BRANCH   8  14
ATOM     13 CL   UNL     1      31.860  -6.952 -21.728  0.00  0.00    -0.082 Cl
ATOM     14  C   UNL     1      33.182 -11.100 -22.926  0.00  0.00    +0.052 C 
ATOM     15  C   UNL     1      33.507  -8.708 -23.007  0.00  0.00    +0.083 C 
ATOM     16  C   UNL     1      33.905  -9.994 -23.371  0.00  0.00    +0.019 C 
ATOM     17  C   UNL     1      32.059 -10.921 -22.117  0.00  0.00    +0.016 C 
ATOM     18  C   UNL     1      32.385  -8.528 -22.197  0.00  0.00    +0.062 C 
ATOM     19  C   UNL     1      31.661  -9.635 -21.753  0.00  0.00    +0.013 C 
BRANCH  15  23
ATOM     20  F   UNL     1      35.307  -7.907 -24.362  0.00  0.00    -0.166 F 
ATOM     21  F   UNL     1      33.565  -6.627 -24.185  0.00  0.00    -0.166 F 
ATOM     22  F   UNL     1      34.915  -6.861 -22.497  0.00  0.00    -0.166 F 
ATOM     23  C   UNL     1      34.307  -7.549 -23.506  0.00  0.00    +0.419 C 
ENDBRANCH  15  23
ENDBRANCH   8  14
ENDBRANCH   1   9
BRANCH   2  24
ATOM     24  O   UNL     1      35.606 -19.690 -21.510  0.00  0.00    -0.453 OA
BRANCH  24  26
ATOM     25  N   UNL     1      33.055 -21.581 -18.828  0.00  0.00    -0.239 NA
ATOM     26  C   UNL     1      34.756 -20.321 -20.617  0.00  0.00    +0.149 C 
ATOM     27  C   UNL     1      35.292 -21.058 -19.582  0.00  0.00    +0.061 C 
ATOM     28  C   UNL     1      34.400 -21.667 -18.715  0.00  0.00    +0.137 C 
ATOM     29  C   UNL     1      33.393 -20.197 -20.782  0.00  0.00    +0.058 C 
ATOM     30  C   UNL     1      32.585 -20.847 -19.861  0.00  0.00    +0.102 C 
BRANCH  28  33
ATOM     31  O   UNL     1      36.108 -22.547 -17.372  0.00  0.00    -0.268 OA
ATOM     32  N   UNL     1      33.928 -23.090 -16.798  0.00  0.00    -0.298 N 
ATOM     33  C   UNL     1      34.888 -22.461 -17.600  0.00  0.00    +0.264 C 
ATOM     34  C   UNL     1      34.255 -23.892 -15.641  0.00  0.00    +0.111 C 
ATOM     35  H   UNL     1      32.979 -22.981 -17.035  0.00  0.00    +0.150 HD
ENDBRANCH  28  33
ENDBRANCH  24  26
ENDBRANCH   2  24
TORSDOF 6
ENDMDL
