MODEL 1
REMARK VINA RESULT:     -12.0      0.000      0.000
REMARK  Name = 448841
REMARK  3 active torsions:
REMARK  status: ('A' for Active; 'I' for Inactive)
REMARK    1  A    between atoms: C_1  and  C_17
REMARK    2  A    between atoms: C_9  and  C_13
REMARK    3  A    between atoms: C_18  and  C_20
REMARK                            x       y       z     vdW  Elec       q    Type
REMARK                         _______ _______ _______ _____ _____    ______ ____
ROOT
ATOM      1  C   UNL     1      35.271 -20.939 -19.761  0.00  0.00    -0.022 C 
ATOM      2  C   UNL     1      36.215 -21.247 -18.782  0.00  0.00    -0.004 C 
ATOM      3  C   UNL     1      33.953 -21.364 -19.618  0.00  0.00    -0.004 C 
ATOM      4  C   UNL     1      35.853 -21.987 -17.645  0.00  0.00    -0.000 C 
ATOM      5  C   UNL     1      33.576 -22.101 -18.493  0.00  0.00    -0.000 C 
ATOM      6  C   UNL     1      34.513 -22.420 -17.498  0.00  0.00    +0.000 C 
ATOM      7  C   UNL     1      36.791 -22.307 -16.649  0.00  0.00    +0.000 C 
ATOM      8  C   UNL     1      34.151 -23.160 -16.361  0.00  0.00    +0.003 C 
ATOM      9  C   UNL     1      35.096 -23.468 -15.381  0.00  0.00    +0.031 C 
ATOM     10  C   UNL     1      36.413 -23.042 -15.526  0.00  0.00    +0.003 C 
ENDROOT
BRANCH   9  13
ATOM     11  N   UNL     1      33.848 -23.702 -13.247  0.00  0.00    -0.343 N 
ATOM     12  N   UNL     1      35.167 -25.461 -14.039  0.00  0.00    -0.285 NA
ATOM     13  C   UNL     1      34.704 -24.234 -14.209  0.00  0.00    +0.117 C 
ATOM     14  H   UNL     1      33.596 -24.238 -12.461  0.00  0.00    +0.144 HD
ATOM     15  H   UNL     1      33.495 -22.789 -13.354  0.00  0.00    +0.144 HD
ATOM     16  H   UNL     1      34.903 -25.981 -13.246  0.00  0.00    +0.188 HD
ENDBRANCH   9  13
BRANCH   1  17
ATOM     17  C   UNL     1      35.672 -20.154 -20.962  0.00  0.00    +0.027 C 
ATOM     18  C   UNL     1      35.336 -18.696 -21.030  0.00  0.00    +0.027 C 
ATOM     19  C   UNL     1      36.759 -19.131 -20.836  0.00  0.00    +0.009 C 
BRANCH  18  20
ATOM     20  C   UNL     1      34.926 -18.106 -22.328  0.00  0.00    -0.022 C 
ATOM     21  C   UNL     1      35.140 -16.748 -22.582  0.00  0.00    -0.004 C 
ATOM     22  C   UNL     1      34.321 -18.902 -23.305  0.00  0.00    -0.004 C 
ATOM     23  C   UNL     1      34.752 -16.191 -23.801  0.00  0.00    -0.000 C 
ATOM     24  C   UNL     1      33.933 -18.347 -24.524  0.00  0.00    -0.000 C 
ATOM     25  C   UNL     1      34.149 -16.991 -24.772  0.00  0.00    -0.000 C 
ENDBRANCH  18  20
ENDBRANCH   1  17
TORSDOF 3
ENDMDL
MODEL 2
REMARK VINA RESULT:     -11.5      0.825      1.880
REMARK  Name = 448841
REMARK  3 active torsions:
REMARK  status: ('A' for Active; 'I' for Inactive)
REMARK    1  A    between atoms: C_1  and  C_17
REMARK    2  A    between atoms: C_9  and  C_13
REMARK    3  A    between atoms: C_18  and  C_20
REMARK                            x       y       z     vdW  Elec       q    Type
REMARK                         _______ _______ _______ _____ _____    ______ ____
ROOT
ATOM      1  C   UNL     1      35.683 -20.948 -19.614  0.00  0.00    -0.022 C 
ATOM      2  C   UNL     1      34.389 -21.386 -19.334  0.00  0.00    -0.004 C 
ATOM      3  C   UNL     1      36.716 -21.207 -18.717  0.00  0.00    -0.004 C 
ATOM      4  C   UNL     1      34.111 -22.090 -18.151  0.00  0.00    -0.000 C 
ATOM      5  C   UNL     1      36.457 -21.905 -17.537  0.00  0.00    -0.000 C 
ATOM      6  C   UNL     1      35.161 -22.354 -17.239  0.00  0.00    +0.000 C 
ATOM      7  C   UNL     1      32.814 -22.538 -17.853  0.00  0.00    +0.000 C 
ATOM      8  C   UNL     1      34.883 -23.058 -16.057  0.00  0.00    +0.003 C 
ATOM      9  C   UNL     1      33.588 -23.497 -15.776  0.00  0.00    +0.031 C 
ATOM     10  C   UNL     1      32.556 -23.237 -16.673  0.00  0.00    +0.003 C 
ENDROOT
BRANCH   9  13
ATOM     11  N   UNL     1      34.323 -24.922 -13.881  0.00  0.00    -0.343 N 
ATOM     12  N   UNL     1      32.095 -24.237 -14.045  0.00  0.00    -0.285 NA
ATOM     13  C   UNL     1      33.317 -24.225 -14.548  0.00  0.00    +0.117 C 
ATOM     14  H   UNL     1      34.117 -25.409 -13.050  0.00  0.00    +0.144 HD
ATOM     15  H   UNL     1      35.239 -24.928 -14.241  0.00  0.00    +0.144 HD
ATOM     16  H   UNL     1      31.910 -24.730 -13.213  0.00  0.00    +0.188 HD
ENDBRANCH   9  13
BRANCH   1  17
ATOM     17  C   UNL     1      35.961 -20.201 -20.873  0.00  0.00    +0.027 C 
ATOM     18  C   UNL     1      35.532 -18.772 -20.986  0.00  0.00    +0.027 C 
ATOM     19  C   UNL     1      36.989 -19.113 -20.865  0.00  0.00    +0.009 C 
BRANCH  18  20
ATOM     20  C   UNL     1      35.007 -18.271 -22.281  0.00  0.00    -0.022 C 
ATOM     21  C   UNL     1      35.169 -16.928 -22.633  0.00  0.00    -0.004 C 
ATOM     22  C   UNL     1      34.347 -19.138 -23.155  0.00  0.00    -0.004 C 
ATOM     23  C   UNL     1      34.673 -16.456 -23.849  0.00  0.00    -0.000 C 
ATOM     24  C   UNL     1      33.851 -18.668 -24.371  0.00  0.00    -0.000 C 
ATOM     25  C   UNL     1      34.014 -17.326 -24.718  0.00  0.00    -0.000 C 
ENDBRANCH  18  20
ENDBRANCH   1  17
TORSDOF 3
ENDMDL
MODEL 3
REMARK VINA RESULT:     -11.4      0.998      1.697
REMARK  Name = 448841
REMARK  3 active torsions:
REMARK  status: ('A' for Active; 'I' for Inactive)
REMARK    1  A    between atoms: C_1  and  C_17
REMARK    2  A    between atoms: C_9  and  C_13
REMARK    3  A    between atoms: C_18  and  C_20
REMARK                            x       y       z     vdW  Elec       q    Type
REMARK                         _______ _______ _______ _____ _____    ______ ____
ROOT
ATOM      1  C   UNL     1      34.850 -20.162 -20.756  0.00  0.00    -0.022 C 
ATOM      2  C   UNL     1      35.889 -20.539 -19.905  0.00  0.00    -0.004 C 
ATOM      3  C   UNL     1      33.546 -20.566 -20.486  0.00  0.00    -0.004 C 
ATOM      4  C   UNL     1      35.636 -21.328 -18.771  0.00  0.00    -0.000 C 
ATOM      5  C   UNL     1      33.277 -21.351 -19.363  0.00  0.00    -0.000 C 
ATOM      6  C   UNL     1      34.310 -21.740 -18.495  0.00  0.00    +0.000 C 
ATOM      7  C   UNL     1      36.669 -21.719 -17.904  0.00  0.00    +0.000 C 
ATOM      8  C   UNL     1      34.056 -22.529 -17.362  0.00  0.00    +0.003 C 
ATOM      9  C   UNL     1      35.096 -22.907 -16.511  0.00  0.00    +0.031 C 
ATOM     10  C   UNL     1      36.399 -22.502 -16.782  0.00  0.00    +0.003 C 
ENDROOT
BRANCH   9  13
ATOM     11  N   UNL     1      34.006 -23.256 -14.307  0.00  0.00    -0.343 N 
ATOM     12  N   UNL     1      35.340 -24.933 -15.241  0.00  0.00    -0.285 NA
ATOM     13  C   UNL     1      34.817 -23.723 -15.341  0.00  0.00    +0.117 C 
ATOM     14  H   UNL     1      33.831 -23.826 -13.524  0.00  0.00    +0.144 HD
ATOM     15  H   UNL     1      33.610 -22.357 -14.360  0.00  0.00    +0.144 HD
ATOM     16  H   UNL     1      35.151 -25.487 -14.450  0.00  0.00    +0.188 HD
ENDBRANCH   9  13
BRANCH   1  17
ATOM     17  C   UNL     1      35.136 -19.325 -21.954  0.00  0.00    +0.027 C 
ATOM     18  C   UNL     1      35.338 -17.851 -21.787  0.00  0.00    +0.027 C 
ATOM     19  C   UNL     1      36.502 -18.736 -22.125  0.00  0.00    +0.009 C 
BRANCH  18  20
ATOM     20  C   UNL     1      34.806 -16.924 -22.817  0.00  0.00    -0.022 C 
ATOM     21  C   UNL     1      34.420 -17.411 -24.070  0.00  0.00    -0.004 C 
ATOM     22  C   UNL     1      34.689 -15.559 -22.543  0.00  0.00    -0.004 C 
ATOM     23  C   UNL     1      33.922 -16.540 -25.039  0.00  0.00    -0.000 C 
ATOM     24  C   UNL     1      34.192 -14.687 -23.511  0.00  0.00    -0.000 C 
ATOM     25  C   UNL     1      33.809 -15.178 -24.760  0.00  0.00    -0.000 C 
ENDBRANCH  18  20
ENDBRANCH   1  17
TORSDOF 3
ENDMDL
MODEL 4
REMARK VINA RESULT:     -11.4      1.073      2.230
REMARK  Name = 448841
REMARK  3 active torsions:
REMARK  status: ('A' for Active; 'I' for Inactive)
REMARK    1  A    between atoms: C_1  and  C_17
REMARK    2  A    between atoms: C_9  and  C_13
REMARK    3  A    between atoms: C_18  and  C_20
REMARK                            x       y       z     vdW  Elec       q    Type
REMARK                         _______ _______ _______ _____ _____    ______ ____
ROOT
ATOM      1  C   UNL     1      34.683 -20.182 -20.789  0.00  0.00    -0.022 C 
ATOM      2  C   UNL     1      33.697 -20.842 -20.055  0.00  0.00    -0.004 C 
ATOM      3  C   UNL     1      36.010 -20.226 -20.370  0.00  0.00    -0.004 C 
ATOM      4  C   UNL     1      34.027 -21.556 -18.891  0.00  0.00    -0.000 C 
ATOM      5  C   UNL     1      36.355 -20.931 -19.216  0.00  0.00    -0.000 C 
ATOM      6  C   UNL     1      35.376 -21.601 -18.465  0.00  0.00    +0.000 C 
ATOM      7  C   UNL     1      33.048 -22.225 -18.139  0.00  0.00    +0.000 C 
ATOM      8  C   UNL     1      35.706 -22.314 -17.302  0.00  0.00    +0.003 C 
ATOM      9  C   UNL     1      34.721 -22.974 -16.567  0.00  0.00    +0.031 C 
ATOM     10  C   UNL     1      33.394 -22.930 -16.986  0.00  0.00    +0.003 C 
ENDROOT
BRANCH   9  13
ATOM     11  N   UNL     1      35.138 -23.081 -14.122  0.00  0.00    -0.343 N 
ATOM     12  N   UNL     1      35.360 -24.998 -15.440  0.00  0.00    -0.285 NA
ATOM     13  C   UNL     1      35.079 -23.709 -15.365  0.00  0.00    +0.117 C 
ATOM     14  H   UNL     1      35.383 -23.597 -13.320  0.00  0.00    +0.144 HD
ATOM     15  H   UNL     1      34.935 -22.121 -14.046  0.00  0.00    +0.144 HD
ATOM     16  H   UNL     1      35.603 -25.496 -14.626  0.00  0.00    +0.188 HD
ENDBRANCH   9  13
BRANCH   1  17
ATOM     17  C   UNL     1      34.316 -19.430 -22.020  0.00  0.00    +0.027 C 
ATOM     18  C   UNL     1      35.279 -18.432 -22.583  0.00  0.00    +0.027 C 
ATOM     19  C   UNL     1      35.035 -19.727 -23.300  0.00  0.00    +0.009 C 
BRANCH  18  20
ATOM     20  C   UNL     1      34.759 -17.169 -23.165  0.00  0.00    -0.022 C 
ATOM     21  C   UNL     1      34.794 -15.985 -22.422  0.00  0.00    -0.004 C 
ATOM     22  C   UNL     1      34.230 -17.155 -24.458  0.00  0.00    -0.004 C 
ATOM     23  C   UNL     1      34.304 -14.798 -22.967  0.00  0.00    -0.000 C 
ATOM     24  C   UNL     1      33.739 -15.969 -25.004  0.00  0.00    -0.000 C 
ATOM     25  C   UNL     1      33.776 -14.791 -24.258  0.00  0.00    -0.000 C 
ENDBRANCH  18  20
ENDBRANCH   1  17
TORSDOF 3
ENDMDL
MODEL 5
REMARK VINA RESULT:     -11.0      3.775      8.651
REMARK  Name = 448841
REMARK  3 active torsions:
REMARK  status: ('A' for Active; 'I' for Inactive)
REMARK    1  A    between atoms: C_1  and  C_17
REMARK    2  A    between atoms: C_9  and  C_13
REMARK    3  A    between atoms: C_18  and  C_20
REMARK                            x       y       z     vdW  Elec       q    Type
REMARK                         _______ _______ _______ _____ _____    ______ ____
ROOT
ATOM      1  C   UNL     1      34.301 -22.672 -17.454  0.00  0.00    -0.022 C 
ATOM      2  C   UNL     1      35.436 -22.099 -18.026  0.00  0.00    -0.004 C 
ATOM      3  C   UNL     1      33.041 -22.396 -17.978  0.00  0.00    -0.004 C 
ATOM      4  C   UNL     1      35.327 -21.240 -19.132  0.00  0.00    -0.000 C 
ATOM      5  C   UNL     1      32.914 -21.545 -19.077  0.00  0.00    -0.000 C 
ATOM      6  C   UNL     1      34.046 -20.959 -19.666  0.00  0.00    +0.000 C 
ATOM      7  C   UNL     1      36.459 -20.654 -19.720  0.00  0.00    +0.000 C 
ATOM      8  C   UNL     1      33.935 -20.101 -20.771  0.00  0.00    +0.003 C 
ATOM      9  C   UNL     1      35.072 -19.527 -21.344  0.00  0.00    +0.031 C 
ATOM     10  C   UNL     1      36.331 -19.804 -20.819  0.00  0.00    +0.003 C 
ENDROOT
BRANCH   9  13
ATOM     11  N   UNL     1      35.844 -17.602 -22.709  0.00  0.00    -0.343 N 
ATOM     12  N   UNL     1      33.947 -18.811 -23.343  0.00  0.00    -0.285 NA
ATOM     13  C   UNL     1      34.941 -18.641 -22.488  0.00  0.00    +0.117 C 
ATOM     14  H   UNL     1      35.736 -17.014 -23.491  0.00  0.00    +0.144 HD
ATOM     15  H   UNL     1      36.589 -17.457 -22.082  0.00  0.00    +0.144 HD
ATOM     16  H   UNL     1      33.857 -18.212 -24.119  0.00  0.00    +0.188 HD
ENDBRANCH   9  13
BRANCH   1  17
ATOM     17  C   UNL     1      34.435 -23.580 -16.280  0.00  0.00    +0.027 C 
ATOM     18  C   UNL     1      35.282 -23.157 -15.121  0.00  0.00    +0.027 C 
ATOM     19  C   UNL     1      33.788 -23.200 -14.985  0.00  0.00    +0.009 C 
BRANCH  18  20
ATOM     20  C   UNL     1      36.106 -24.170 -14.415  0.00  0.00    -0.022 C 
ATOM     21  C   UNL     1      36.956 -23.785 -13.374  0.00  0.00    -0.004 C 
ATOM     22  C   UNL     1      36.039 -25.516 -14.788  0.00  0.00    -0.004 C 
ATOM     23  C   UNL     1      37.733 -24.736 -12.713  0.00  0.00    -0.000 C 
ATOM     24  C   UNL     1      36.815 -26.468 -14.127  0.00  0.00    -0.000 C 
ATOM     25  C   UNL     1      37.662 -26.077 -13.090  0.00  0.00    -0.000 C 
ENDBRANCH  18  20
ENDBRANCH   1  17
TORSDOF 3
ENDMDL
MODEL 6
REMARK VINA RESULT:     -10.9      3.830      8.605
REMARK  Name = 448841
REMARK  3 active torsions:
REMARK  status: ('A' for Active; 'I' for Inactive)
REMARK    1  A    between atoms: C_1  and  C_17
REMARK    2  A    between atoms: C_9  and  C_13
REMARK    3  A    between atoms: C_18  and  C_20
REMARK                            x       y       z     vdW  Elec       q    Type
REMARK                         _______ _______ _______ _____ _____    ______ ____
ROOT
ATOM      1  C   UNL     1      34.585 -22.405 -17.797  0.00  0.00    -0.022 C 
ATOM      2  C   UNL     1      35.670 -21.757 -18.388  0.00  0.00    -0.004 C 
ATOM      3  C   UNL     1      33.301 -22.213 -18.299  0.00  0.00    -0.004 C 
ATOM      4  C   UNL     1      35.484 -20.907 -19.491  0.00  0.00    -0.000 C 
ATOM      5  C   UNL     1      33.098 -21.372 -19.395  0.00  0.00    -0.000 C 
ATOM      6  C   UNL     1      34.178 -20.712 -20.002  0.00  0.00    +0.000 C 
ATOM      7  C   UNL     1      36.564 -20.246 -20.097  0.00  0.00    +0.000 C 
ATOM      8  C   UNL     1      33.992 -19.863 -21.104  0.00  0.00    +0.003 C 
ATOM      9  C   UNL     1      35.077 -19.214 -21.695  0.00  0.00    +0.031 C 
ATOM     10  C   UNL     1      36.361 -19.407 -21.192  0.00  0.00    +0.003 C 
ENDROOT
BRANCH   9  13
ATOM     11  N   UNL     1      33.896 -18.618 -23.797  0.00  0.00    -0.343 N 
ATOM     12  N   UNL     1      35.610 -17.254 -22.980  0.00  0.00    -0.285 NA
ATOM     13  C   UNL     1      34.868 -18.339 -22.836  0.00  0.00    +0.117 C 
ATOM     14  H   UNL     1      33.772 -18.011 -24.562  0.00  0.00    +0.144 HD
ATOM     15  H   UNL     1      33.336 -19.422 -23.709  0.00  0.00    +0.144 HD
ATOM     16  H   UNL     1      35.468 -16.660 -23.752  0.00  0.00    +0.188 HD
ENDBRANCH   9  13
BRANCH   1  17
ATOM     17  C   UNL     1      34.800 -23.302 -16.628  0.00  0.00    +0.027 C 
ATOM     18  C   UNL     1      35.131 -22.703 -15.296  0.00  0.00    +0.027 C 
ATOM     19  C   UNL     1      33.785 -23.324 -15.528  0.00  0.00    +0.009 C 
BRANCH  18  20
ATOM     20  C   UNL     1      36.107 -23.389 -14.414  0.00  0.00    -0.022 C 
ATOM     21  C   UNL     1      37.222 -24.030 -14.962  0.00  0.00    -0.004 C 
ATOM     22  C   UNL     1      35.917 -23.400 -13.029  0.00  0.00    -0.004 C 
ATOM     23  C   UNL     1      38.139 -24.678 -14.133  0.00  0.00    -0.000 C 
ATOM     24  C   UNL     1      36.833 -24.048 -12.199  0.00  0.00    -0.000 C 
ATOM     25  C   UNL     1      37.943 -24.686 -12.752  0.00  0.00    -0.000 C 
ENDBRANCH  18  20
ENDBRANCH   1  17
TORSDOF 3
ENDMDL
MODEL 7
REMARK VINA RESULT:     -10.5      5.434      9.685
REMARK  Name = 448841
REMARK  3 active torsions:
REMARK  status: ('A' for Active; 'I' for Inactive)
REMARK    1  A    between atoms: C_1  and  C_17
REMARK    2  A    between atoms: C_9  and  C_13
REMARK    3  A    between atoms: C_18  and  C_20
REMARK                            x       y       z     vdW  Elec       q    Type
REMARK                         _______ _______ _______ _____ _____    ______ ____
ROOT
ATOM      1  C   UNL     1      34.973 -17.793 -22.067  0.00  0.00    -0.022 C 
ATOM      2  C   UNL     1      34.824 -16.409 -21.980  0.00  0.00    -0.004 C 
ATOM      3  C   UNL     1      34.652 -18.456 -23.248  0.00  0.00    -0.004 C 
ATOM      4  C   UNL     1      34.351 -15.668 -23.075  0.00  0.00    -0.000 C 
ATOM      5  C   UNL     1      34.180 -17.734 -24.347  0.00  0.00    -0.000 C 
ATOM      6  C   UNL     1      34.024 -16.341 -24.277  0.00  0.00    +0.000 C 
ATOM      7  C   UNL     1      34.195 -14.274 -23.004  0.00  0.00    +0.000 C 
ATOM      8  C   UNL     1      33.551 -15.601 -25.372  0.00  0.00    +0.003 C 
ATOM      9  C   UNL     1      33.403 -14.216 -25.285  0.00  0.00    +0.031 C 
ATOM     10  C   UNL     1      33.724 -13.555 -24.103  0.00  0.00    +0.003 C 
ENDROOT
BRANCH   9  13
ATOM     11  N   UNL     1      31.562 -13.470 -26.775  0.00  0.00    -0.343 N 
ATOM     12  N   UNL     1      33.754 -12.759 -27.163  0.00  0.00    -0.285 NA
ATOM     13  C   UNL     1      32.912 -13.464 -26.428  0.00  0.00    +0.117 C 
ATOM     14  H   UNL     1      31.252 -12.954 -27.553  0.00  0.00    +0.144 HD
ATOM     15  H   UNL     1      30.919 -13.991 -26.242  0.00  0.00    +0.144 HD
ATOM     16  H   UNL     1      33.423 -12.249 -27.937  0.00  0.00    +0.188 HD
ENDBRANCH   9  13
BRANCH   1  17
ATOM     17  C   UNL     1      35.476 -18.564 -20.895  0.00  0.00    +0.027 C 
ATOM     18  C   UNL     1      35.596 -20.052 -20.995  0.00  0.00    +0.027 C 
ATOM     19  C   UNL     1      36.830 -19.199 -20.965  0.00  0.00    +0.009 C 
BRANCH  18  20
ATOM     20  C   UNL     1      35.261 -20.889 -19.816  0.00  0.00    -0.022 C 
ATOM     21  C   UNL     1      36.264 -21.281 -18.924  0.00  0.00    -0.004 C 
ATOM     22  C   UNL     1      33.942 -21.292 -19.590  0.00  0.00    -0.004 C 
ATOM     23  C   UNL     1      35.950 -22.069 -17.816  0.00  0.00    -0.000 C 
ATOM     24  C   UNL     1      33.627 -22.080 -18.483  0.00  0.00    -0.000 C 
ATOM     25  C   UNL     1      34.632 -22.468 -17.596  0.00  0.00    -0.000 C 
ENDBRANCH  18  20
ENDBRANCH   1  17
TORSDOF 3
ENDMDL
MODEL 8
REMARK VINA RESULT:     -10.4      5.581      8.848
REMARK  Name = 448841
REMARK  3 active torsions:
REMARK  status: ('A' for Active; 'I' for Inactive)
REMARK    1  A    between atoms: C_1  and  C_17
REMARK    2  A    between atoms: C_9  and  C_13
REMARK    3  A    between atoms: C_18  and  C_20
REMARK                            x       y       z     vdW  Elec       q    Type
REMARK                         _______ _______ _______ _____ _____    ______ ____
ROOT
ATOM      1  C   UNL     1      33.828 -13.191 -22.755  0.00  0.00    -0.022 C 
ATOM      2  C   UNL     1      34.213 -14.295 -23.516  0.00  0.00    -0.004 C 
ATOM      3  C   UNL     1      33.801 -13.277 -21.366  0.00  0.00    -0.004 C 
ATOM      4  C   UNL     1      34.576 -15.502 -22.896  0.00  0.00    -0.000 C 
ATOM      5  C   UNL     1      34.159 -14.469 -20.733  0.00  0.00    -0.000 C 
ATOM      6  C   UNL     1      34.549 -15.590 -21.483  0.00  0.00    +0.000 C 
ATOM      7  C   UNL     1      34.965 -16.623 -23.646  0.00  0.00    +0.000 C 
ATOM      8  C   UNL     1      34.912 -16.796 -20.863  0.00  0.00    +0.003 C 
ATOM      9  C   UNL     1      35.297 -17.901 -21.624  0.00  0.00    +0.031 C 
ATOM     10  C   UNL     1      35.324 -17.814 -23.013  0.00  0.00    +0.003 C 
ENDROOT
BRANCH   9  13
ATOM     11  N   UNL     1      36.922 -19.301 -20.372  0.00  0.00    -0.343 N 
ATOM     12  N   UNL     1      34.817 -20.151 -20.929  0.00  0.00    -0.285 NA
ATOM     13  C   UNL     1      35.670 -19.142 -20.967  0.00  0.00    +0.117 C 
ATOM     14  H   UNL     1      37.154 -20.150 -19.933  0.00  0.00    +0.144 HD
ATOM     15  H   UNL     1      37.573 -18.563 -20.393  0.00  0.00    +0.144 HD
ATOM     16  H   UNL     1      35.068 -20.992 -20.483  0.00  0.00    +0.188 HD
ENDBRANCH   9  13
BRANCH   1  17
ATOM     17  C   UNL     1      33.446 -11.919 -23.429  0.00  0.00    +0.027 C 
ATOM     18  C   UNL     1      34.482 -10.859 -23.635  0.00  0.00    +0.027 C 
ATOM     19  C   UNL     1      33.961 -11.639 -24.807  0.00  0.00    +0.009 C 
BRANCH  18  20
ATOM     20  C   UNL     1      34.102  -9.433 -23.484  0.00  0.00    -0.022 C 
ATOM     21  C   UNL     1      35.028  -8.424 -23.767  0.00  0.00    -0.004 C 
ATOM     22  C   UNL     1      32.817  -9.088 -23.055  0.00  0.00    -0.004 C 
ATOM     23  C   UNL     1      34.672  -7.083 -23.622  0.00  0.00    -0.000 C 
ATOM     24  C   UNL     1      32.461  -7.747 -22.910  0.00  0.00    -0.000 C 
ATOM     25  C   UNL     1      33.389  -6.745 -23.193  0.00  0.00    -0.000 C 
ENDBRANCH  18  20
ENDBRANCH   1  17
TORSDOF 3
ENDMDL
MODEL 9
REMARK VINA RESULT:     -10.3      5.707      9.531
REMARK  Name = 448841
REMARK  3 active torsions:
REMARK  status: ('A' for Active; 'I' for Inactive)
REMARK    1  A    between atoms: C_1  and  C_17
REMARK    2  A    between atoms: C_9  and  C_13
REMARK    3  A    between atoms: C_18  and  C_20
REMARK                            x       y       z     vdW  Elec       q    Type
REMARK                         _______ _______ _______ _____ _____    ______ ____
ROOT
ATOM      1  C   UNL     1      34.891 -16.417 -21.797  0.00  0.00    -0.022 C 
ATOM      2  C   UNL     1      34.165 -15.722 -20.831  0.00  0.00    -0.004 C 
ATOM      3  C   UNL     1      35.067 -15.868 -23.065  0.00  0.00    -0.004 C 
ATOM      4  C   UNL     1      33.604 -14.467 -21.119  0.00  0.00    -0.000 C 
ATOM      5  C   UNL     1      34.517 -14.621 -23.368  0.00  0.00    -0.000 C 
ATOM      6  C   UNL     1      33.783 -13.908 -22.407  0.00  0.00    +0.000 C 
ATOM      7  C   UNL     1      32.870 -13.754 -20.158  0.00  0.00    +0.000 C 
ATOM      8  C   UNL     1      33.223 -12.654 -22.696  0.00  0.00    +0.003 C 
ATOM      9  C   UNL     1      32.496 -11.958 -21.729  0.00  0.00    +0.031 C 
ATOM     10  C   UNL     1      32.321 -12.508 -20.462  0.00  0.00    +0.003 C 
ENDROOT
BRANCH   9  13
ATOM     11  N   UNL     1      32.571  -9.769 -22.897  0.00  0.00    -0.343 N 
ATOM     12  N   UNL     1      30.766 -10.304 -21.512  0.00  0.00    -0.285 NA
ATOM     13  C   UNL     1      31.923 -10.660 -22.043  0.00  0.00    +0.117 C 
ATOM     14  H   UNL     1      32.164  -8.894 -23.096  0.00  0.00    +0.144 HD
ATOM     15  H   UNL     1      33.434 -10.014 -23.300  0.00  0.00    +0.144 HD
ATOM     16  H   UNL     1      30.377  -9.425 -21.724  0.00  0.00    +0.188 HD
ENDBRANCH   9  13
BRANCH   1  17
ATOM     17  C   UNL     1      35.478 -17.747 -21.475  0.00  0.00    +0.027 C 
ATOM     18  C   UNL     1      34.616 -18.967 -21.558  0.00  0.00    +0.027 C 
ATOM     19  C   UNL     1      35.693 -18.737 -22.577  0.00  0.00    +0.009 C 
BRANCH  18  20
ATOM     20  C   UNL     1      34.785 -20.046 -20.552  0.00  0.00    -0.022 C 
ATOM     21  C   UNL     1      36.063 -20.407 -20.115  0.00  0.00    -0.004 C 
ATOM     22  C   UNL     1      33.667 -20.708 -20.035  0.00  0.00    -0.004 C 
ATOM     23  C   UNL     1      36.222 -21.422 -19.171  0.00  0.00    -0.000 C 
ATOM     24  C   UNL     1      33.826 -21.723 -19.092  0.00  0.00    -0.000 C 
ATOM     25  C   UNL     1      35.104 -22.080 -18.660  0.00  0.00    -0.000 C 
ENDBRANCH  18  20
ENDBRANCH   1  17
TORSDOF 3
ENDMDL
