MODEL 1
REMARK VINA RESULT:     -11.7      0.000      0.000
REMARK  Name = 42642648
REMARK  5 active torsions:
REMARK  status: ('A' for Active; 'I' for Inactive)
REMARK    1  A    between atoms: N_1  and  C_22
REMARK    2  A    between atoms: C_4  and  N_15
REMARK    3  A    between atoms: C_25  and  O_28
REMARK    4  A    between atoms: O_28  and  C_29
REMARK    5  A    between atoms: C_29  and  C_32
REMARK                            x       y       z     vdW  Elec       q    Type
REMARK                         _______ _______ _______ _____ _____    ______ ____
ROOT
ATOM      1  N   UNL     1      33.508 -22.867 -17.809  0.00  0.00    -0.301 N 
ATOM      2  N   UNL     1      30.334 -23.131 -15.167  0.00  0.00    -0.248 NA
ATOM      3  N   UNL     1      31.266 -22.402 -17.265  0.00  0.00    -0.233 NA
ATOM      4  C   UNL     1      33.975 -24.852 -14.090  0.00  0.00    +0.048 C 
ATOM      5  C   UNL     1      32.622 -23.625 -15.682  0.00  0.00    +0.117 C 
ATOM      6  C   UNL     1      33.849 -24.207 -15.316  0.00  0.00    +0.001 C 
ATOM      7  C   UNL     1      31.511 -23.683 -14.826  0.00  0.00    +0.067 C 
ATOM      8  C   UNL     1      32.431 -22.966 -16.893  0.00  0.00    +0.115 C 
ATOM      9  C   UNL     1      32.881 -24.916 -13.234  0.00  0.00    +0.016 C 
ATOM     10  C   UNL     1      31.666 -24.334 -13.604  0.00  0.00    +0.016 C 
ATOM     11  C   UNL     1      30.275 -22.520 -16.367  0.00  0.00    +0.251 C 
ATOM     12  H   UNL     1      34.140 -23.620 -17.762  0.00  0.00    +0.153 HD
ENDROOT
BRANCH   4  15
ATOM     13  O   UNL     1      37.222 -25.749 -12.700  0.00  0.00    -0.448 OA
ATOM     14  N   UNL     1      36.074 -23.851 -12.153  0.00  0.00    -0.222 NA
ATOM     15  N   UNL     1      35.201 -25.437 -13.717  0.00  0.00    -0.269 N 
ATOM     16  C   UNL     1      37.287 -23.900 -11.320  0.00  0.00    +0.151 C 
ATOM     17  C   UNL     1      38.151 -24.959 -11.971  0.00  0.00    +0.233 C 
ATOM     18  C   UNL     1      36.122 -24.953 -12.838  0.00  0.00    +0.284 C 
ATOM     19  C   UNL     1      37.947 -22.536 -11.270  0.00  0.00    +0.030 C 
ATOM     20  H   UNL     1      35.419 -26.298 -14.144  0.00  0.00    +0.157 HD
ENDBRANCH   4  15
BRANCH   1  22
ATOM     21 CL   UNL     1      37.179 -20.175 -20.142  0.00  0.00    -0.079 Cl
ATOM     22  C   UNL     1      33.847 -21.901 -18.771  0.00  0.00    +0.050 C 
ATOM     23  C   UNL     1      35.183 -21.550 -18.966  0.00  0.00    +0.029 C 
ATOM     24  C   UNL     1      32.848 -21.294 -19.530  0.00  0.00    +0.018 C 
ATOM     25  C   UNL     1      34.519 -19.984 -20.682  0.00  0.00    +0.150 C 
ATOM     26  C   UNL     1      35.519 -20.592 -19.922  0.00  0.00    +0.093 C 
ATOM     27  C   UNL     1      33.184 -20.335 -20.486  0.00  0.00    +0.039 C 
BRANCH  25  28
ATOM     28  O   UNL     1      34.819 -19.044 -21.623  0.00  0.00    -0.468 OA
BRANCH  28  29
ATOM     29  C   UNL     1      34.487 -19.353 -22.975  0.00  0.00    +0.257 C 
BRANCH  29  32
ATOM     30  S   UNL     1      34.916 -16.617 -23.150  0.00  0.00    -0.067 S 
ATOM     31  N   UNL     1      33.463 -17.987 -24.792  0.00  0.00    -0.237 NA
ATOM     32  C   UNL     1      34.214 -18.077 -23.717  0.00  0.00    +0.132 C 
ATOM     33  C   UNL     1      34.160 -15.782 -24.443  0.00  0.00    +0.057 C 
ATOM     34  C   UNL     1      33.433 -16.670 -25.207  0.00  0.00    +0.106 C 
ENDBRANCH  29  32
ENDBRANCH  28  29
ENDBRANCH  25  28
ENDBRANCH   1  22
TORSDOF 5
ENDMDL
MODEL 2
REMARK VINA RESULT:     -11.6      5.770     10.014
REMARK  Name = 42642648
REMARK  5 active torsions:
REMARK  status: ('A' for Active; 'I' for Inactive)
REMARK    1  A    between atoms: N_1  and  C_22
REMARK    2  A    between atoms: C_4  and  N_15
REMARK    3  A    between atoms: C_25  and  O_28
REMARK    4  A    between atoms: O_28  and  C_29
REMARK    5  A    between atoms: C_29  and  C_32
REMARK                            x       y       z     vdW  Elec       q    Type
REMARK                         _______ _______ _______ _____ _____    ______ ____
ROOT
ATOM      1  N   UNL     1      34.186 -14.743 -22.483  0.00  0.00    -0.301 N 
ATOM      2  N   UNL     1      33.471 -17.568 -25.422  0.00  0.00    -0.248 NA
ATOM      3  N   UNL     1      33.285 -15.318 -24.579  0.00  0.00    -0.233 NA
ATOM      4  C   UNL     1      35.523 -18.738 -21.988  0.00  0.00    +0.048 C 
ATOM      5  C   UNL     1      34.403 -17.023 -23.282  0.00  0.00    +0.117 C 
ATOM      6  C   UNL     1      35.096 -17.421 -22.124  0.00  0.00    +0.001 C 
ATOM      7  C   UNL     1      34.132 -17.938 -24.312  0.00  0.00    +0.067 C 
ATOM      8  C   UNL     1      33.950 -15.723 -23.480  0.00  0.00    +0.115 C 
ATOM      9  C   UNL     1      35.260 -19.653 -23.001  0.00  0.00    +0.016 C 
ATOM     10  C   UNL     1      34.570 -19.250 -24.148  0.00  0.00    +0.016 C 
ATOM     11  C   UNL     1      33.083 -16.279 -25.496  0.00  0.00    +0.251 C 
ATOM     12  H   UNL     1      35.009 -14.895 -21.964  0.00  0.00    +0.153 HD
ENDROOT
BRANCH   4  15
ATOM     13  O   UNL     1      36.816 -20.345 -18.983  0.00  0.00    -0.448 OA
ATOM     14  N   UNL     1      35.048 -21.132 -20.198  0.00  0.00    -0.222 NA
ATOM     15  N   UNL     1      36.217 -19.143 -20.830  0.00  0.00    -0.269 N 
ATOM     16  C   UNL     1      35.322 -22.099 -19.122  0.00  0.00    +0.151 C 
ATOM     17  C   UNL     1      36.239 -21.359 -18.171  0.00  0.00    +0.233 C 
ATOM     18  C   UNL     1      35.972 -20.232 -20.050  0.00  0.00    +0.284 C 
ATOM     19  C   UNL     1      34.026 -22.548 -18.475  0.00  0.00    +0.030 C 
ATOM     20  H   UNL     1      36.970 -18.571 -20.553  0.00  0.00    +0.157 HD
ENDBRANCH   4  15
BRANCH   1  22
ATOM     21 CL   UNL     1      33.120  -9.810 -23.312  0.00  0.00    -0.079 Cl
ATOM     22  C   UNL     1      33.474 -13.598 -22.092  0.00  0.00    +0.050 C 
ATOM     23  C   UNL     1      33.624 -12.408 -22.803  0.00  0.00    +0.029 C 
ATOM     24  C   UNL     1      32.617 -13.651 -20.994  0.00  0.00    +0.018 C 
ATOM     25  C   UNL     1      32.057 -11.323 -21.316  0.00  0.00    +0.150 C 
ATOM     26  C   UNL     1      32.915 -11.270 -22.416  0.00  0.00    +0.093 C 
ATOM     27  C   UNL     1      31.908 -12.514 -20.606  0.00  0.00    +0.039 C 
BRANCH  25  28
ATOM     28  O   UNL     1      31.353 -10.227 -20.915  0.00  0.00    -0.468 OA
BRANCH  28  29
ATOM     29  C   UNL     1      31.839  -9.531 -19.769  0.00  0.00    +0.257 C 
BRANCH  29  32
ATOM     30  S   UNL     1      31.464  -7.502 -21.625  0.00  0.00    -0.067 S 
ATOM     31  N   UNL     1      32.706  -7.227 -19.375  0.00  0.00    -0.237 NA
ATOM     32  C   UNL     1      32.066  -8.092 -20.130  0.00  0.00    +0.132 C 
ATOM     33  C   UNL     1      32.104  -5.958 -21.245  0.00  0.00    +0.057 C 
ATOM     34  C   UNL     1      32.727  -6.004 -20.016  0.00  0.00    +0.106 C 
ENDBRANCH  29  32
ENDBRANCH  28  29
ENDBRANCH  25  28
ENDBRANCH   1  22
TORSDOF 5
ENDMDL
MODEL 3
REMARK VINA RESULT:     -11.4      5.838     10.420
REMARK  Name = 42642648
REMARK  5 active torsions:
REMARK  status: ('A' for Active; 'I' for Inactive)
REMARK    1  A    between atoms: N_1  and  C_22
REMARK    2  A    between atoms: C_4  and  N_15
REMARK    3  A    between atoms: C_25  and  O_28
REMARK    4  A    between atoms: O_28  and  C_29
REMARK    5  A    between atoms: C_29  and  C_32
REMARK                            x       y       z     vdW  Elec       q    Type
REMARK                         _______ _______ _______ _____ _____    ______ ____
ROOT
ATOM      1  N   UNL     1      34.336 -14.402 -23.293  0.00  0.00    -0.301 N 
ATOM      2  N   UNL     1      32.970 -17.561 -25.593  0.00  0.00    -0.248 NA
ATOM      3  N   UNL     1      33.088 -15.201 -25.122  0.00  0.00    -0.233 NA
ATOM      4  C   UNL     1      35.419 -18.386 -22.322  0.00  0.00    +0.048 C 
ATOM      5  C   UNL     1      34.254 -16.788 -23.721  0.00  0.00    +0.117 C 
ATOM      6  C   UNL     1      35.080 -17.070 -22.618  0.00  0.00    +0.001 C 
ATOM      7  C   UNL     1      33.760 -17.819 -24.536  0.00  0.00    +0.067 C 
ATOM      8  C   UNL     1      33.877 -15.495 -24.070  0.00  0.00    +0.115 C 
ATOM      9  C   UNL     1      34.936 -19.416 -23.122  0.00  0.00    +0.016 C 
ATOM     10  C   UNL     1      34.115 -19.128 -24.216  0.00  0.00    +0.016 C 
ATOM     11  C   UNL     1      32.677 -16.266 -25.828  0.00  0.00    +0.251 C 
ATOM     12  H   UNL     1      35.213 -14.555 -22.874  0.00  0.00    +0.153 HD
ENDROOT
BRANCH   4  15
ATOM     13  O   UNL     1      37.115 -19.738 -19.393  0.00  0.00    -0.448 OA
ATOM     14  N   UNL     1      35.335 -20.738 -20.418  0.00  0.00    -0.222 NA
ATOM     15  N   UNL     1      36.246 -18.676 -21.218  0.00  0.00    -0.269 N 
ATOM     16  C   UNL     1      35.792 -21.628 -19.339  0.00  0.00    +0.151 C 
ATOM     17  C   UNL     1      36.710 -20.766 -18.499  0.00  0.00    +0.233 C 
ATOM     18  C   UNL     1      36.175 -19.749 -20.383  0.00  0.00    +0.284 C 
ATOM     19  C   UNL     1      34.606 -22.170 -18.564  0.00  0.00    +0.030 C 
ATOM     20  H   UNL     1      36.960 -18.024 -21.028  0.00  0.00    +0.157 HD
ENDBRANCH   4  15
BRANCH   1  22
ATOM     21 CL   UNL     1      31.182 -11.614 -20.388  0.00  0.00    -0.079 Cl
ATOM     22  C   UNL     1      33.782 -13.144 -23.008  0.00  0.00    +0.050 C 
ATOM     23  C   UNL     1      32.865 -13.007 -21.966  0.00  0.00    +0.029 C 
ATOM     24  C   UNL     1      34.148 -12.033 -23.766  0.00  0.00    +0.018 C 
ATOM     25  C   UNL     1      32.681 -10.644 -22.441  0.00  0.00    +0.150 C 
ATOM     26  C   UNL     1      32.315 -11.757 -21.682  0.00  0.00    +0.093 C 
ATOM     27  C   UNL     1      33.598 -10.783 -23.483  0.00  0.00    +0.039 C 
BRANCH  25  28
ATOM     28  O   UNL     1      32.159  -9.411 -22.186  0.00  0.00    -0.468 OA
BRANCH  28  29
ATOM     29  C   UNL     1      33.017  -8.290 -22.394  0.00  0.00    +0.257 C 
BRANCH  29  32
ATOM     30  S   UNL     1      32.424  -5.796 -23.455  0.00  0.00    -0.067 S 
ATOM     31  N   UNL     1      31.334  -6.789 -21.332  0.00  0.00    -0.237 NA
ATOM     32  C   UNL     1      32.211  -7.029 -22.282  0.00  0.00    +0.132 C 
ATOM     33  C   UNL     1      31.249  -4.851 -22.639  0.00  0.00    +0.057 C 
ATOM     34  C   UNL     1      30.784  -5.539 -21.539  0.00  0.00    +0.106 C 
ENDBRANCH  29  32
ENDBRANCH  28  29
ENDBRANCH  25  28
ENDBRANCH   1  22
TORSDOF 5
ENDMDL
MODEL 4
REMARK VINA RESULT:     -11.2      1.337      1.518
REMARK  Name = 42642648
REMARK  5 active torsions:
REMARK  status: ('A' for Active; 'I' for Inactive)
REMARK    1  A    between atoms: N_1  and  C_22
REMARK    2  A    between atoms: C_4  and  N_15
REMARK    3  A    between atoms: C_25  and  O_28
REMARK    4  A    between atoms: O_28  and  C_29
REMARK    5  A    between atoms: C_29  and  C_32
REMARK                            x       y       z     vdW  Elec       q    Type
REMARK                         _______ _______ _______ _____ _____    ______ ____
ROOT
ATOM      1  N   UNL     1      33.025 -22.954 -17.315  0.00  0.00    -0.301 N 
ATOM      2  N   UNL     1      29.538 -23.001 -15.085  0.00  0.00    -0.248 NA
ATOM      3  N   UNL     1      30.722 -22.511 -17.126  0.00  0.00    -0.233 NA
ATOM      4  C   UNL     1      33.043 -24.428 -13.338  0.00  0.00    +0.048 C 
ATOM      5  C   UNL     1      31.885 -23.468 -15.236  0.00  0.00    +0.117 C 
ATOM      6  C   UNL     1      33.066 -23.951 -14.644  0.00  0.00    +0.001 C 
ATOM      7  C   UNL     1      30.673 -23.459 -14.528  0.00  0.00    +0.067 C 
ATOM      8  C   UNL     1      31.840 -22.977 -16.538  0.00  0.00    +0.115 C 
ATOM      9  C   UNL     1      31.849 -24.424 -12.626  0.00  0.00    +0.016 C 
ATOM     10  C   UNL     1      30.680 -23.942 -13.221  0.00  0.00    +0.016 C 
ATOM     11  C   UNL     1      29.624 -22.551 -16.353  0.00  0.00    +0.251 C 
ATOM     12  H   UNL     1      33.661 -23.670 -17.089  0.00  0.00    +0.153 HD
ENDROOT
BRANCH   4  15
ATOM     13  O   UNL     1      36.438 -25.232 -12.283  0.00  0.00    -0.448 OA
ATOM     14  N   UNL     1      35.930 -23.737 -13.935  0.00  0.00    -0.222 NA
ATOM     15  N   UNL     1      34.223 -24.912 -12.738  0.00  0.00    -0.269 N 
ATOM     16  C   UNL     1      37.389 -23.716 -13.742  0.00  0.00    +0.151 C 
ATOM     17  C   UNL     1      37.680 -24.951 -12.915  0.00  0.00    +0.233 C 
ATOM     18  C   UNL     1      35.509 -24.575 -13.037  0.00  0.00    +0.284 C 
ATOM     19  C   UNL     1      38.098 -23.713 -15.082  0.00  0.00    +0.030 C 
ATOM     20  H   UNL     1      34.104 -25.574 -12.018  0.00  0.00    +0.157 HD
ENDBRANCH   4  15
BRANCH   1  22
ATOM     21 CL   UNL     1      36.963 -20.949 -19.890  0.00  0.00    -0.079 Cl
ATOM     22  C   UNL     1      33.466 -22.107 -18.345  0.00  0.00    +0.050 C 
ATOM     23  C   UNL     1      34.831 -21.957 -18.588  0.00  0.00    +0.029 C 
ATOM     24  C   UNL     1      32.539 -21.417 -19.123  0.00  0.00    +0.018 C 
ATOM     25  C   UNL     1      34.340 -20.425 -20.391  0.00  0.00    +0.150 C 
ATOM     26  C   UNL     1      35.269 -21.117 -19.611  0.00  0.00    +0.093 C 
ATOM     27  C   UNL     1      32.976 -20.575 -20.146  0.00  0.00    +0.039 C 
BRANCH  25  28
ATOM     28  O   UNL     1      34.740 -19.596 -21.397  0.00  0.00    -0.468 OA
BRANCH  28  29
ATOM     29  C   UNL     1      35.110 -18.268 -21.032  0.00  0.00    +0.257 C 
BRANCH  29  32
ATOM     30  S   UNL     1      34.605 -18.061 -23.753  0.00  0.00    -0.067 S 
ATOM     31  N   UNL     1      35.008 -16.055 -22.174  0.00  0.00    -0.237 NA
ATOM     32  C   UNL     1      34.932 -17.366 -22.218  0.00  0.00    +0.132 C 
ATOM     33  C   UNL     1      34.558 -16.486 -24.428  0.00  0.00    +0.057 C 
ATOM     34  C   UNL     1      34.795 -15.552 -23.442  0.00  0.00    +0.106 C 
ENDBRANCH  29  32
ENDBRANCH  28  29
ENDBRANCH  25  28
ENDBRANCH   1  22
TORSDOF 5
ENDMDL
MODEL 5
REMARK VINA RESULT:     -10.3      2.285      3.195
REMARK  Name = 42642648
REMARK  5 active torsions:
REMARK  status: ('A' for Active; 'I' for Inactive)
REMARK    1  A    between atoms: N_1  and  C_22
REMARK    2  A    between atoms: C_4  and  N_15
REMARK    3  A    between atoms: C_25  and  O_28
REMARK    4  A    between atoms: O_28  and  C_29
REMARK    5  A    between atoms: C_29  and  C_32
REMARK                            x       y       z     vdW  Elec       q    Type
REMARK                         _______ _______ _______ _____ _____    ______ ____
ROOT
ATOM      1  N   UNL     1      35.286 -21.146 -19.701  0.00  0.00    -0.301 N 
ATOM      2  N   UNL     1      32.170 -22.539 -17.359  0.00  0.00    -0.248 NA
ATOM      3  N   UNL     1      32.978 -21.426 -19.338  0.00  0.00    -0.233 NA
ATOM      4  C   UNL     1      36.079 -23.129 -16.036  0.00  0.00    +0.048 C 
ATOM      5  C   UNL     1      34.530 -22.275 -17.691  0.00  0.00    +0.117 C 
ATOM      6  C   UNL     1      35.848 -22.476 -17.242  0.00  0.00    +0.001 C 
ATOM      7  C   UNL     1      33.434 -22.725 -16.939  0.00  0.00    +0.067 C 
ATOM      8  C   UNL     1      34.231 -21.629 -18.887  0.00  0.00    +0.115 C 
ATOM      9  C   UNL     1      35.001 -23.579 -15.282  0.00  0.00    +0.016 C 
ATOM     10  C   UNL     1      33.695 -23.375 -15.735  0.00  0.00    +0.016 C 
ATOM     11  C   UNL     1      32.011 -21.899 -18.535  0.00  0.00    +0.251 C 
ATOM     12  H   UNL     1      36.115 -21.672 -19.628  0.00  0.00    +0.153 HD
ENDROOT
BRANCH   4  15
ATOM     13  O   UNL     1      39.178 -24.210 -14.451  0.00  0.00    -0.448 OA
ATOM     14  N   UNL     1      37.148 -25.198 -14.102  0.00  0.00    -0.222 NA
ATOM     15  N   UNL     1      37.397 -23.333 -15.580  0.00  0.00    -0.269 N 
ATOM     16  C   UNL     1      38.158 -25.971 -13.362  0.00  0.00    +0.151 C 
ATOM     17  C   UNL     1      39.381 -25.079 -13.345  0.00  0.00    +0.233 C 
ATOM     18  C   UNL     1      37.839 -24.280 -14.706  0.00  0.00    +0.284 C 
ATOM     19  C   UNL     1      37.649 -26.315 -11.976  0.00  0.00    +0.030 C 
ATOM     20  H   UNL     1      38.079 -22.719 -15.936  0.00  0.00    +0.157 HD
ENDBRANCH   4  15
BRANCH   1  22
ATOM     21 CL   UNL     1      33.704 -18.963 -24.047  0.00  0.00    -0.079 Cl
ATOM     22  C   UNL     1      35.377 -20.063 -20.590  0.00  0.00    +0.050 C 
ATOM     23  C   UNL     1      34.594 -20.041 -21.744  0.00  0.00    +0.029 C 
ATOM     24  C   UNL     1      36.250 -19.011 -20.319  0.00  0.00    +0.018 C 
ATOM     25  C   UNL     1      35.557 -17.911 -22.356  0.00  0.00    +0.150 C 
ATOM     26  C   UNL     1      34.683 -18.965 -22.627  0.00  0.00    +0.093 C 
ATOM     27  C   UNL     1      36.340 -17.935 -21.202  0.00  0.00    +0.039 C 
BRANCH  25  28
ATOM     28  O   UNL     1      35.666 -16.847 -23.201  0.00  0.00    -0.468 OA
BRANCH  28  29
ATOM     29  C   UNL     1      34.983 -15.652 -22.827  0.00  0.00    +0.257 C 
BRANCH  29  32
ATOM     30  S   UNL     1      33.698 -13.480 -23.981  0.00  0.00    -0.067 S 
ATOM     31  N   UNL     1      34.063 -15.761 -25.141  0.00  0.00    -0.237 NA
ATOM     32  C   UNL     1      34.278 -15.094 -24.029  0.00  0.00    +0.132 C 
ATOM     33  C   UNL     1      33.107 -13.671 -25.579  0.00  0.00    +0.057 C 
ATOM     34  C   UNL     1      33.392 -14.944 -26.029  0.00  0.00    +0.106 C 
ENDBRANCH  29  32
ENDBRANCH  28  29
ENDBRANCH  25  28
ENDBRANCH   1  22
TORSDOF 5
ENDMDL
MODEL 6
REMARK VINA RESULT:     -10.2      9.184     16.772
REMARK  Name = 42642648
REMARK  5 active torsions:
REMARK  status: ('A' for Active; 'I' for Inactive)
REMARK    1  A    between atoms: N_1  and  C_22
REMARK    2  A    between atoms: C_4  and  N_15
REMARK    3  A    between atoms: C_25  and  O_28
REMARK    4  A    between atoms: O_28  and  C_29
REMARK    5  A    between atoms: C_29  and  C_32
REMARK                            x       y       z     vdW  Elec       q    Type
REMARK                         _______ _______ _______ _____ _____    ______ ____
ROOT
ATOM      1  N   UNL     1      33.500  -8.897 -23.164  0.00  0.00    -0.301 N 
ATOM      2  N   UNL     1      31.669  -6.133 -20.686  0.00  0.00    -0.248 NA
ATOM      3  N   UNL     1      32.583  -8.328 -21.073  0.00  0.00    -0.233 NA
ATOM      4  C   UNL     1      32.603  -5.003 -24.588  0.00  0.00    +0.048 C 
ATOM      5  C   UNL     1      32.595  -6.671 -22.831  0.00  0.00    +0.117 C 
ATOM      6  C   UNL     1      32.909  -6.286 -24.147  0.00  0.00    +0.001 C 
ATOM      7  C   UNL     1      31.973  -5.775 -21.946  0.00  0.00    +0.067 C 
ATOM      8  C   UNL     1      32.873  -7.938 -22.329  0.00  0.00    +0.115 C 
ATOM      9  C   UNL     1      31.987  -4.108 -23.721  0.00  0.00    +0.016 C 
ATOM     10  C   UNL     1      31.678  -4.497 -22.415  0.00  0.00    +0.016 C 
ATOM     11  C   UNL     1      31.990  -7.389 -20.318  0.00  0.00    +0.251 C 
ATOM     12  H   UNL     1      34.095  -8.503 -23.842  0.00  0.00    +0.153 HD
ENDROOT
BRANCH   4  15
ATOM     13  O   UNL     1      34.115  -4.161 -27.796  0.00  0.00    -0.448 OA
ATOM     14  N   UNL     1      35.278  -4.972 -26.005  0.00  0.00    -0.222 NA
ATOM     15  N   UNL     1      32.915  -4.612 -25.906  0.00  0.00    -0.269 N 
ATOM     16  C   UNL     1      36.216  -4.845 -27.132  0.00  0.00    +0.151 C 
ATOM     17  C   UNL     1      35.482  -3.989 -28.142  0.00  0.00    +0.233 C 
ATOM     18  C   UNL     1      34.136  -4.613 -26.508  0.00  0.00    +0.284 C 
ATOM     19  C   UNL     1      37.522  -4.231 -26.665  0.00  0.00    +0.030 C 
ATOM     20  H   UNL     1      32.160  -4.301 -26.456  0.00  0.00    +0.157 HD
ENDBRANCH   4  15
BRANCH   1  22
ATOM     21 CL   UNL     1      31.966 -13.241 -20.943  0.00  0.00    -0.079 Cl
ATOM     22  C   UNL     1      33.436 -10.298 -23.210  0.00  0.00    +0.050 C 
ATOM     23  C   UNL     1      32.810 -11.002 -22.182  0.00  0.00    +0.029 C 
ATOM     24  C   UNL     1      33.999 -10.986 -24.285  0.00  0.00    +0.018 C 
ATOM     25  C   UNL     1      33.309 -13.084 -23.304  0.00  0.00    +0.150 C 
ATOM     26  C   UNL     1      32.746 -12.395 -22.229  0.00  0.00    +0.093 C 
ATOM     27  C   UNL     1      33.935 -12.379 -24.332  0.00  0.00    +0.039 C 
BRANCH  25  28
ATOM     28  O   UNL     1      33.262 -14.444 -23.376  0.00  0.00    -0.468 OA
BRANCH  28  29
ATOM     29  C   UNL     1      33.921 -15.056 -24.483  0.00  0.00    +0.257 C 
BRANCH  29  32
ATOM     30  S   UNL     1      35.007 -16.997 -22.824  0.00  0.00    -0.067 S 
ATOM     31  N   UNL     1      33.603 -17.486 -24.938  0.00  0.00    -0.237 NA
ATOM     32  C   UNL     1      34.099 -16.519 -24.199  0.00  0.00    +0.132 C 
ATOM     33  C   UNL     1      34.722 -18.637 -23.237  0.00  0.00    +0.057 C 
ATOM     34  C   UNL     1      33.961 -18.700 -24.385  0.00  0.00    +0.106 C 
ENDBRANCH  29  32
ENDBRANCH  28  29
ENDBRANCH  25  28
ENDBRANCH   1  22
TORSDOF 5
ENDMDL
MODEL 7
REMARK VINA RESULT:     -10.0      8.422     16.394
REMARK  Name = 42642648
REMARK  5 active torsions:
REMARK  status: ('A' for Active; 'I' for Inactive)
REMARK    1  A    between atoms: N_1  and  C_22
REMARK    2  A    between atoms: C_4  and  N_15
REMARK    3  A    between atoms: C_25  and  O_28
REMARK    4  A    between atoms: O_28  and  C_29
REMARK    5  A    between atoms: C_29  and  C_32
REMARK                            x       y       z     vdW  Elec       q    Type
REMARK                         _______ _______ _______ _____ _____    ______ ____
ROOT
ATOM      1  N   UNL     1      33.933 -10.226 -23.361  0.00  0.00    -0.301 N 
ATOM      2  N   UNL     1      31.189  -7.490 -21.906  0.00  0.00    -0.248 NA
ATOM      3  N   UNL     1      31.999  -9.750 -22.108  0.00  0.00    -0.233 NA
ATOM      4  C   UNL     1      34.327  -6.103 -24.274  0.00  0.00    +0.048 C 
ATOM      5  C   UNL     1      33.164  -7.932 -23.191  0.00  0.00    +0.117 C 
ATOM      6  C   UNL     1      34.222  -7.461 -23.990  0.00  0.00    +0.001 C 
ATOM      7  C   UNL     1      32.204  -7.050 -22.671  0.00  0.00    +0.067 C 
ATOM      8  C   UNL     1      33.002  -9.276 -22.871  0.00  0.00    +0.115 C 
ATOM      9  C   UNL     1      33.382  -5.220 -23.765  0.00  0.00    +0.016 C 
ATOM     10  C   UNL     1      32.333  -5.696 -22.973  0.00  0.00    +0.016 C 
ATOM     11  C   UNL     1      31.141  -8.815 -21.666  0.00  0.00    +0.251 C 
ATOM     12  H   UNL     1      34.839  -9.865 -23.488  0.00  0.00    +0.153 HD
ENDROOT
BRANCH   4  15
ATOM     13  O   UNL     1      36.510  -4.663 -26.813  0.00  0.00    -0.448 OA
ATOM     14  N   UNL     1      34.230  -4.695 -26.952  0.00  0.00    -0.222 NA
ATOM     15  N   UNL     1      35.384  -5.625 -25.074  0.00  0.00    -0.269 N 
ATOM     16  C   UNL     1      34.742  -3.952 -28.114  0.00  0.00    +0.151 C 
ATOM     17  C   UNL     1      36.221  -4.273 -28.148  0.00  0.00    +0.233 C 
ATOM     18  C   UNL     1      35.299  -4.994 -26.278  0.00  0.00    +0.284 C 
ATOM     19  C   UNL     1      34.010  -4.373 -29.374  0.00  0.00    +0.030 C 
ATOM     20  H   UNL     1      36.293  -5.764 -24.720  0.00  0.00    +0.157 HD
ENDBRANCH   4  15
BRANCH   1  22
ATOM     21 CL   UNL     1      33.520 -13.756 -27.040  0.00  0.00    -0.079 Cl
ATOM     22  C   UNL     1      33.811 -11.584 -23.699  0.00  0.00    +0.050 C 
ATOM     23  C   UNL     1      33.734 -11.964 -25.039  0.00  0.00    +0.029 C 
ATOM     24  C   UNL     1      33.767 -12.550 -22.696  0.00  0.00    +0.018 C 
ATOM     25  C   UNL     1      33.570 -14.281 -24.370  0.00  0.00    +0.150 C 
ATOM     26  C   UNL     1      33.614 -13.312 -25.375  0.00  0.00    +0.093 C 
ATOM     27  C   UNL     1      33.647 -13.899 -23.031  0.00  0.00    +0.039 C 
BRANCH  25  28
ATOM     28  O   UNL     1      33.452 -15.605 -24.670  0.00  0.00    -0.468 OA
BRANCH  28  29
ATOM     29  C   UNL     1      34.663 -16.350 -24.793  0.00  0.00    +0.257 C 
BRANCH  29  32
ATOM     30  S   UNL     1      34.158 -18.910 -23.849  0.00  0.00    -0.067 S 
ATOM     31  N   UNL     1      35.286 -17.032 -22.478  0.00  0.00    -0.237 NA
ATOM     32  C   UNL     1      34.762 -17.316 -23.649  0.00  0.00    +0.132 C 
ATOM     33  C   UNL     1      34.632 -19.265 -22.240  0.00  0.00    +0.057 C 
ATOM     34  C   UNL     1      35.211 -18.150 -21.671  0.00  0.00    +0.106 C 
ENDBRANCH  29  32
ENDBRANCH  28  29
ENDBRANCH  25  28
ENDBRANCH   1  22
TORSDOF 5
ENDMDL
MODEL 8
REMARK VINA RESULT:      -9.6      2.324      4.579
REMARK  Name = 42642648
REMARK  5 active torsions:
REMARK  status: ('A' for Active; 'I' for Inactive)
REMARK    1  A    between atoms: N_1  and  C_22
REMARK    2  A    between atoms: C_4  and  N_15
REMARK    3  A    between atoms: C_25  and  O_28
REMARK    4  A    between atoms: O_28  and  C_29
REMARK    5  A    between atoms: C_29  and  C_32
REMARK                            x       y       z     vdW  Elec       q    Type
REMARK                         _______ _______ _______ _____ _____    ______ ____
ROOT
ATOM      1  N   UNL     1      35.787 -22.188 -16.302  0.00  0.00    -0.301 N 
ATOM      2  N   UNL     1      38.792 -24.400 -14.510  0.00  0.00    -0.248 NA
ATOM      3  N   UNL     1      38.056 -22.792 -16.147  0.00  0.00    -0.233 NA
ATOM      4  C   UNL     1      34.888 -24.837 -13.114  0.00  0.00    +0.048 C 
ATOM      5  C   UNL     1      36.471 -23.811 -14.634  0.00  0.00    +0.117 C 
ATOM      6  C   UNL     1      35.155 -23.961 -14.160  0.00  0.00    +0.001 C 
ATOM      7  C   UNL     1      37.530 -24.536 -14.065  0.00  0.00    +0.067 C 
ATOM      8  C   UNL     1      36.804 -22.953 -15.677  0.00  0.00    +0.115 C 
ATOM      9  C   UNL     1      35.929 -25.561 -12.542  0.00  0.00    +0.016 C 
ATOM     10  C   UNL     1      37.234 -25.407 -13.019  0.00  0.00    +0.016 C 
ATOM     11  C   UNL     1      38.986 -23.536 -15.527  0.00  0.00    +0.251 C 
ATOM     12  H   UNL     1      35.041 -21.956 -15.703  0.00  0.00    +0.153 HD
ENDROOT
BRANCH   4  15
ATOM     13  O   UNL     1      31.290 -24.996 -12.560  0.00  0.00    -0.448 OA
ATOM     14  N   UNL     1      32.256 -24.362 -14.531  0.00  0.00    -0.222 NA
ATOM     15  N   UNL     1      33.572 -24.992 -12.635  0.00  0.00    -0.269 N 
ATOM     16  C   UNL     1      30.798 -24.387 -14.731  0.00  0.00    +0.151 C 
ATOM     17  C   UNL     1      30.224 -24.459 -13.332  0.00  0.00    +0.233 C 
ATOM     18  C   UNL     1      32.409 -24.767 -13.307  0.00  0.00    +0.284 C 
ATOM     19  C   UNL     1      30.350 -23.158 -15.499  0.00  0.00    +0.030 C 
ATOM     20  H   UNL     1      33.483 -25.299 -11.703  0.00  0.00    +0.157 HD
ENDBRANCH   4  15
BRANCH   1  22
ATOM     21 CL   UNL     1      32.649 -21.078 -20.186  0.00  0.00    -0.079 Cl
ATOM     22  C   UNL     1      35.639 -21.697 -17.609  0.00  0.00    +0.050 C 
ATOM     23  C   UNL     1      34.373 -21.633 -18.191  0.00  0.00    +0.029 C 
ATOM     24  C   UNL     1      36.758 -21.274 -18.325  0.00  0.00    +0.018 C 
ATOM     25  C   UNL     1      35.346 -20.721 -20.206  0.00  0.00    +0.150 C 
ATOM     26  C   UNL     1      34.226 -21.145 -19.489  0.00  0.00    +0.093 C 
ATOM     27  C   UNL     1      36.612 -20.786 -19.624  0.00  0.00    +0.039 C 
BRANCH  25  28
ATOM     28  O   UNL     1      35.233 -20.241 -21.477  0.00  0.00    -0.468 OA
BRANCH  28  29
ATOM     29  C   UNL     1      35.630 -18.888 -21.694  0.00  0.00    +0.257 C 
BRANCH  29  32
ATOM     30  S   UNL     1      35.064 -16.690 -23.292  0.00  0.00    -0.067 S 
ATOM     31  N   UNL     1      34.159 -19.077 -23.697  0.00  0.00    -0.237 NA
ATOM     32  C   UNL     1      34.913 -18.354 -22.899  0.00  0.00    +0.132 C 
ATOM     33  C   UNL     1      34.041 -16.942 -24.644  0.00  0.00    +0.057 C 
ATOM     34  C   UNL     1      33.660 -18.266 -24.697  0.00  0.00    +0.106 C 
ENDBRANCH  29  32
ENDBRANCH  28  29
ENDBRANCH  25  28
ENDBRANCH   1  22
TORSDOF 5
ENDMDL
MODEL 9
REMARK VINA RESULT:      -9.4      9.479     17.309
REMARK  Name = 42642648
REMARK  5 active torsions:
REMARK  status: ('A' for Active; 'I' for Inactive)
REMARK    1  A    between atoms: N_1  and  C_22
REMARK    2  A    between atoms: C_4  and  N_15
REMARK    3  A    between atoms: C_25  and  O_28
REMARK    4  A    between atoms: O_28  and  C_29
REMARK    5  A    between atoms: C_29  and  C_32
REMARK                            x       y       z     vdW  Elec       q    Type
REMARK                         _______ _______ _______ _____ _____    ______ ____
ROOT
ATOM      1  N   UNL     1      33.532  -8.977 -23.120  0.00  0.00    -0.301 N 
ATOM      2  N   UNL     1      31.444  -6.296 -20.757  0.00  0.00    -0.248 NA
ATOM      3  N   UNL     1      32.384  -8.484 -21.126  0.00  0.00    -0.233 NA
ATOM      4  C   UNL     1      32.826  -5.021 -24.477  0.00  0.00    +0.048 C 
ATOM      5  C   UNL     1      32.607  -6.757 -22.802  0.00  0.00    +0.117 C 
ATOM      6  C   UNL     1      33.072  -6.324 -24.057  0.00  0.00    +0.001 C 
ATOM      7  C   UNL     1      31.892  -5.892 -21.959  0.00  0.00    +0.067 C 
ATOM      8  C   UNL     1      32.819  -8.047 -22.323  0.00  0.00    +0.115 C 
ATOM      9  C   UNL     1      32.120  -4.155 -23.651  0.00  0.00    +0.016 C 
ATOM     10  C   UNL     1      31.660  -4.593 -22.406  0.00  0.00    +0.016 C 
ATOM     11  C   UNL     1      31.713  -7.569 -20.406  0.00  0.00    +0.251 C 
ATOM     12  H   UNL     1      34.203  -8.563 -23.709  0.00  0.00    +0.153 HD
ENDROOT
BRANCH   4  15
ATOM     13  O   UNL     1      33.425  -3.428 -27.700  0.00  0.00    -0.448 OA
ATOM     14  N   UNL     1      31.693  -2.894 -26.310  0.00  0.00    -0.222 NA
ATOM     15  N   UNL     1      33.289  -4.581 -25.733  0.00  0.00    -0.269 N 
ATOM     16  C   UNL     1      31.648  -1.977 -27.459  0.00  0.00    +0.151 C 
ATOM     17  C   UNL     1      32.573  -2.602 -28.481  0.00  0.00    +0.233 C 
ATOM     18  C   UNL     1      32.749  -3.617 -26.530  0.00  0.00    +0.284 C 
ATOM     19  C   UNL     1      30.223  -1.823 -27.956  0.00  0.00    +0.030 C 
ATOM     20  H   UNL     1      34.100  -5.023 -26.076  0.00  0.00    +0.157 HD
ENDBRANCH   4  15
BRANCH   1  22
ATOM     21 CL   UNL     1      32.088 -13.426 -21.049  0.00  0.00    -0.079 Cl
ATOM     22  C   UNL     1      33.466 -10.376 -23.230  0.00  0.00    +0.050 C 
ATOM     23  C   UNL     1      32.882 -11.129 -22.213  0.00  0.00    +0.029 C 
ATOM     24  C   UNL     1      33.985 -11.010 -24.358  0.00  0.00    +0.018 C 
ATOM     25  C   UNL     1      33.335 -13.153 -23.452  0.00  0.00    +0.150 C 
ATOM     26  C   UNL     1      32.815 -12.518 -22.323  0.00  0.00    +0.093 C 
ATOM     27  C   UNL     1      33.920 -12.399 -24.469  0.00  0.00    +0.039 C 
BRANCH  25  28
ATOM     28  O   UNL     1      33.285 -14.509 -23.586  0.00  0.00    -0.468 OA
BRANCH  28  29
ATOM     29  C   UNL     1      34.297 -15.117 -24.387  0.00  0.00    +0.257 C 
BRANCH  29  32
ATOM     30  S   UNL     1      35.064 -17.144 -22.654  0.00  0.00    -0.067 S 
ATOM     31  N   UNL     1      33.824 -17.512 -24.891  0.00  0.00    -0.237 NA
ATOM     32  C   UNL     1      34.328 -16.590 -24.101  0.00  0.00    +0.132 C 
ATOM     33  C   UNL     1      34.685 -18.753 -23.106  0.00  0.00    +0.057 C 
ATOM     34  C   UNL     1      34.030 -18.752 -24.320  0.00  0.00    +0.106 C 
ENDBRANCH  29  32
ENDBRANCH  28  29
ENDBRANCH  25  28
ENDBRANCH   1  22
TORSDOF 5
ENDMDL
