MODEL 1
REMARK VINA RESULT:     -11.6      0.000      0.000
REMARK  Name = 24779724
REMARK  3 active torsions:
REMARK  status: ('A' for Active; 'I' for Inactive)
REMARK    1  A    between atoms: C_5  and  C_12
REMARK    2  A    between atoms: C_7  and  S_16
REMARK    3  A    between atoms: S_16  and  C_19
REMARK                            x       y       z     vdW  Elec       q    Type
REMARK                         _______ _______ _______ _____ _____    ______ ____
ROOT
ATOM      1  N   UNL     1      34.518 -21.761 -18.495  0.00  0.00    -0.186 N 
ATOM      2  N   UNL     1      35.548 -22.123 -17.690  0.00  0.00    -0.162 NA
ATOM      3  N   UNL     1      32.501 -21.544 -19.336  0.00  0.00    -0.126 NA
ATOM      4  N   UNL     1      33.386 -20.848 -20.134  0.00  0.00    -0.120 NA
ATOM      5  C   UNL     1      35.190 -22.861 -16.677  0.00  0.00    +0.104 C 
ATOM      6  C   UNL     1      33.190 -22.088 -18.355  0.00  0.00    +0.187 A 
ATOM      7  C   UNL     1      34.586 -20.989 -19.618  0.00  0.00    +0.217 A 
ATOM      8  C   UNL     1      33.784 -23.309 -16.410  0.00  0.00    +0.024 C 
ATOM      9  C   UNL     1      32.835 -22.902 -17.261  0.00  0.00    +0.042 C 
ENDROOT
BRANCH   5  12
ATOM     10  N   UNL     1      37.284 -24.408 -14.146  0.00  0.00    -0.208 N 
ATOM     11  N   UNL     1      38.185 -23.498 -14.553  0.00  0.00    -0.176 NA
ATOM     12  C   UNL     1      36.227 -23.318 -15.718  0.00  0.00    +0.056 C 
ATOM     13  C   UNL     1      36.095 -24.342 -14.812  0.00  0.00    +0.087 C 
ATOM     14  C   UNL     1      37.534 -22.835 -15.513  0.00  0.00    +0.121 C 
ATOM     15  C   UNL     1      37.625 -25.334 -13.093  0.00  0.00    +0.140 C 
ENDBRANCH   5  12
BRANCH   7  16
ATOM     16  S   UNL     1      36.107 -20.297 -20.249  0.00  0.00    -0.051 S 
BRANCH  16  19
ATOM     17  N   UNL     1      34.053 -16.660 -24.484  0.00  0.00    -0.248 NA
ATOM     18  C   UNL     1      34.916 -16.963 -22.255  0.00  0.00    -0.003 C 
ATOM     19  C   UNL     1      35.494 -19.199 -21.510  0.00  0.00    +0.011 C 
ATOM     20  C   UNL     1      34.521 -17.465 -23.513  0.00  0.00    +0.060 C 
ATOM     21  C   UNL     1      35.399 -17.833 -21.264  0.00  0.00    +0.060 C 
ATOM     22  C   UNL     1      35.106 -19.701 -22.746  0.00  0.00    -0.017 C 
ATOM     23  C   UNL     1      34.626 -18.836 -23.732  0.00  0.00    +0.072 C 
ATOM     24  C   UNL     1      34.810 -15.583 -22.034  0.00  0.00    -0.001 C 
ATOM     25  C   UNL     1      34.329 -14.750 -23.033  0.00  0.00    +0.020 C 
ATOM     26  C   UNL     1      33.967 -15.334 -24.231  0.00  0.00    +0.098 C 
ENDBRANCH  16  19
ENDBRANCH   7  16
TORSDOF 3
ENDMDL
MODEL 2
REMARK VINA RESULT:     -11.4      0.829      1.537
REMARK  Name = 24779724
REMARK  3 active torsions:
REMARK  status: ('A' for Active; 'I' for Inactive)
REMARK    1  A    between atoms: C_5  and  C_12
REMARK    2  A    between atoms: C_7  and  S_16
REMARK    3  A    between atoms: S_16  and  C_19
REMARK                            x       y       z     vdW  Elec       q    Type
REMARK                         _______ _______ _______ _____ _____    ______ ____
ROOT
ATOM      1  N   UNL     1      34.438 -22.059 -18.195  0.00  0.00    -0.186 N 
ATOM      2  N   UNL     1      35.445 -22.469 -17.384  0.00  0.00    -0.162 NA
ATOM      3  N   UNL     1      32.435 -21.705 -19.023  0.00  0.00    -0.126 NA
ATOM      4  N   UNL     1      33.366 -21.136 -19.869  0.00  0.00    -0.120 NA
ATOM      5  C   UNL     1      35.039 -23.115 -16.328  0.00  0.00    +0.104 C 
ATOM      6  C   UNL     1      33.089 -22.256 -18.022  0.00  0.00    +0.187 A 
ATOM      7  C   UNL     1      34.557 -21.358 -19.361  0.00  0.00    +0.217 A 
ATOM      8  C   UNL     1      33.603 -23.419 -16.019  0.00  0.00    +0.024 C 
ATOM      9  C   UNL     1      32.680 -22.973 -16.881  0.00  0.00    +0.042 C 
ENDROOT
BRANCH   5  12
ATOM     10  N   UNL     1      37.095 -24.821 -13.868  0.00  0.00    -0.208 N 
ATOM     11  N   UNL     1      37.925 -23.783 -14.067  0.00  0.00    -0.176 NA
ATOM     12  C   UNL     1      36.047 -23.612 -15.357  0.00  0.00    +0.056 C 
ATOM     13  C   UNL     1      35.955 -24.766 -14.617  0.00  0.00    +0.087 C 
ATOM     14  C   UNL     1      37.281 -23.049 -14.977  0.00  0.00    +0.121 C 
ATOM     15  C   UNL     1      37.454 -25.856 -12.929  0.00  0.00    +0.140 C 
ENDBRANCH   5  12
BRANCH   7  16
ATOM     16  S   UNL     1      36.123 -20.842 -20.047  0.00  0.00    -0.051 S 
BRANCH  16  19
ATOM     17  N   UNL     1      34.482 -16.175 -23.349  0.00  0.00    -0.248 NA
ATOM     18  C   UNL     1      34.594 -18.563 -23.051  0.00  0.00    -0.003 C 
ATOM     19  C   UNL     1      35.627 -19.452 -21.043  0.00  0.00    +0.011 C 
ATOM     20  C   UNL     1      34.844 -17.245 -22.617  0.00  0.00    +0.060 C 
ATOM     21  C   UNL     1      34.986 -19.657 -22.262  0.00  0.00    +0.060 C 
ATOM     22  C   UNL     1      35.878 -18.156 -20.610  0.00  0.00    -0.017 C 
ATOM     23  C   UNL     1      35.487 -17.069 -21.395  0.00  0.00    +0.072 C 
ATOM     24  C   UNL     1      33.947 -18.740 -24.282  0.00  0.00    -0.001 C 
ATOM     25  C   UNL     1      33.572 -17.640 -25.038  0.00  0.00    +0.020 C 
ATOM     26  C   UNL     1      33.860 -16.389 -24.531  0.00  0.00    +0.098 C 
ENDBRANCH  16  19
ENDBRANCH   7  16
TORSDOF 3
ENDMDL
MODEL 3
REMARK VINA RESULT:     -10.7      6.274     12.070
REMARK  Name = 24779724
REMARK  3 active torsions:
REMARK  status: ('A' for Active; 'I' for Inactive)
REMARK    1  A    between atoms: C_5  and  C_12
REMARK    2  A    between atoms: C_7  and  S_16
REMARK    3  A    between atoms: S_16  and  C_19
REMARK                            x       y       z     vdW  Elec       q    Type
REMARK                         _______ _______ _______ _____ _____    ______ ____
ROOT
ATOM      1  N   UNL     1      32.444 -11.566 -21.794  0.00  0.00    -0.186 N 
ATOM      2  N   UNL     1      32.583 -10.354 -22.387  0.00  0.00    -0.162 NA
ATOM      3  N   UNL     1      31.913 -13.139 -20.357  0.00  0.00    -0.126 NA
ATOM      4  N   UNL     1      32.553 -13.724 -21.430  0.00  0.00    -0.120 NA
ATOM      5  C   UNL     1      32.077  -9.370 -21.699  0.00  0.00    +0.104 C 
ATOM      6  C   UNL     1      31.852 -11.844 -20.585  0.00  0.00    +0.187 A 
ATOM      7  C   UNL     1      32.866 -12.770 -22.278  0.00  0.00    +0.217 A 
ATOM      8  C   UNL     1      31.419  -9.522 -20.360  0.00  0.00    +0.024 C 
ATOM      9  C   UNL     1      31.330 -10.758 -19.854  0.00  0.00    +0.042 C 
ENDROOT
BRANCH   5  12
ATOM     10  N   UNL     1      31.689  -5.930 -22.793  0.00  0.00    -0.208 N 
ATOM     11  N   UNL     1      32.925  -6.109 -23.291  0.00  0.00    -0.176 NA
ATOM     12  C   UNL     1      32.161  -7.992 -22.246  0.00  0.00    +0.056 C 
ATOM     13  C   UNL     1      31.186  -7.028 -22.159  0.00  0.00    +0.087 C 
ATOM     14  C   UNL     1      33.208  -7.369 -22.953  0.00  0.00    +0.121 C 
ATOM     15  C   UNL     1      31.026  -4.659 -22.961  0.00  0.00    +0.140 C 
ENDBRANCH   5  12
BRANCH   7  16
ATOM     16  S   UNL     1      33.709 -12.965 -23.840  0.00  0.00    -0.051 S 
BRANCH  16  19
ATOM     17  N   UNL     1      34.271 -18.879 -24.156  0.00  0.00    -0.248 NA
ATOM     18  C   UNL     1      34.734 -16.814 -23.004  0.00  0.00    -0.003 C 
ATOM     19  C   UNL     1      33.883 -14.736 -23.925  0.00  0.00    +0.011 C 
ATOM     20  C   UNL     1      34.155 -17.541 -24.066  0.00  0.00    +0.060 C 
ATOM     21  C   UNL     1      34.594 -15.417 -22.942  0.00  0.00    +0.060 C 
ATOM     22  C   UNL     1      33.311 -15.445 -24.973  0.00  0.00    -0.017 C 
ATOM     23  C   UNL     1      33.450 -16.834 -25.036  0.00  0.00    +0.072 C 
ATOM     24  C   UNL     1      35.444 -17.525 -22.028  0.00  0.00    -0.001 C 
ATOM     25  C   UNL     1      35.565 -18.904 -22.118  0.00  0.00    +0.020 C 
ATOM     26  C   UNL     1      34.964 -19.528 -23.194  0.00  0.00    +0.098 C 
ENDBRANCH  16  19
ENDBRANCH   7  16
TORSDOF 3
ENDMDL
MODEL 4
REMARK VINA RESULT:     -10.2      2.279      3.297
REMARK  Name = 24779724
REMARK  3 active torsions:
REMARK  status: ('A' for Active; 'I' for Inactive)
REMARK    1  A    between atoms: C_5  and  C_12
REMARK    2  A    between atoms: C_7  and  S_16
REMARK    3  A    between atoms: S_16  and  C_19
REMARK                            x       y       z     vdW  Elec       q    Type
REMARK                         _______ _______ _______ _____ _____    ______ ____
ROOT
ATOM      1  N   UNL     1      33.398 -23.237 -15.975  0.00  0.00    -0.186 N 
ATOM      2  N   UNL     1      34.367 -23.664 -15.128  0.00  0.00    -0.162 NA
ATOM      3  N   UNL     1      31.434 -22.723 -16.814  0.00  0.00    -0.126 NA
ATOM      4  N   UNL     1      32.402 -22.427 -17.752  0.00  0.00    -0.120 NA
ATOM      5  C   UNL     1      33.914 -24.081 -13.979  0.00  0.00    +0.104 C 
ATOM      6  C   UNL     1      32.041 -23.208 -15.751  0.00  0.00    +0.187 A 
ATOM      7  C   UNL     1      33.568 -22.742 -17.236  0.00  0.00    +0.217 A 
ATOM      8  C   UNL     1      32.464 -24.124 -13.603  0.00  0.00    +0.024 C 
ATOM      9  C   UNL     1      31.580 -23.682 -14.507  0.00  0.00    +0.042 C 
ENDROOT
BRANCH   5  12
ATOM     10  N   UNL     1      36.637 -25.437 -11.995  0.00  0.00    -0.208 N 
ATOM     11  N   UNL     1      35.853 -25.089 -10.960  0.00  0.00    -0.176 NA
ATOM     12  C   UNL     1      34.879 -24.569 -12.960  0.00  0.00    +0.056 C 
ATOM     13  C   UNL     1      36.099 -25.148 -13.215  0.00  0.00    +0.087 C 
ATOM     14  C   UNL     1      34.782 -24.559 -11.556  0.00  0.00    +0.121 C 
ATOM     15  C   UNL     1      37.917 -26.057 -11.749  0.00  0.00    +0.140 C 
ENDBRANCH   5  12
BRANCH   7  16
ATOM     16  S   UNL     1      35.164 -22.566 -18.018  0.00  0.00    -0.051 S 
BRANCH  16  19
ATOM     17  N   UNL     1      33.892 -18.651 -22.313  0.00  0.00    -0.248 NA
ATOM     18  C   UNL     1      35.530 -19.730 -20.914  0.00  0.00    -0.003 C 
ATOM     19  C   UNL     1      34.794 -21.392 -19.305  0.00  0.00    +0.011 C 
ATOM     20  C   UNL     1      34.201 -19.532 -21.344  0.00  0.00    +0.060 C 
ATOM     21  C   UNL     1      35.817 -20.658 -19.899  0.00  0.00    +0.060 C 
ATOM     22  C   UNL     1      33.483 -21.202 -19.723  0.00  0.00    -0.017 C 
ATOM     23  C   UNL     1      33.198 -20.279 -20.732  0.00  0.00    +0.072 C 
ATOM     24  C   UNL     1      36.540 -18.978 -21.529  0.00  0.00    -0.001 C 
ATOM     25  C   UNL     1      36.225 -18.070 -22.529  0.00  0.00    +0.020 C 
ATOM     26  C   UNL     1      34.896 -17.946 -22.881  0.00  0.00    +0.098 C 
ENDBRANCH  16  19
ENDBRANCH   7  16
TORSDOF 3
ENDMDL
MODEL 5
REMARK VINA RESULT:     -10.2      3.571      6.164
REMARK  Name = 24779724
REMARK  3 active torsions:
REMARK  status: ('A' for Active; 'I' for Inactive)
REMARK    1  A    between atoms: C_5  and  C_12
REMARK    2  A    between atoms: C_7  and  S_16
REMARK    3  A    between atoms: S_16  and  C_19
REMARK                            x       y       z     vdW  Elec       q    Type
REMARK                         _______ _______ _______ _____ _____    ______ ____
ROOT
ATOM      1  N   UNL     1      32.705 -23.216 -16.057  0.00  0.00    -0.186 N 
ATOM      2  N   UNL     1      31.410 -23.141 -16.451  0.00  0.00    -0.162 NA
ATOM      3  N   UNL     1      34.507 -23.267 -14.802  0.00  0.00    -0.126 NA
ATOM      4  N   UNL     1      34.887 -23.408 -16.121  0.00  0.00    -0.120 NA
ATOM      5  C   UNL     1      30.567 -22.998 -15.467  0.00  0.00    +0.104 C 
ATOM      6  C   UNL     1      33.196 -23.153 -14.774  0.00  0.00    +0.187 A 
ATOM      7  C   UNL     1      33.800 -23.374 -16.857  0.00  0.00    +0.217 A 
ATOM      8  C   UNL     1      30.959 -22.896 -14.024  0.00  0.00    +0.024 C 
ATOM      9  C   UNL     1      32.263 -22.980 -13.732  0.00  0.00    +0.042 C 
ENDROOT
BRANCH   5  12
ATOM     10  N   UNL     1      26.983 -22.450 -15.655  0.00  0.00    -0.208 N 
ATOM     11  N   UNL     1      27.091 -23.144 -16.801  0.00  0.00    -0.176 NA
ATOM     12  C   UNL     1      29.116 -22.908 -15.770  0.00  0.00    +0.056 C 
ATOM     13  C   UNL     1      28.167 -22.282 -14.999  0.00  0.00    +0.087 C 
ATOM     14  C   UNL     1      28.395 -23.421 -16.866  0.00  0.00    +0.121 C 
ATOM     15  C   UNL     1      25.692 -21.963 -15.230  0.00  0.00    +0.140 C 
ENDBRANCH   5  12
BRANCH   7  16
ATOM     16  S   UNL     1      33.709 -23.511 -18.636  0.00  0.00    -0.051 S 
BRANCH  16  19
ATOM     17  N   UNL     1      37.174 -18.973 -20.309  0.00  0.00    -0.248 NA
ATOM     18  C   UNL     1      35.108 -20.194 -20.533  0.00  0.00    -0.003 C 
ATOM     19  C   UNL     1      34.738 -22.149 -19.143  0.00  0.00    +0.011 C 
ATOM     20  C   UNL     1      36.374 -19.993 -19.944  0.00  0.00    +0.060 C 
ATOM     21  C   UNL     1      34.300 -21.269 -20.129  0.00  0.00    +0.060 C 
ATOM     22  C   UNL     1      35.984 -21.957 -18.559  0.00  0.00    -0.017 C 
ATOM     23  C   UNL     1      36.788 -20.888 -18.961  0.00  0.00    +0.072 C 
ATOM     24  C   UNL     1      34.692 -19.293 -21.523  0.00  0.00    -0.001 C 
ATOM     25  C   UNL     1      35.513 -18.241 -21.901  0.00  0.00    +0.020 C 
ATOM     26  C   UNL     1      36.734 -18.127 -21.267  0.00  0.00    +0.098 C 
ENDBRANCH  16  19
ENDBRANCH   7  16
TORSDOF 3
ENDMDL
MODEL 6
REMARK VINA RESULT:     -10.1      2.696      9.445
REMARK  Name = 24779724
REMARK  3 active torsions:
REMARK  status: ('A' for Active; 'I' for Inactive)
REMARK    1  A    between atoms: C_5  and  C_12
REMARK    2  A    between atoms: C_7  and  S_16
REMARK    3  A    between atoms: S_16  and  C_19
REMARK                            x       y       z     vdW  Elec       q    Type
REMARK                         _______ _______ _______ _____ _____    ______ ____
ROOT
ATOM      1  N   UNL     1      34.477 -17.835 -23.560  0.00  0.00    -0.186 N 
ATOM      2  N   UNL     1      34.460 -16.588 -23.027  0.00  0.00    -0.162 NA
ATOM      3  N   UNL     1      34.134 -19.537 -24.905  0.00  0.00    -0.126 NA
ATOM      4  N   UNL     1      34.896 -19.968 -23.838  0.00  0.00    -0.120 NA
ATOM      5  C   UNL     1      33.801 -15.720 -23.742  0.00  0.00    +0.104 C 
ATOM      6  C   UNL     1      33.888 -18.256 -24.729  0.00  0.00    +0.187 A 
ATOM      7  C   UNL     1      35.090 -18.940 -23.044  0.00  0.00    +0.217 A 
ATOM      8  C   UNL     1      33.095 -16.039 -25.025  0.00  0.00    +0.024 C 
ATOM      9  C   UNL     1      33.168 -17.300 -25.471  0.00  0.00    +0.042 C 
ENDROOT
BRANCH   5  12
ATOM     10  N   UNL     1      33.692 -12.131 -23.197  0.00  0.00    -0.208 N 
ATOM     11  N   UNL     1      33.478 -12.486 -21.918  0.00  0.00    -0.176 NA
ATOM     12  C   UNL     1      33.714 -14.315 -23.267  0.00  0.00    +0.056 C 
ATOM     13  C   UNL     1      33.841 -13.190 -24.045  0.00  0.00    +0.087 C 
ATOM     14  C   UNL     1      33.491 -13.820 -21.967  0.00  0.00    +0.121 C 
ATOM     15  C   UNL     1      33.746 -10.734 -23.554  0.00  0.00    +0.140 C 
ENDBRANCH   5  12
BRANCH   7  16
ATOM     16  S   UNL     1      36.010 -18.933 -21.513  0.00  0.00    -0.051 S 
BRANCH  16  19
ATOM     17  N   UNL     1      32.597 -22.433 -18.123  0.00  0.00    -0.248 NA
ATOM     18  C   UNL     1      34.785 -21.599 -18.693  0.00  0.00    -0.003 C 
ATOM     19  C   UNL     1      34.997 -19.984 -20.492  0.00  0.00    +0.011 C 
ATOM     20  C   UNL     1      33.387 -21.647 -18.879  0.00  0.00    +0.060 C 
ATOM     21  C   UNL     1      35.579 -20.768 -19.500  0.00  0.00    +0.060 C 
ATOM     22  C   UNL     1      33.622 -20.027 -20.680  0.00  0.00    -0.017 C 
ATOM     23  C   UNL     1      32.832 -20.853 -19.878  0.00  0.00    +0.072 C 
ATOM     24  C   UNL     1      35.344 -22.399 -17.688  0.00  0.00    -0.001 C 
ATOM     25  C   UNL     1      34.532 -23.210 -16.907  0.00  0.00    +0.020 C 
ATOM     26  C   UNL     1      33.176 -23.189 -17.164  0.00  0.00    +0.098 C 
ENDBRANCH  16  19
ENDBRANCH   7  16
TORSDOF 3
ENDMDL
MODEL 7
REMARK VINA RESULT:      -9.9      6.072     12.564
REMARK  Name = 24779724
REMARK  3 active torsions:
REMARK  status: ('A' for Active; 'I' for Inactive)
REMARK    1  A    between atoms: C_5  and  C_12
REMARK    2  A    between atoms: C_7  and  S_16
REMARK    3  A    between atoms: S_16  and  C_19
REMARK                            x       y       z     vdW  Elec       q    Type
REMARK                         _______ _______ _______ _____ _____    ______ ____
ROOT
ATOM      1  N   UNL     1      32.531 -11.000 -22.217  0.00  0.00    -0.186 N 
ATOM      2  N   UNL     1      32.994  -9.946 -22.934  0.00  0.00    -0.162 NA
ATOM      3  N   UNL     1      31.532 -12.198 -20.671  0.00  0.00    -0.126 NA
ATOM      4  N   UNL     1      32.111 -13.056 -21.583  0.00  0.00    -0.120 NA
ATOM      5  C   UNL     1      32.670  -8.787 -22.433  0.00  0.00    +0.104 C 
ATOM      6  C   UNL     1      31.790 -10.967 -21.060  0.00  0.00    +0.187 A 
ATOM      7  C   UNL     1      32.705 -12.325 -22.499  0.00  0.00    +0.217 A 
ATOM      8  C   UNL     1      31.883  -8.599 -21.171  0.00  0.00    +0.024 C 
ATOM      9  C   UNL     1      31.469  -9.700 -20.532  0.00  0.00    +0.042 C 
ENDROOT
BRANCH   5  12
ATOM     10  N   UNL     1      33.126  -5.642 -24.190  0.00  0.00    -0.208 N 
ATOM     11  N   UNL     1      34.431  -5.938 -24.067  0.00  0.00    -0.176 NA
ATOM     12  C   UNL     1      33.114  -7.553 -23.130  0.00  0.00    +0.056 C 
ATOM     13  C   UNL     1      32.295  -6.578 -23.646  0.00  0.00    +0.087 C 
ATOM     14  C   UNL     1      34.418  -7.106 -23.419  0.00  0.00    +0.121 C 
ATOM     15  C   UNL     1      32.726  -4.424 -24.853  0.00  0.00    +0.140 C 
ENDBRANCH   5  12
BRANCH   7  16
ATOM     16  S   UNL     1      33.612 -12.920 -23.918  0.00  0.00    -0.051 S 
BRANCH  16  19
ATOM     17  N   UNL     1      35.109 -18.383 -22.101  0.00  0.00    -0.248 NA
ATOM     18  C   UNL     1      34.203 -16.945 -23.809  0.00  0.00    -0.003 C 
ATOM     19  C   UNL     1      34.057 -14.560 -23.384  0.00  0.00    +0.011 C 
ATOM     20  C   UNL     1      34.764 -17.156 -22.532  0.00  0.00    +0.060 C 
ATOM     21  C   UNL     1      33.854 -15.650 -24.226  0.00  0.00    +0.060 C 
ATOM     22  C   UNL     1      34.608 -14.760 -22.125  0.00  0.00    -0.017 C 
ATOM     23  C   UNL     1      34.956 -16.048 -21.710  0.00  0.00    +0.072 C 
ATOM     24  C   UNL     1      34.010 -18.060 -24.636  0.00  0.00    -0.001 C 
ATOM     25  C   UNL     1      34.365 -19.326 -24.195  0.00  0.00    +0.020 C 
ATOM     26  C   UNL     1      34.906 -19.433 -22.930  0.00  0.00    +0.098 C 
ENDBRANCH  16  19
ENDBRANCH   7  16
TORSDOF 3
ENDMDL
MODEL 8
REMARK VINA RESULT:      -9.8      1.948      9.408
REMARK  Name = 24779724
REMARK  3 active torsions:
REMARK  status: ('A' for Active; 'I' for Inactive)
REMARK    1  A    between atoms: C_5  and  C_12
REMARK    2  A    between atoms: C_7  and  S_16
REMARK    3  A    between atoms: S_16  and  C_19
REMARK                            x       y       z     vdW  Elec       q    Type
REMARK                         _______ _______ _______ _____ _____    ______ ____
ROOT
ATOM      1  N   UNL     1      35.029 -21.803 -18.245  0.00  0.00    -0.186 N 
ATOM      2  N   UNL     1      35.578 -20.881 -19.074  0.00  0.00    -0.162 NA
ATOM      3  N   UNL     1      33.604 -23.193 -17.317  0.00  0.00    -0.126 NA
ATOM      4  N   UNL     1      34.793 -23.252 -16.618  0.00  0.00    -0.120 NA
ATOM      5  C   UNL     1      34.770 -20.470 -20.011  0.00  0.00    +0.104 C 
ATOM      6  C   UNL     1      33.756 -22.320 -18.291  0.00  0.00    +0.187 A 
ATOM      7  C   UNL     1      35.632 -22.415 -17.184  0.00  0.00    +0.217 A 
ATOM      8  C   UNL     1      33.353 -20.932 -20.172  0.00  0.00    +0.024 C 
ATOM      9  C   UNL     1      32.900 -21.845 -19.303  0.00  0.00    +0.042 C 
ENDROOT
BRANCH   5  12
ATOM     10  N   UNL     1      35.366 -18.053 -22.655  0.00  0.00    -0.208 N 
ATOM     11  N   UNL     1      36.591 -17.981 -22.104  0.00  0.00    -0.176 NA
ATOM     12  C   UNL     1      35.256 -19.462 -20.989  0.00  0.00    +0.056 C 
ATOM     13  C   UNL     1      34.529 -18.926 -22.024  0.00  0.00    +0.087 C 
ATOM     14  C   UNL     1      36.517 -18.844 -21.087  0.00  0.00    +0.121 C 
ATOM     15  C   UNL     1      35.050 -17.244 -23.808  0.00  0.00    +0.140 C 
ENDBRANCH   5  12
BRANCH   7  16
ATOM     16  S   UNL     1      37.316 -22.091 -16.685  0.00  0.00    -0.051 S 
BRANCH  16  19
ATOM     17  N   UNL     1      37.790 -25.485 -11.823  0.00  0.00    -0.248 NA
ATOM     18  C   UNL     1      36.655 -23.728 -13.019  0.00  0.00    -0.003 C 
ATOM     19  C   UNL     1      37.449 -23.102 -15.226  0.00  0.00    +0.011 C 
ATOM     20  C   UNL     1      37.665 -24.707 -12.915  0.00  0.00    +0.060 C 
ATOM     21  C   UNL     1      36.554 -22.933 -14.173  0.00  0.00    +0.060 C 
ATOM     22  C   UNL     1      38.446 -24.064 -15.129  0.00  0.00    -0.017 C 
ATOM     23  C   UNL     1      38.547 -24.855 -13.982  0.00  0.00    +0.072 C 
ATOM     24  C   UNL     1      35.768 -23.580 -11.945  0.00  0.00    -0.001 C 
ATOM     25  C   UNL     1      35.894 -24.380 -10.819  0.00  0.00    +0.020 C 
ATOM     26  C   UNL     1      36.914 -25.310 -10.809  0.00  0.00    +0.098 C 
ENDBRANCH  16  19
ENDBRANCH   7  16
TORSDOF 3
ENDMDL
MODEL 9
REMARK VINA RESULT:      -9.7      2.926      9.791
REMARK  Name = 24779724
REMARK  3 active torsions:
REMARK  status: ('A' for Active; 'I' for Inactive)
REMARK    1  A    between atoms: C_5  and  C_12
REMARK    2  A    between atoms: C_7  and  S_16
REMARK    3  A    between atoms: S_16  and  C_19
REMARK                            x       y       z     vdW  Elec       q    Type
REMARK                         _______ _______ _______ _____ _____    ______ ____
ROOT
ATOM      1  N   UNL     1      34.368 -16.754 -23.820  0.00  0.00    -0.186 N 
ATOM      2  N   UNL     1      34.382 -15.449 -23.452  0.00  0.00    -0.162 NA
ATOM      3  N   UNL     1      33.906 -18.620 -24.882  0.00  0.00    -0.126 NA
ATOM      4  N   UNL     1      34.812 -18.900 -23.879  0.00  0.00    -0.120 NA
ATOM      5  C   UNL     1      33.610 -14.690 -24.178  0.00  0.00    +0.104 C 
ATOM      6  C   UNL     1      33.646 -17.330 -24.839  0.00  0.00    +0.187 A 
ATOM      7  C   UNL     1      35.076 -17.775 -23.254  0.00  0.00    +0.217 A 
ATOM      8  C   UNL     1      32.755 -15.182 -25.306  0.00  0.00    +0.024 C 
ATOM      9  C   UNL     1      32.808 -16.488 -25.595  0.00  0.00    +0.042 C 
ENDROOT
BRANCH   5  12
ATOM     10  N   UNL     1      33.066 -11.315 -22.951  0.00  0.00    -0.208 N 
ATOM     11  N   UNL     1      33.856 -10.976 -23.984  0.00  0.00    -0.176 NA
ATOM     12  C   UNL     1      33.542 -13.237 -23.876  0.00  0.00    +0.056 C 
ATOM     13  C   UNL     1      32.847 -12.658 -22.843  0.00  0.00    +0.087 C 
ATOM     14  C   UNL     1      34.144 -12.153 -24.545  0.00  0.00    +0.121 C 
ATOM     15  C   UNL     1      32.539 -10.289 -22.084  0.00  0.00    +0.140 C 
ENDBRANCH   5  12
BRANCH   7  16
ATOM     16  S   UNL     1      36.184 -17.558 -21.870  0.00  0.00    -0.051 S 
BRANCH  16  19
ATOM     17  N   UNL     1      35.081 -22.454 -18.677  0.00  0.00    -0.248 NA
ATOM     18  C   UNL     1      34.254 -20.567 -19.926  0.00  0.00    -0.003 C 
ATOM     19  C   UNL     1      35.843 -19.022 -20.916  0.00  0.00    +0.011 C 
ATOM     20  C   UNL     1      35.309 -21.343 -19.402  0.00  0.00    +0.060 C 
ATOM     21  C   UNL     1      34.529 -19.413 -20.679  0.00  0.00    +0.060 C 
ATOM     22  C   UNL     1      36.887 -19.781 -20.403  0.00  0.00    -0.017 C 
ATOM     23  C   UNL     1      36.614 -20.929 -19.654  0.00  0.00    +0.072 C 
ATOM     24  C   UNL     1      32.941 -20.983 -19.672  0.00  0.00    -0.001 C 
ATOM     25  C   UNL     1      32.702 -22.127 -18.925  0.00  0.00    +0.020 C 
ATOM     26  C   UNL     1      33.799 -22.821 -18.455  0.00  0.00    +0.098 C 
ENDBRANCH  16  19
ENDBRANCH   7  16
TORSDOF 3
ENDMDL
