MODEL 1
REMARK VINA RESULT:     -12.3      0.000      0.000
REMARK  Name = 448407
REMARK  4 active torsions:
REMARK  status: ('A' for Active; 'I' for Inactive)
REMARK    1  A    between atoms: C_1  and  N_8
REMARK    2  A    between atoms: C_2  and  C_23
REMARK    3  A    between atoms: N_22  and  C_25
REMARK    4  A    between atoms: C_25  and  C_28
REMARK                            x       y       z     vdW  Elec       q    Type
REMARK                         _______ _______ _______ _____ _____    ______ ____
ROOT
ATOM      1  C   UNL     1      34.755 -22.138 -18.008  0.00  0.00    +0.090 C 
ATOM      2  C   UNL     1      34.885 -20.624 -19.910  0.00  0.00    +0.055 C 
ATOM      3  C   UNL     1      35.503 -21.313 -18.866  0.00  0.00    +0.023 C 
ATOM      4  C   UNL     1      33.371 -22.254 -18.226  0.00  0.00    +0.018 C 
ATOM      5  C   UNL     1      33.511 -20.751 -20.112  0.00  0.00    +0.005 C 
ATOM      6  C   UNL     1      32.754 -21.566 -19.270  0.00  0.00    +0.002 C 
ENDROOT
BRANCH   1   8
ATOM      7  O   UNL     1      33.817 -24.893 -13.704  0.00  0.00    -0.207 OA
ATOM      8  N   UNL     1      35.371 -22.825 -16.968  0.00  0.00    -0.137 N 
ATOM      9  N   UNL     1      36.530 -22.444 -16.368  0.00  0.00    -0.215 N 
ATOM     10  N   UNL     1      34.574 -23.574 -16.106  0.00  0.00    -0.143 NA
ATOM     11  N   UNL     1      37.315 -22.907 -14.084  0.00  0.00    -0.309 NA
ATOM     12  N   UNL     1      35.809 -24.219 -12.729  0.00  0.00    -0.251 NA
ATOM     13  N   UNL     1      37.825 -23.492 -11.859  0.00  0.00    -0.283 N 
ATOM     14  C   UNL     1      36.535 -22.927 -15.101  0.00  0.00    +0.243 C 
ATOM     15  C   UNL     1      35.253 -23.640 -15.003  0.00  0.00    +0.241 C 
ATOM     16  C   UNL     1      34.892 -24.312 -13.748  0.00  0.00    +0.239 C 
ATOM     17  C   UNL     1      36.935 -23.557 -12.907  0.00  0.00    +0.208 C 
ATOM     18  H   UNL     1      37.244 -21.908 -16.783  0.00  0.00    +0.175 HD
ATOM     19  H   UNL     1      38.674 -23.004 -11.963  0.00  0.00    +0.156 HD
ATOM     20  H   UNL     1      37.612 -23.931 -11.005  0.00  0.00    +0.156 HD
ENDBRANCH   1   8
BRANCH   2  23
ATOM     21  O   UNL     1      36.826 -19.435 -20.470  0.00  0.00    -0.270 OA
ATOM     22  N   UNL     1      35.084 -19.394 -22.001  0.00  0.00    -0.297 N 
ATOM     23  C   UNL     1      35.673 -19.776 -20.790  0.00  0.00    +0.246 C 
ATOM     24  H   UNL     1      34.168 -19.700 -22.189  0.00  0.00    +0.150 HD
BRANCH  22  25
ATOM     25  C   UNL     1      35.748 -18.574 -22.987  0.00  0.00    +0.117 C 
BRANCH  25  28
ATOM     26 CL   UNL     1      33.481 -14.972 -25.975  0.00  0.00    -0.082 Cl
ATOM     27 CL   UNL     1      34.280 -14.138 -20.704  0.00  0.00    -0.082 Cl
ATOM     28  C   UNL     1      35.117 -17.216 -23.106  0.00  0.00    -0.001 C 
ATOM     29  C   UNL     1      35.007 -16.408 -21.980  0.00  0.00    +0.009 C 
ATOM     30  C   UNL     1      34.650 -16.781 -24.341  0.00  0.00    +0.009 C 
ATOM     31  C   UNL     1      34.064 -15.520 -24.452  0.00  0.00    +0.058 C 
ATOM     32  C   UNL     1      34.421 -15.147 -22.091  0.00  0.00    +0.058 C 
ATOM     33  C   UNL     1      33.949 -14.703 -23.327  0.00  0.00    +0.023 C 
ENDBRANCH  25  28
ENDBRANCH  22  25
ENDBRANCH   2  23
TORSDOF 4
ENDMDL
MODEL 2
REMARK VINA RESULT:     -12.3      0.011      1.677
REMARK  Name = 448407
REMARK  4 active torsions:
REMARK  status: ('A' for Active; 'I' for Inactive)
REMARK    1  A    between atoms: C_1  and  N_8
REMARK    2  A    between atoms: C_2  and  C_23
REMARK    3  A    between atoms: N_22  and  C_25
REMARK    4  A    between atoms: C_25  and  C_28
REMARK                            x       y       z     vdW  Elec       q    Type
REMARK                         _______ _______ _______ _____ _____    ______ ____
ROOT
ATOM      1  C   UNL     1      34.753 -22.129 -18.004  0.00  0.00    +0.090 C 
ATOM      2  C   UNL     1      34.880 -20.618 -19.908  0.00  0.00    +0.055 C 
ATOM      3  C   UNL     1      35.500 -21.308 -18.866  0.00  0.00    +0.023 C 
ATOM      4  C   UNL     1      33.368 -22.241 -18.216  0.00  0.00    +0.018 C 
ATOM      5  C   UNL     1      33.505 -20.740 -20.105  0.00  0.00    +0.005 C 
ATOM      6  C   UNL     1      32.749 -21.551 -19.258  0.00  0.00    +0.002 C 
ENDROOT
BRANCH   1   8
ATOM      7  O   UNL     1      33.821 -24.908 -13.713  0.00  0.00    -0.207 OA
ATOM      8  N   UNL     1      35.370 -22.818 -16.966  0.00  0.00    -0.137 N 
ATOM      9  N   UNL     1      36.527 -22.434 -16.363  0.00  0.00    -0.215 N 
ATOM     10  N   UNL     1      34.576 -23.575 -16.109  0.00  0.00    -0.143 NA
ATOM     11  N   UNL     1      37.310 -22.903 -14.079  0.00  0.00    -0.309 NA
ATOM     12  N   UNL     1      35.809 -24.228 -12.733  0.00  0.00    -0.251 NA
ATOM     13  N   UNL     1      37.820 -23.495 -11.856  0.00  0.00    -0.283 N 
ATOM     14  C   UNL     1      36.532 -22.922 -15.097  0.00  0.00    +0.243 C 
ATOM     15  C   UNL     1      35.253 -23.643 -15.005  0.00  0.00    +0.241 C 
ATOM     16  C   UNL     1      34.893 -24.321 -13.753  0.00  0.00    +0.239 C 
ATOM     17  C   UNL     1      36.932 -23.560 -12.906  0.00  0.00    +0.208 C 
ATOM     18  H   UNL     1      37.239 -21.893 -16.774  0.00  0.00    +0.175 HD
ATOM     19  H   UNL     1      38.667 -23.002 -11.957  0.00  0.00    +0.156 HD
ATOM     20  H   UNL     1      37.607 -23.939 -11.004  0.00  0.00    +0.156 HD
ENDBRANCH   1   8
BRANCH   2  23
ATOM     21  O   UNL     1      36.824 -19.437 -20.478  0.00  0.00    -0.270 OA
ATOM     22  N   UNL     1      35.074 -19.388 -21.999  0.00  0.00    -0.297 N 
ATOM     23  C   UNL     1      35.668 -19.773 -20.792  0.00  0.00    +0.246 C 
ATOM     24  H   UNL     1      34.156 -19.689 -22.183  0.00  0.00    +0.150 HD
BRANCH  22  25
ATOM     25  C   UNL     1      35.737 -18.571 -22.989  0.00  0.00    +0.117 C 
BRANCH  25  28
ATOM     26 CL   UNL     1      34.273 -14.138 -20.698  0.00  0.00    -0.082 Cl
ATOM     27 CL   UNL     1      33.490 -14.954 -25.975  0.00  0.00    -0.082 Cl
ATOM     28  C   UNL     1      35.110 -17.211 -23.107  0.00  0.00    -0.001 C 
ATOM     29  C   UNL     1      34.648 -16.771 -24.342  0.00  0.00    +0.009 C 
ATOM     30  C   UNL     1      34.998 -16.406 -21.979  0.00  0.00    +0.009 C 
ATOM     31  C   UNL     1      34.416 -15.143 -22.088  0.00  0.00    +0.058 C 
ATOM     32  C   UNL     1      34.066 -15.508 -24.451  0.00  0.00    +0.058 C 
ATOM     33  C   UNL     1      33.950 -14.693 -23.324  0.00  0.00    +0.023 C 
ENDBRANCH  25  28
ENDBRANCH  22  25
ENDBRANCH   2  23
TORSDOF 4
ENDMDL
MODEL 3
REMARK VINA RESULT:     -12.2      4.704     10.390
REMARK  Name = 448407
REMARK  4 active torsions:
REMARK  status: ('A' for Active; 'I' for Inactive)
REMARK    1  A    between atoms: C_1  and  N_8
REMARK    2  A    between atoms: C_2  and  C_23
REMARK    3  A    between atoms: N_22  and  C_25
REMARK    4  A    between atoms: C_25  and  C_28
REMARK                            x       y       z     vdW  Elec       q    Type
REMARK                         _______ _______ _______ _____ _____    ______ ____
ROOT
ATOM      1  C   UNL     1      35.663 -18.327 -21.490  0.00  0.00    +0.090 C 
ATOM      2  C   UNL     1      34.799 -20.223 -20.231  0.00  0.00    +0.055 C 
ATOM      3  C   UNL     1      34.582 -19.094 -21.021  0.00  0.00    +0.023 C 
ATOM      4  C   UNL     1      36.967 -18.725 -21.147  0.00  0.00    +0.018 C 
ATOM      5  C   UNL     1      36.099 -20.604 -19.900  0.00  0.00    +0.005 C 
ATOM      6  C   UNL     1      37.183 -19.854 -20.358  0.00  0.00    +0.002 C 
ENDROOT
BRANCH   1   8
ATOM      7  O   UNL     1      33.492 -13.607 -21.507  0.00  0.00    -0.207 OA
ATOM      8  N   UNL     1      35.447 -17.202 -22.278  0.00  0.00    -0.137 N 
ATOM      9  N   UNL     1      35.193 -17.230 -23.613  0.00  0.00    -0.215 N 
ATOM     10  N   UNL     1      34.903 -16.069 -21.679  0.00  0.00    -0.143 NA
ATOM     11  N   UNL     1      33.960 -15.605 -24.987  0.00  0.00    -0.309 NA
ATOM     12  N   UNL     1      33.087 -13.702 -23.787  0.00  0.00    -0.251 NA
ATOM     13  N   UNL     1      32.742 -13.901 -26.066  0.00  0.00    -0.283 N 
ATOM     14  C   UNL     1      34.477 -16.124 -23.936  0.00  0.00    +0.243 C 
ATOM     15  C   UNL     1      34.330 -15.427 -22.649  0.00  0.00    +0.241 C 
ATOM     16  C   UNL     1      33.595 -14.156 -22.594  0.00  0.00    +0.239 C 
ATOM     17  C   UNL     1      33.268 -14.395 -24.894  0.00  0.00    +0.208 C 
ATOM     18  H   UNL     1      35.478 -17.934 -24.240  0.00  0.00    +0.175 HD
ATOM     19  H   UNL     1      32.861 -14.397 -26.908  0.00  0.00    +0.156 HD
ATOM     20  H   UNL     1      32.244 -13.052 -26.062  0.00  0.00    +0.156 HD
ENDBRANCH   1   8
BRANCH   2  23
ATOM     21  O   UNL     1      32.535 -20.834 -20.237  0.00  0.00    -0.270 OA
ATOM     22  N   UNL     1      33.930 -21.960 -18.764  0.00  0.00    -0.297 N 
ATOM     23  C   UNL     1      33.670 -21.006 -19.756  0.00  0.00    +0.246 C 
ATOM     24  H   UNL     1      34.851 -22.042 -18.428  0.00  0.00    +0.150 HD
BRANCH  22  25
ATOM     25  C   UNL     1      32.918 -22.828 -18.207  0.00  0.00    +0.117 C 
BRANCH  25  28
ATOM     26 CL   UNL     1      30.860 -23.682 -13.509  0.00  0.00    -0.082 Cl
ATOM     27 CL   UNL     1      36.201 -23.367 -14.211  0.00  0.00    -0.082 Cl
ATOM     28  C   UNL     1      33.125 -23.063 -16.739  0.00  0.00    -0.001 C 
ATOM     29  C   UNL     1      34.416 -23.101 -16.223  0.00  0.00    +0.009 C 
ATOM     30  C   UNL     1      32.024 -23.241 -15.909  0.00  0.00    +0.009 C 
ATOM     31  C   UNL     1      32.216 -23.460 -14.545  0.00  0.00    +0.058 C 
ATOM     32  C   UNL     1      34.608 -23.319 -14.860  0.00  0.00    +0.058 C 
ATOM     33  C   UNL     1      33.508 -23.499 -14.020  0.00  0.00    +0.023 C 
ENDBRANCH  25  28
ENDBRANCH  22  25
ENDBRANCH   2  23
TORSDOF 4
ENDMDL
MODEL 4
REMARK VINA RESULT:     -12.2      4.697     10.449
REMARK  Name = 448407
REMARK  4 active torsions:
REMARK  status: ('A' for Active; 'I' for Inactive)
REMARK    1  A    between atoms: C_1  and  N_8
REMARK    2  A    between atoms: C_2  and  C_23
REMARK    3  A    between atoms: N_22  and  C_25
REMARK    4  A    between atoms: C_25  and  C_28
REMARK                            x       y       z     vdW  Elec       q    Type
REMARK                         _______ _______ _______ _____ _____    ______ ____
ROOT
ATOM      1  C   UNL     1      35.622 -18.801 -21.458  0.00  0.00    +0.090 C 
ATOM      2  C   UNL     1      34.673 -20.518 -20.017  0.00  0.00    +0.055 C 
ATOM      3  C   UNL     1      34.509 -19.495 -20.951  0.00  0.00    +0.023 C 
ATOM      4  C   UNL     1      36.902 -19.163 -21.004  0.00  0.00    +0.018 C 
ATOM      5  C   UNL     1      35.950 -20.864 -19.577  0.00  0.00    +0.005 C 
ATOM      6  C   UNL     1      37.065 -20.186 -20.070  0.00  0.00    +0.002 C 
ENDROOT
BRANCH   1   8
ATOM      7  O   UNL     1      34.393 -13.779 -21.967  0.00  0.00    -0.207 OA
ATOM      8  N   UNL     1      35.460 -17.783 -22.390  0.00  0.00    -0.137 N 
ATOM      9  N   UNL     1      34.939 -17.948 -23.634  0.00  0.00    -0.215 N 
ATOM     10  N   UNL     1      35.266 -16.484 -21.924  0.00  0.00    -0.143 NA
ATOM     11  N   UNL     1      33.771 -16.312 -25.052  0.00  0.00    -0.309 NA
ATOM     12  N   UNL     1      33.523 -14.114 -24.089  0.00  0.00    -0.251 NA
ATOM     13  N   UNL     1      32.692 -14.561 -26.201  0.00  0.00    -0.283 N 
ATOM     14  C   UNL     1      34.387 -16.773 -24.027  0.00  0.00    +0.243 C 
ATOM     15  C   UNL     1      34.635 -15.881 -22.883  0.00  0.00    +0.241 C 
ATOM     16  C   UNL     1      34.171 -14.488 -22.937  0.00  0.00    +0.239 C 
ATOM     17  C   UNL     1      33.346 -14.982 -25.065  0.00  0.00    +0.208 C 
ATOM     18  H   UNL     1      34.957 -18.779 -24.161  0.00  0.00    +0.175 HD
ATOM     19  H   UNL     1      32.545 -15.188 -26.946  0.00  0.00    +0.156 HD
ATOM     20  H   UNL     1      32.369 -13.633 -26.267  0.00  0.00    +0.156 HD
ENDBRANCH   1   8
BRANCH   2  23
ATOM     21  O   UNL     1      32.408 -21.123 -20.070  0.00  0.00    -0.270 OA
ATOM     22  N   UNL     1      33.705 -22.032 -18.375  0.00  0.00    -0.297 N 
ATOM     23  C   UNL     1      33.511 -21.226 -19.504  0.00  0.00    +0.246 C 
ATOM     24  H   UNL     1      34.604 -22.066 -17.977  0.00  0.00    +0.150 HD
BRANCH  22  25
ATOM     25  C   UNL     1      32.655 -22.813 -17.763  0.00  0.00    +0.117 C 
BRANCH  25  28
ATOM     26 CL   UNL     1      36.280 -23.786 -14.163  0.00  0.00    -0.082 Cl
ATOM     27 CL   UNL     1      31.020 -24.109 -12.999  0.00  0.00    -0.082 Cl
ATOM     28  C   UNL     1      32.991 -23.197 -16.350  0.00  0.00    -0.001 C 
ATOM     29  C   UNL     1      31.967 -23.444 -15.442  0.00  0.00    +0.009 C 
ATOM     30  C   UNL     1      34.322 -23.300 -15.964  0.00  0.00    +0.009 C 
ATOM     31  C   UNL     1      34.635 -23.656 -14.652  0.00  0.00    +0.058 C 
ATOM     32  C   UNL     1      32.279 -23.800 -14.131  0.00  0.00    +0.058 C 
ATOM     33  C   UNL     1      33.613 -23.905 -13.734  0.00  0.00    +0.023 C 
ENDBRANCH  25  28
ENDBRANCH  22  25
ENDBRANCH   2  23
TORSDOF 4
ENDMDL
MODEL 5
REMARK VINA RESULT:     -12.0      2.587      3.336
REMARK  Name = 448407
REMARK  4 active torsions:
REMARK  status: ('A' for Active; 'I' for Inactive)
REMARK    1  A    between atoms: C_1  and  N_8
REMARK    2  A    between atoms: C_2  and  C_23
REMARK    3  A    between atoms: N_22  and  C_25
REMARK    4  A    between atoms: C_25  and  C_28
REMARK                            x       y       z     vdW  Elec       q    Type
REMARK                         _______ _______ _______ _____ _____    ______ ____
ROOT
ATOM      1  C   UNL     1      34.376 -22.034 -18.322  0.00  0.00    +0.090 C 
ATOM      2  C   UNL     1      34.816 -20.630 -20.261  0.00  0.00    +0.055 C 
ATOM      3  C   UNL     1      33.936 -21.392 -19.493  0.00  0.00    +0.023 C 
ATOM      4  C   UNL     1      35.722 -21.889 -17.942  0.00  0.00    +0.018 C 
ATOM      5  C   UNL     1      36.148 -20.497 -19.870  0.00  0.00    +0.005 C 
ATOM      6  C   UNL     1      36.601 -21.127 -18.711  0.00  0.00    +0.002 C 
ENDROOT
BRANCH   1   8
ATOM      7  O   UNL     1      29.425 -22.394 -16.787  0.00  0.00    -0.207 OA
ATOM      8  N   UNL     1      33.499 -22.793 -17.555  0.00  0.00    -0.137 N 
ATOM      9  N   UNL     1      33.819 -23.387 -16.375  0.00  0.00    -0.215 N 
ATOM     10  N   UNL     1      32.138 -22.509 -17.630  0.00  0.00    -0.143 NA
ATOM     11  N   UNL     1      32.350 -23.974 -14.491  0.00  0.00    -0.309 NA
ATOM     12  N   UNL     1      30.023 -23.411 -14.791  0.00  0.00    -0.251 NA
ATOM     13  N   UNL     1      30.733 -24.427 -12.839  0.00  0.00    -0.283 N 
ATOM     14  C   UNL     1      32.686 -23.513 -15.639  0.00  0.00    +0.243 C 
ATOM     15  C   UNL     1      31.650 -22.931 -16.505  0.00  0.00    +0.241 C 
ATOM     16  C   UNL     1      30.258 -22.887 -16.040  0.00  0.00    +0.239 C 
ATOM     17  C   UNL     1      31.016 -23.913 -14.084  0.00  0.00    +0.208 C 
ATOM     18  H   UNL     1      34.719 -23.676 -16.100  0.00  0.00    +0.175 HD
ATOM     19  H   UNL     1      31.454 -24.809 -12.288  0.00  0.00    +0.156 HD
ATOM     20  H   UNL     1      29.809 -24.412 -12.499  0.00  0.00    +0.156 HD
ENDBRANCH   1   8
BRANCH   2  23
ATOM     21  O   UNL     1      33.126 -19.885 -21.705  0.00  0.00    -0.270 OA
ATOM     22  N   UNL     1      35.316 -19.432 -22.320  0.00  0.00    -0.297 N 
ATOM     23  C   UNL     1      34.344 -19.971 -21.469  0.00  0.00    +0.246 C 
ATOM     24  H   UNL     1      36.262 -19.538 -22.072  0.00  0.00    +0.150 HD
BRANCH  22  25
ATOM     25  C   UNL     1      35.004 -18.730 -23.543  0.00  0.00    +0.117 C 
BRANCH  25  28
ATOM     26 CL   UNL     1      33.408 -14.149 -25.418  0.00  0.00    -0.082 Cl
ATOM     27 CL   UNL     1      34.579 -14.780 -20.188  0.00  0.00    -0.082 Cl
ATOM     28  C   UNL     1      34.663 -17.288 -23.293  0.00  0.00    -0.001 C 
ATOM     29  C   UNL     1      34.768 -16.770 -22.007  0.00  0.00    +0.009 C 
ATOM     30  C   UNL     1      34.245 -16.488 -24.349  0.00  0.00    +0.009 C 
ATOM     31  C   UNL     1      33.927 -15.149 -24.117  0.00  0.00    +0.058 C 
ATOM     32  C   UNL     1      34.452 -15.432 -21.775  0.00  0.00    +0.058 C 
ATOM     33  C   UNL     1      34.030 -14.621 -22.830  0.00  0.00    +0.023 C 
ENDBRANCH  25  28
ENDBRANCH  22  25
ENDBRANCH   2  23
TORSDOF 4
ENDMDL
MODEL 6
REMARK VINA RESULT:     -11.9      1.527      1.873
REMARK  Name = 448407
REMARK  4 active torsions:
REMARK  status: ('A' for Active; 'I' for Inactive)
REMARK    1  A    between atoms: C_1  and  N_8
REMARK    2  A    between atoms: C_2  and  C_23
REMARK    3  A    between atoms: N_22  and  C_25
REMARK    4  A    between atoms: C_25  and  C_28
REMARK                            x       y       z     vdW  Elec       q    Type
REMARK                         _______ _______ _______ _____ _____    ______ ____
ROOT
ATOM      1  C   UNL     1      34.610 -22.279 -17.522  0.00  0.00    +0.090 C 
ATOM      2  C   UNL     1      34.869 -20.935 -19.536  0.00  0.00    +0.055 C 
ATOM      3  C   UNL     1      35.404 -21.489 -18.372  0.00  0.00    +0.023 C 
ATOM      4  C   UNL     1      33.267 -22.500 -17.872  0.00  0.00    +0.018 C 
ATOM      5  C   UNL     1      33.534 -21.165 -19.868  0.00  0.00    +0.005 C 
ATOM      6  C   UNL     1      32.733 -21.947 -19.036  0.00  0.00    +0.002 C 
ENDROOT
BRANCH   1   8
ATOM      7  O   UNL     1      39.069 -23.585 -15.199  0.00  0.00    -0.207 OA
ATOM      8  N   UNL     1      35.143 -22.832 -16.363  0.00  0.00    -0.137 N 
ATOM      9  N   UNL     1      34.578 -23.850 -15.661  0.00  0.00    -0.215 N 
ATOM     10  N   UNL     1      36.523 -22.795 -16.186  0.00  0.00    -0.143 NA
ATOM     11  N   UNL     1      35.660 -25.517 -14.213  0.00  0.00    -0.309 NA
ATOM     12  N   UNL     1      38.057 -25.305 -14.020  0.00  0.00    -0.251 NA
ATOM     13  N   UNL     1      36.941 -26.985 -12.888  0.00  0.00    -0.283 N 
ATOM     14  C   UNL     1      35.561 -24.513 -15.003  0.00  0.00    +0.243 C 
ATOM     15  C   UNL     1      36.780 -23.782 -15.386  0.00  0.00    +0.241 C 
ATOM     16  C   UNL     1      38.080 -24.216 -14.857  0.00  0.00    +0.239 C 
ATOM     17  C   UNL     1      36.915 -25.899 -13.732  0.00  0.00    +0.208 C 
ATOM     18  H   UNL     1      33.619 -24.069 -15.635  0.00  0.00    +0.175 HD
ATOM     19  H   UNL     1      36.103 -27.449 -12.655  0.00  0.00    +0.156 HD
ATOM     20  H   UNL     1      37.797 -27.300 -12.517  0.00  0.00    +0.156 HD
ENDBRANCH   1   8
BRANCH   2  23
ATOM     21  O   UNL     1      36.876 -19.853 -20.083  0.00  0.00    -0.270 OA
ATOM     22  N   UNL     1      35.136 -19.686 -21.608  0.00  0.00    -0.297 N 
ATOM     23  C   UNL     1      35.704 -20.121 -20.404  0.00  0.00    +0.246 C 
ATOM     24  H   UNL     1      34.203 -19.935 -21.798  0.00  0.00    +0.150 HD
BRANCH  22  25
ATOM     25  C   UNL     1      35.845 -18.891 -22.583  0.00  0.00    +0.117 C 
BRANCH  25  28
ATOM     26 CL   UNL     1      33.581 -15.454 -25.761  0.00  0.00    -0.082 Cl
ATOM     27 CL   UNL     1      34.372 -14.342 -20.540  0.00  0.00    -0.082 Cl
ATOM     28  C   UNL     1      35.214 -17.542 -22.775  0.00  0.00    -0.001 C 
ATOM     29  C   UNL     1      35.101 -16.675 -21.693  0.00  0.00    +0.009 C 
ATOM     30  C   UNL     1      34.749 -17.173 -24.031  0.00  0.00    +0.009 C 
ATOM     31  C   UNL     1      34.162 -15.920 -24.210  0.00  0.00    +0.058 C 
ATOM     32  C   UNL     1      34.516 -15.423 -21.871  0.00  0.00    +0.058 C 
ATOM     33  C   UNL     1      34.045 -15.044 -23.130  0.00  0.00    +0.023 C 
ENDBRANCH  25  28
ENDBRANCH  22  25
ENDBRANCH   2  23
TORSDOF 4
ENDMDL
MODEL 7
REMARK VINA RESULT:     -10.8      4.316     10.457
REMARK  Name = 448407
REMARK  4 active torsions:
REMARK  status: ('A' for Active; 'I' for Inactive)
REMARK    1  A    between atoms: C_1  and  N_8
REMARK    2  A    between atoms: C_2  and  C_23
REMARK    3  A    between atoms: N_22  and  C_25
REMARK    4  A    between atoms: C_25  and  C_28
REMARK                            x       y       z     vdW  Elec       q    Type
REMARK                         _______ _______ _______ _____ _____    ______ ____
ROOT
ATOM      1  C   UNL     1      34.442 -19.564 -21.167  0.00  0.00    +0.090 C 
ATOM      2  C   UNL     1      35.248 -21.092 -19.451  0.00  0.00    +0.055 C 
ATOM      3  C   UNL     1      35.497 -20.128 -20.429  0.00  0.00    +0.023 C 
ATOM      4  C   UNL     1      33.131 -19.993 -20.898  0.00  0.00    +0.018 C 
ATOM      5  C   UNL     1      33.941 -21.505 -19.197  0.00  0.00    +0.005 C 
ATOM      6  C   UNL     1      32.882 -20.955 -19.920  0.00  0.00    +0.002 C 
ENDROOT
BRANCH   1   8
ATOM      7  O   UNL     1      34.878 -14.447 -21.952  0.00  0.00    -0.207 OA
ATOM      8  N   UNL     1      34.690 -18.603 -22.141  0.00  0.00    -0.137 N 
ATOM      9  N   UNL     1      34.261 -18.677 -23.428  0.00  0.00    -0.215 N 
ATOM     10  N   UNL     1      34.864 -17.282 -21.737  0.00  0.00    -0.143 NA
ATOM     11  N   UNL     1      33.792 -16.854 -25.011  0.00  0.00    -0.309 NA
ATOM     12  N   UNL     1      34.148 -14.629 -24.145  0.00  0.00    -0.251 NA
ATOM     13  N   UNL     1      33.418 -14.930 -26.319  0.00  0.00    -0.283 N 
ATOM     14  C   UNL     1      34.138 -17.416 -23.912  0.00  0.00    +0.243 C 
ATOM     15  C   UNL     1      34.542 -16.575 -22.775  0.00  0.00    +0.241 C 
ATOM     16  C   UNL     1      34.539 -15.113 -22.919  0.00  0.00    +0.239 C 
ATOM     17  C   UNL     1      33.802 -15.460 -25.108  0.00  0.00    +0.208 C 
ATOM     18  H   UNL     1      34.070 -19.505 -23.925  0.00  0.00    +0.175 HD
ATOM     19  H   UNL     1      33.154 -15.527 -27.057  0.00  0.00    +0.156 HD
ATOM     20  H   UNL     1      33.405 -13.954 -26.447  0.00  0.00    +0.156 HD
ENDBRANCH   1   8
BRANCH   2  23
ATOM     21  O   UNL     1      37.361 -22.094 -19.281  0.00  0.00    -0.270 OA
ATOM     22  N   UNL     1      36.225 -21.680 -17.301  0.00  0.00    -0.297 N 
ATOM     23  C   UNL     1      36.351 -21.663 -18.696  0.00  0.00    +0.246 C 
ATOM     24  H   UNL     1      35.398 -21.324 -16.905  0.00  0.00    +0.150 HD
BRANCH  22  25
ATOM     25  C   UNL     1      37.243 -22.193 -16.414  0.00  0.00    +0.117 C 
BRANCH  25  28
ATOM     26 CL   UNL     1      38.027 -25.779 -12.731  0.00  0.00    -0.082 Cl
ATOM     27 CL   UNL     1      33.067 -24.008 -13.904  0.00  0.00    -0.082 Cl
ATOM     28  C   UNL     1      36.670 -23.106 -15.368  0.00  0.00    -0.001 C 
ATOM     29  C   UNL     1      35.297 -23.126 -15.151  0.00  0.00    +0.009 C 
ATOM     30  C   UNL     1      37.518 -23.920 -14.627  0.00  0.00    +0.009 C 
ATOM     31  C   UNL     1      36.986 -24.768 -13.655  0.00  0.00    +0.058 C 
ATOM     32  C   UNL     1      34.765 -23.974 -14.180  0.00  0.00    +0.058 C 
ATOM     33  C   UNL     1      35.609 -24.794 -13.431  0.00  0.00    +0.023 C 
ENDBRANCH  25  28
ENDBRANCH  22  25
ENDBRANCH   2  23
TORSDOF 4
ENDMDL
MODEL 8
REMARK VINA RESULT:     -10.8      5.711     10.872
REMARK  Name = 448407
REMARK  4 active torsions:
REMARK  status: ('A' for Active; 'I' for Inactive)
REMARK    1  A    between atoms: C_1  and  N_8
REMARK    2  A    between atoms: C_2  and  C_23
REMARK    3  A    between atoms: N_22  and  C_25
REMARK    4  A    between atoms: C_25  and  C_28
REMARK                            x       y       z     vdW  Elec       q    Type
REMARK                         _______ _______ _______ _____ _____    ______ ____
ROOT
ATOM      1  C   UNL     1      33.802 -14.687 -23.812  0.00  0.00    +0.090 C 
ATOM      2  C   UNL     1      34.580 -16.993 -23.851  0.00  0.00    +0.055 C 
ATOM      3  C   UNL     1      34.550 -15.735 -23.249  0.00  0.00    +0.023 C 
ATOM      4  C   UNL     1      33.084 -14.935 -24.995  0.00  0.00    +0.018 C 
ATOM      5  C   UNL     1      33.862 -17.222 -25.025  0.00  0.00    +0.005 C 
ATOM      6  C   UNL     1      33.114 -16.192 -25.597  0.00  0.00    +0.002 C 
ENDROOT
BRANCH   1   8
ATOM      7  O   UNL     1      31.034 -11.668 -20.614  0.00  0.00    -0.207 OA
ATOM      8  N   UNL     1      33.770 -13.433 -23.211  0.00  0.00    -0.137 N 
ATOM      9  N   UNL     1      34.183 -12.281 -23.802  0.00  0.00    -0.215 N 
ATOM     10  N   UNL     1      32.803 -13.189 -22.239  0.00  0.00    -0.143 NA
ATOM     11  N   UNL     1      33.455  -9.972 -23.368  0.00  0.00    -0.309 NA
ATOM     12  N   UNL     1      31.774  -9.733 -21.654  0.00  0.00    -0.251 NA
ATOM     13  N   UNL     1      32.585  -7.870 -22.758  0.00  0.00    -0.283 N 
ATOM     14  C   UNL     1      33.506 -11.247 -23.244  0.00  0.00    +0.243 C 
ATOM     15  C   UNL     1      32.641 -11.902 -22.251  0.00  0.00    +0.241 C 
ATOM     16  C   UNL     1      31.739 -11.088 -21.427  0.00  0.00    +0.239 C 
ATOM     17  C   UNL     1      32.583  -9.233 -22.566  0.00  0.00    +0.208 C 
ATOM     18  H   UNL     1      34.858 -12.209 -24.515  0.00  0.00    +0.175 HD
ATOM     19  H   UNL     1      33.179  -7.468 -23.433  0.00  0.00    +0.156 HD
ATOM     20  H   UNL     1      31.991  -7.296 -22.221  0.00  0.00    +0.156 HD
ENDBRANCH   1   8
BRANCH   2  23
ATOM     21  O   UNL     1      35.338 -19.209 -23.747  0.00  0.00    -0.270 OA
ATOM     22  N   UNL     1      36.132 -17.744 -22.133  0.00  0.00    -0.297 N 
ATOM     23  C   UNL     1      35.358 -18.067 -23.255  0.00  0.00    +0.246 C 
ATOM     24  H   UNL     1      36.099 -16.820 -21.796  0.00  0.00    +0.150 HD
BRANCH  22  25
ATOM     25  C   UNL     1      36.974 -18.695 -21.445  0.00  0.00    +0.117 C 
BRANCH  25  28
ATOM     26 CL   UNL     1      36.855 -22.194 -17.600  0.00  0.00    -0.082 Cl
ATOM     27 CL   UNL     1      32.367 -20.789 -20.248  0.00  0.00    -0.082 Cl
ATOM     28  C   UNL     1      36.175 -19.640 -20.593  0.00  0.00    -0.001 C 
ATOM     29  C   UNL     1      34.805 -19.758 -20.796  0.00  0.00    +0.009 C 
ATOM     30  C   UNL     1      36.815 -20.387 -19.611  0.00  0.00    +0.009 C 
ATOM     31  C   UNL     1      36.073 -21.264 -18.819  0.00  0.00    +0.058 C 
ATOM     32  C   UNL     1      34.064 -20.635 -20.006  0.00  0.00    +0.058 C 
ATOM     33  C   UNL     1      34.697 -21.389 -19.016  0.00  0.00    +0.023 C 
ENDBRANCH  25  28
ENDBRANCH  22  25
ENDBRANCH   2  23
TORSDOF 4
ENDMDL
MODEL 9
REMARK VINA RESULT:     -10.8      4.561     10.238
REMARK  Name = 448407
REMARK  4 active torsions:
REMARK  status: ('A' for Active; 'I' for Inactive)
REMARK    1  A    between atoms: C_1  and  N_8
REMARK    2  A    between atoms: C_2  and  C_23
REMARK    3  A    between atoms: N_22  and  C_25
REMARK    4  A    between atoms: C_25  and  C_28
REMARK                            x       y       z     vdW  Elec       q    Type
REMARK                         _______ _______ _______ _____ _____    ______ ____
ROOT
ATOM      1  C   UNL     1      35.206 -19.198 -20.754  0.00  0.00    +0.090 C 
ATOM      2  C   UNL     1      34.966 -21.314 -19.574  0.00  0.00    +0.055 C 
ATOM      3  C   UNL     1      34.397 -20.221 -20.228  0.00  0.00    +0.023 C 
ATOM      4  C   UNL     1      36.600 -19.303 -20.608  0.00  0.00    +0.018 C 
ATOM      5  C   UNL     1      36.351 -21.402 -19.438  0.00  0.00    +0.005 C 
ATOM      6  C   UNL     1      37.168 -20.397 -19.955  0.00  0.00    +0.002 C 
ENDROOT
BRANCH   1   8
ATOM      7  O   UNL     1      34.534 -17.031 -25.428  0.00  0.00    -0.207 OA
ATOM      8  N   UNL     1      34.640 -18.109 -21.407  0.00  0.00    -0.137 N 
ATOM      9  N   UNL     1      34.599 -16.845 -20.909  0.00  0.00    -0.215 N 
ATOM     10  N   UNL     1      34.617 -18.110 -22.799  0.00  0.00    -0.143 NA
ATOM     11  N   UNL     1      34.497 -14.708 -22.122  0.00  0.00    -0.309 NA
ATOM     12  N   UNL     1      34.465 -14.895 -24.528  0.00  0.00    -0.251 NA
ATOM     13  N   UNL     1      34.400 -12.814 -23.521  0.00  0.00    -0.283 N 
ATOM     14  C   UNL     1      34.549 -15.977 -21.950  0.00  0.00    +0.243 C 
ATOM     15  C   UNL     1      34.563 -16.857 -23.129  0.00  0.00    +0.241 C 
ATOM     16  C   UNL     1      34.518 -16.268 -24.473  0.00  0.00    +0.239 C 
ATOM     17  C   UNL     1      34.456 -14.186 -23.417  0.00  0.00    +0.208 C 
ATOM     18  H   UNL     1      34.605 -16.600 -19.956  0.00  0.00    +0.175 HD
ATOM     19  H   UNL     1      34.393 -12.258 -22.708  0.00  0.00    +0.156 HD
ATOM     20  H   UNL     1      34.370 -12.389 -24.408  0.00  0.00    +0.156 HD
ENDBRANCH   1   8
BRANCH   2  23
ATOM     21  O   UNL     1      34.197 -23.527 -19.471  0.00  0.00    -0.270 OA
ATOM     22  N   UNL     1      33.234 -22.004 -18.009  0.00  0.00    -0.297 N 
ATOM     23  C   UNL     1      34.115 -22.364 -19.037  0.00  0.00    +0.246 C 
ATOM     24  H   UNL     1      33.222 -21.066 -17.715  0.00  0.00    +0.150 HD
BRANCH  22  25
ATOM     25  C   UNL     1      32.343 -22.938 -17.359  0.00  0.00    +0.117 C 
BRANCH  25  28
ATOM     26 CL   UNL     1      36.279 -23.177 -13.970  0.00  0.00    -0.082 Cl
ATOM     27 CL   UNL     1      31.400 -25.123 -12.736  0.00  0.00    -0.082 Cl
ATOM     28  C   UNL     1      32.848 -23.347 -16.006  0.00  0.00    -0.001 C 
ATOM     29  C   UNL     1      31.987 -23.970 -15.110  0.00  0.00    +0.009 C 
ATOM     30  C   UNL     1      34.172 -23.100 -15.663  0.00  0.00    +0.009 C 
ATOM     31  C   UNL     1      34.642 -23.480 -14.405  0.00  0.00    +0.058 C 
ATOM     32  C   UNL     1      32.457 -24.351 -13.853  0.00  0.00    +0.058 C 
ATOM     33  C   UNL     1      33.784 -24.105 -13.500  0.00  0.00    +0.023 C 
ENDBRANCH  25  28
ENDBRANCH  22  25
ENDBRANCH   2  23
TORSDOF 4
ENDMDL
