MODEL 1
REMARK VINA RESULT:     -12.4      0.000      0.000
REMARK  Name = 25023705
REMARK  6 active torsions:
REMARK  status: ('A' for Active; 'I' for Inactive)
REMARK    1  A    between atoms: C_1  and  C_8
REMARK    2  A    between atoms: C_1  and  C_20
REMARK    3  A    between atoms: C_20  and  N_22
REMARK    4  A    between atoms: C_23  and  C_25
REMARK    5  A    between atoms: C_30  and  O_31
REMARK    6  A    between atoms: O_31  and  C_32
REMARK                            x       y       z     vdW  Elec       q    Type
REMARK                         _______ _______ _______ _____ _____    ______ ____
ROOT
ATOM      1  C   UNL     1      32.494 -23.874 -14.645  0.00  0.00    +0.066 C 
ATOM      2  C   UNL     1      32.001 -22.412 -14.517  0.00  0.00    +0.009 C 
ATOM      3  C   UNL     1      31.394 -24.764 -14.016  0.00  0.00    +0.009 C 
ENDROOT
BRANCH   1   8
ATOM      4  N   UNL     1      34.924 -24.258 -14.759  0.00  0.00    -0.347 NA
ATOM      5  N   UNL     1      37.197 -24.633 -14.997  0.00  0.00    -0.266 NA
ATOM      6  N   UNL     1      38.680 -24.620 -13.100  0.00  0.00    -0.316 NA
ATOM      7  N   UNL     1      39.498 -25.015 -15.259  0.00  0.00    -0.283 N 
ATOM      8  C   UNL     1      33.866 -23.995 -13.955  0.00  0.00    +0.122 C 
ATOM      9  C   UNL     1      33.952 -23.835 -12.589  0.00  0.00    +0.026 C 
ATOM     10  C   UNL     1      35.207 -23.954 -12.017  0.00  0.00    +0.001 C 
ATOM     11  C   UNL     1      36.143 -24.374 -14.214  0.00  0.00    +0.137 C 
ATOM     12  C   UNL     1      36.315 -24.226 -12.833  0.00  0.00    +0.199 C 
ATOM     13  C   UNL     1      37.608 -24.359 -12.333  0.00  0.00    +0.187 C 
ATOM     14  C   UNL     1      38.405 -24.742 -14.407  0.00  0.00    +0.207 C 
ATOM     15  H   UNL     1      39.353 -25.116 -16.227  0.00  0.00    +0.156 HD
ATOM     16  H   UNL     1      40.404 -25.106 -14.883  0.00  0.00    +0.156 HD
ATOM     17  N   UNL     1      37.835 -24.218 -10.942  0.00  0.00    -0.334 N 
ATOM     18  H   UNL     1      38.746 -24.311 -10.580  0.00  0.00    +0.144 HD
ATOM     19  H   UNL     1      37.082 -24.027 -10.337  0.00  0.00    +0.144 HD
ENDBRANCH   1   8
BRANCH   1  20
ATOM     20  C   UNL     1      32.602 -24.218 -16.158  0.00  0.00    +0.096 C 
BRANCH  20  22
ATOM     21  O   UNL     1      33.589 -24.446 -18.844  0.00  0.00    -0.270 OA
ATOM     22  N   UNL     1      33.173 -23.164 -16.956  0.00  0.00    -0.300 N 
ATOM     23  C   UNL     1      33.626 -23.370 -18.253  0.00  0.00    +0.246 C 
ATOM     24  H   UNL     1      33.246 -22.263 -16.567  0.00  0.00    +0.150 HD
BRANCH  23  25
ATOM     25  C   UNL     1      34.214 -22.187 -18.933  0.00  0.00    +0.054 C 
ATOM     26  C   UNL     1      33.389 -21.292 -19.613  0.00  0.00    +0.008 C 
ATOM     27  C   UNL     1      35.593 -21.973 -18.890  0.00  0.00    +0.008 C 
ATOM     28  C   UNL     1      33.942 -20.182 -20.252  0.00  0.00    +0.038 C 
ATOM     29  C   UNL     1      36.145 -20.863 -19.529  0.00  0.00    +0.038 C 
ATOM     30  C   UNL     1      35.320 -19.968 -20.210  0.00  0.00    +0.145 C 
BRANCH  30  31
ATOM     31  O   UNL     1      35.860 -18.887 -20.835  0.00  0.00    -0.453 OA
BRANCH  31  32
ATOM     32  C   UNL     1      35.285 -18.478 -22.027  0.00  0.00    +0.145 C 
ATOM     33  C   UNL     1      35.190 -17.119 -22.326  0.00  0.00    +0.037 C 
ATOM     34  C   UNL     1      34.798 -19.426 -22.928  0.00  0.00    +0.037 C 
ATOM     35  C   UNL     1      34.610 -16.707 -23.526  0.00  0.00    +0.003 C 
ATOM     36  C   UNL     1      34.217 -19.014 -24.128  0.00  0.00    +0.003 C 
ATOM     37  C   UNL     1      34.123 -17.655 -24.426  0.00  0.00    +0.000 C 
ENDBRANCH  31  32
ENDBRANCH  30  31
ENDBRANCH  23  25
ENDBRANCH  20  22
ENDBRANCH   1  20
TORSDOF 6
ENDMDL
MODEL 2
REMARK VINA RESULT:     -11.9      4.900      8.250
REMARK  Name = 25023705
REMARK  6 active torsions:
REMARK  status: ('A' for Active; 'I' for Inactive)
REMARK    1  A    between atoms: C_1  and  C_8
REMARK    2  A    between atoms: C_1  and  C_20
REMARK    3  A    between atoms: C_20  and  N_22
REMARK    4  A    between atoms: C_23  and  C_25
REMARK    5  A    between atoms: C_30  and  O_31
REMARK    6  A    between atoms: O_31  and  C_32
REMARK                            x       y       z     vdW  Elec       q    Type
REMARK                         _______ _______ _______ _____ _____    ______ ____
ROOT
ATOM      1  C   UNL     1      35.264 -19.105 -21.876  0.00  0.00    +0.066 C 
ATOM      2  C   UNL     1      33.967 -18.759 -22.646  0.00  0.00    +0.009 C 
ATOM      3  C   UNL     1      36.234 -19.729 -22.910  0.00  0.00    +0.009 C 
ENDROOT
BRANCH   1   8
ATOM      4  N   UNL     1      35.931 -20.402 -19.891  0.00  0.00    -0.347 NA
ATOM      5  N   UNL     1      36.681 -21.578 -18.043  0.00  0.00    -0.266 NA
ATOM      6  N   UNL     1      35.185 -22.909 -16.705  0.00  0.00    -0.316 NA
ATOM      7  N   UNL     1      37.460 -22.764 -16.173  0.00  0.00    -0.283 N 
ATOM      8  C   UNL     1      34.910 -20.043 -20.707  0.00  0.00    +0.122 C 
ATOM      9  C   UNL     1      33.607 -20.464 -20.548  0.00  0.00    +0.026 C 
ATOM     10  C   UNL     1      33.341 -21.307 -19.483  0.00  0.00    +0.001 C 
ATOM     11  C   UNL     1      35.681 -21.217 -18.856  0.00  0.00    +0.137 C 
ATOM     12  C   UNL     1      34.384 -21.689 -18.627  0.00  0.00    +0.199 C 
ATOM     13  C   UNL     1      34.196 -22.533 -17.535  0.00  0.00    +0.187 C 
ATOM     14  C   UNL     1      36.386 -22.400 -17.014  0.00  0.00    +0.207 C 
ATOM     15  H   UNL     1      38.365 -22.420 -16.354  0.00  0.00    +0.156 HD
ATOM     16  H   UNL     1      37.304 -23.362 -15.406  0.00  0.00    +0.156 HD
ATOM     17  N   UNL     1      32.901 -23.037 -17.259  0.00  0.00    -0.334 N 
ATOM     18  H   UNL     1      32.760 -23.634 -16.489  0.00  0.00    +0.144 HD
ATOM     19  H   UNL     1      32.144 -22.792 -17.838  0.00  0.00    +0.144 HD
ENDBRANCH   1   8
BRANCH   1  20
ATOM     20  C   UNL     1      35.886 -17.779 -21.355  0.00  0.00    +0.096 C 
BRANCH  20  22
ATOM     21  O   UNL     1      35.563 -15.661 -23.265  0.00  0.00    -0.270 OA
ATOM     22  N   UNL     1      34.950 -16.687 -21.278  0.00  0.00    -0.300 N 
ATOM     23  C   UNL     1      34.866 -15.704 -22.255  0.00  0.00    +0.246 C 
ATOM     24  H   UNL     1      34.346 -16.636 -20.502  0.00  0.00    +0.150 HD
BRANCH  23  25
ATOM     25  C   UNL     1      33.866 -14.631 -22.015  0.00  0.00    +0.054 C 
ATOM     26  C   UNL     1      33.358 -13.899 -23.087  0.00  0.00    +0.008 C 
ATOM     27  C   UNL     1      33.439 -14.355 -20.715  0.00  0.00    +0.008 C 
ATOM     28  C   UNL     1      32.420 -12.891 -22.861  0.00  0.00    +0.038 C 
ATOM     29  C   UNL     1      32.501 -13.347 -20.490  0.00  0.00    +0.038 C 
ATOM     30  C   UNL     1      31.993 -12.615 -21.562  0.00  0.00    +0.145 C 
BRANCH  30  31
ATOM     31  O   UNL     1      31.080 -11.630 -21.341  0.00  0.00    -0.453 OA
BRANCH  31  32
ATOM     32  C   UNL     1      31.558 -10.367 -21.032  0.00  0.00    +0.145 C 
ATOM     33  C   UNL     1      31.540  -9.919 -19.712  0.00  0.00    +0.037 C 
ATOM     34  C   UNL     1      32.055  -9.543 -22.042  0.00  0.00    +0.037 C 
ATOM     35  C   UNL     1      32.019  -8.647 -19.400  0.00  0.00    +0.003 C 
ATOM     36  C   UNL     1      32.535  -8.271 -21.731  0.00  0.00    +0.003 C 
ATOM     37  C   UNL     1      32.517  -7.823 -20.410  0.00  0.00    +0.000 C 
ENDBRANCH  31  32
ENDBRANCH  30  31
ENDBRANCH  23  25
ENDBRANCH  20  22
ENDBRANCH   1  20
TORSDOF 6
ENDMDL
MODEL 3
REMARK VINA RESULT:     -11.9      1.425      1.818
REMARK  Name = 25023705
REMARK  6 active torsions:
REMARK  status: ('A' for Active; 'I' for Inactive)
REMARK    1  A    between atoms: C_1  and  C_8
REMARK    2  A    between atoms: C_1  and  C_20
REMARK    3  A    between atoms: C_20  and  N_22
REMARK    4  A    between atoms: C_23  and  C_25
REMARK    5  A    between atoms: C_30  and  O_31
REMARK    6  A    between atoms: O_31  and  C_32
REMARK                            x       y       z     vdW  Elec       q    Type
REMARK                         _______ _______ _______ _____ _____    ______ ____
ROOT
ATOM      1  C   UNL     1      31.992 -23.653 -14.871  0.00  0.00    +0.066 C 
ATOM      2  C   UNL     1      31.610 -22.388 -14.065  0.00  0.00    +0.009 C 
ATOM      3  C   UNL     1      31.275 -24.843 -14.187  0.00  0.00    +0.009 C 
ENDROOT
BRANCH   1   8
ATOM      4  N   UNL     1      34.216 -22.691 -15.316  0.00  0.00    -0.347 NA
ATOM      5  N   UNL     1      36.246 -21.674 -15.771  0.00  0.00    -0.266 NA
ATOM      6  N   UNL     1      38.333 -22.830 -15.447  0.00  0.00    -0.316 NA
ATOM      7  N   UNL     1      38.294 -20.627 -16.238  0.00  0.00    -0.283 N 
ATOM      8  C   UNL     1      33.528 -23.779 -14.893  0.00  0.00    +0.122 C 
ATOM      9  C   UNL     1      34.116 -24.960 -14.493  0.00  0.00    +0.026 C 
ATOM     10  C   UNL     1      35.498 -25.021 -14.532  0.00  0.00    +0.001 C 
ATOM     11  C   UNL     1      35.555 -22.742 -15.356  0.00  0.00    +0.137 C 
ATOM     12  C   UNL     1      36.228 -23.905 -14.966  0.00  0.00    +0.199 C 
ATOM     13  C   UNL     1      37.619 -23.890 -15.033  0.00  0.00    +0.187 C 
ATOM     14  C   UNL     1      37.592 -21.769 -15.796  0.00  0.00    +0.207 C 
ATOM     15  H   UNL     1      37.800 -19.819 -16.508  0.00  0.00    +0.156 HD
ATOM     16  H   UNL     1      39.278 -20.638 -16.277  0.00  0.00    +0.156 HD
ATOM     17  N   UNL     1      38.347 -25.043 -14.649  0.00  0.00    -0.334 N 
ATOM     18  H   UNL     1      39.331 -25.041 -14.693  0.00  0.00    +0.144 HD
ATOM     19  H   UNL     1      37.870 -25.847 -14.339  0.00  0.00    +0.144 HD
ENDBRANCH   1   8
BRANCH   1  20
ATOM     20  C   UNL     1      31.428 -23.499 -16.312  0.00  0.00    +0.096 C 
BRANCH  20  22
ATOM     21  O   UNL     1      33.312 -24.320 -18.317  0.00  0.00    -0.270 OA
ATOM     22  N   UNL     1      32.215 -22.637 -17.157  0.00  0.00    -0.300 N 
ATOM     23  C   UNL     1      33.105 -23.129 -18.103  0.00  0.00    +0.246 C 
ATOM     24  H   UNL     1      32.119 -21.662 -17.059  0.00  0.00    +0.150 HD
BRANCH  23  25
ATOM     25  C   UNL     1      33.862 -22.110 -18.876  0.00  0.00    +0.054 C 
ATOM     26  C   UNL     1      33.178 -21.121 -19.583  0.00  0.00    +0.008 C 
ATOM     27  C   UNL     1      35.257 -22.144 -18.894  0.00  0.00    +0.008 C 
ATOM     28  C   UNL     1      33.890 -20.166 -20.309  0.00  0.00    +0.038 C 
ATOM     29  C   UNL     1      35.968 -21.188 -19.620  0.00  0.00    +0.038 C 
ATOM     30  C   UNL     1      35.284 -20.200 -20.328  0.00  0.00    +0.145 C 
BRANCH  30  31
ATOM     31  O   UNL     1      35.978 -19.269 -21.038  0.00  0.00    -0.453 OA
BRANCH  31  32
ATOM     32  C   UNL     1      35.352 -18.696 -22.133  0.00  0.00    +0.145 C 
ATOM     33  C   UNL     1      35.277 -17.308 -22.245  0.00  0.00    +0.037 C 
ATOM     34  C   UNL     1      34.795 -19.507 -23.121  0.00  0.00    +0.037 C 
ATOM     35  C   UNL     1      34.646 -16.730 -23.347  0.00  0.00    +0.003 C 
ATOM     36  C   UNL     1      34.163 -18.929 -24.223  0.00  0.00    +0.003 C 
ATOM     37  C   UNL     1      34.089 -17.541 -24.336  0.00  0.00    +0.000 C 
ENDBRANCH  31  32
ENDBRANCH  30  31
ENDBRANCH  23  25
ENDBRANCH  20  22
ENDBRANCH   1  20
TORSDOF 6
ENDMDL
MODEL 4
REMARK VINA RESULT:     -11.6      4.971     11.050
REMARK  Name = 25023705
REMARK  6 active torsions:
REMARK  status: ('A' for Active; 'I' for Inactive)
REMARK    1  A    between atoms: C_1  and  C_8
REMARK    2  A    between atoms: C_1  and  C_20
REMARK    3  A    between atoms: C_20  and  N_22
REMARK    4  A    between atoms: C_23  and  C_25
REMARK    5  A    between atoms: C_30  and  O_31
REMARK    6  A    between atoms: O_31  and  C_32
REMARK                            x       y       z     vdW  Elec       q    Type
REMARK                         _______ _______ _______ _____ _____    ______ ____
ROOT
ATOM      1  C   UNL     1      35.615 -18.645 -21.672  0.00  0.00    +0.066 C 
ATOM      2  C   UNL     1      35.686 -17.967 -20.282  0.00  0.00    +0.009 C 
ATOM      3  C   UNL     1      37.064 -19.050 -22.037  0.00  0.00    +0.009 C 
ENDROOT
BRANCH   1   8
ATOM      4  N   UNL     1      35.045 -16.347 -22.350  0.00  0.00    -0.347 NA
ATOM      5  N   UNL     1      34.570 -14.142 -22.878  0.00  0.00    -0.266 NA
ATOM      6  N   UNL     1      33.381 -13.558 -24.889  0.00  0.00    -0.316 NA
ATOM      7  N   UNL     1      34.096 -11.903 -23.396  0.00  0.00    -0.283 N 
ATOM      8  C   UNL     1      34.972 -17.662 -22.668  0.00  0.00    +0.122 C 
ATOM      9  C   UNL     1      34.366 -18.151 -23.806  0.00  0.00    +0.026 C 
ATOM     10  C   UNL     1      33.803 -17.226 -24.668  0.00  0.00    +0.001 C 
ATOM     11  C   UNL     1      34.503 -15.445 -23.180  0.00  0.00    +0.137 C 
ATOM     12  C   UNL     1      33.869 -15.860 -24.356  0.00  0.00    +0.199 C 
ATOM     13  C   UNL     1      33.326 -14.871 -25.173  0.00  0.00    +0.187 C 
ATOM     14  C   UNL     1      34.010 -13.269 -23.741  0.00  0.00    +0.207 C 
ATOM     15  H   UNL     1      34.546 -11.633 -22.563  0.00  0.00    +0.156 HD
ATOM     16  H   UNL     1      33.705 -11.220 -23.988  0.00  0.00    +0.156 HD
ATOM     17  N   UNL     1      32.674 -15.240 -26.375  0.00  0.00    -0.334 N 
ATOM     18  H   UNL     1      32.288 -14.547 -26.958  0.00  0.00    +0.144 HD
ATOM     19  H   UNL     1      32.607 -16.189 -26.628  0.00  0.00    +0.144 HD
ENDBRANCH   1   8
BRANCH   1  20
ATOM     20  C   UNL     1      34.761 -19.937 -21.538  0.00  0.00    +0.096 C 
BRANCH  20  22
ATOM     21  O   UNL     1      32.749 -21.438 -20.144  0.00  0.00    -0.270 OA
ATOM     22  N   UNL     1      34.910 -20.605 -20.271  0.00  0.00    -0.300 N 
ATOM     23  C   UNL     1      33.875 -21.311 -19.671  0.00  0.00    +0.246 C 
ATOM     24  H   UNL     1      35.780 -20.560 -19.812  0.00  0.00    +0.150 HD
BRANCH  23  25
ATOM     25  C   UNL     1      34.182 -21.921 -18.351  0.00  0.00    +0.054 C 
ATOM     26  C   UNL     1      33.169 -22.533 -17.613  0.00  0.00    +0.008 C 
ATOM     27  C   UNL     1      35.484 -21.879 -17.850  0.00  0.00    +0.008 C 
ATOM     28  C   UNL     1      33.458 -23.104 -16.374  0.00  0.00    +0.038 C 
ATOM     29  C   UNL     1      35.772 -22.451 -16.611  0.00  0.00    +0.038 C 
ATOM     30  C   UNL     1      34.759 -23.062 -15.873  0.00  0.00    +0.145 C 
BRANCH  30  31
ATOM     31  O   UNL     1      35.040 -23.617 -14.662  0.00  0.00    -0.453 OA
BRANCH  31  32
ATOM     32  C   UNL     1      36.071 -24.540 -14.601  0.00  0.00    +0.145 C 
ATOM     33  C   UNL     1      37.347 -24.135 -14.211  0.00  0.00    +0.037 C 
ATOM     34  C   UNL     1      35.833 -25.875 -14.931  0.00  0.00    +0.037 C 
ATOM     35  C   UNL     1      38.386 -25.063 -14.150  0.00  0.00    +0.003 C 
ATOM     36  C   UNL     1      36.872 -26.804 -14.870  0.00  0.00    +0.003 C 
ATOM     37  C   UNL     1      38.148 -26.398 -14.480  0.00  0.00    +0.000 C 
ENDBRANCH  31  32
ENDBRANCH  30  31
ENDBRANCH  23  25
ENDBRANCH  20  22
ENDBRANCH   1  20
TORSDOF 6
ENDMDL
MODEL 5
REMARK VINA RESULT:     -11.5      0.954      2.178
REMARK  Name = 25023705
REMARK  6 active torsions:
REMARK  status: ('A' for Active; 'I' for Inactive)
REMARK    1  A    between atoms: C_1  and  C_8
REMARK    2  A    between atoms: C_1  and  C_20
REMARK    3  A    between atoms: C_20  and  N_22
REMARK    4  A    between atoms: C_23  and  C_25
REMARK    5  A    between atoms: C_30  and  O_31
REMARK    6  A    between atoms: O_31  and  C_32
REMARK                            x       y       z     vdW  Elec       q    Type
REMARK                         _______ _______ _______ _____ _____    ______ ____
ROOT
ATOM      1  C   UNL     1      32.078 -23.848 -14.828  0.00  0.00    +0.066 C 
ATOM      2  C   UNL     1      31.770 -22.353 -14.568  0.00  0.00    +0.009 C 
ATOM      3  C   UNL     1      30.928 -24.653 -14.175  0.00  0.00    +0.009 C 
ENDROOT
BRANCH   1   8
ATOM      4  N   UNL     1      33.644 -23.948 -12.929  0.00  0.00    -0.347 NA
ATOM      5  N   UNL     1      35.018 -23.997 -11.066  0.00  0.00    -0.266 NA
ATOM      6  N   UNL     1      37.301 -24.752 -11.205  0.00  0.00    -0.316 NA
ATOM      7  N   UNL     1      36.397 -24.039  -9.166  0.00  0.00    -0.283 N 
ATOM      8  C   UNL     1      33.471 -24.172 -14.254  0.00  0.00    +0.122 C 
ATOM      9  C   UNL     1      34.451 -24.659 -15.092  0.00  0.00    +0.026 C 
ATOM     10  C   UNL     1      35.685 -24.933 -14.527  0.00  0.00    +0.001 C 
ATOM     11  C   UNL     1      34.835 -24.212 -12.374  0.00  0.00    +0.137 C 
ATOM     12  C   UNL     1      35.883 -24.709 -13.157  0.00  0.00    +0.199 C 
ATOM     13  C   UNL     1      37.094 -24.960 -12.517  0.00  0.00    +0.187 C 
ATOM     14  C   UNL     1      36.233 -24.275 -10.549  0.00  0.00    +0.207 C 
ATOM     15  H   UNL     1      35.646 -23.688  -8.635  0.00  0.00    +0.156 HD
ATOM     16  H   UNL     1      37.262 -24.223  -8.735  0.00  0.00    +0.156 HD
ATOM     17  N   UNL     1      38.186 -25.465 -13.265  0.00  0.00    -0.334 N 
ATOM     18  H   UNL     1      39.046 -25.645 -12.821  0.00  0.00    +0.144 HD
ATOM     19  H   UNL     1      38.085 -25.634 -14.230  0.00  0.00    +0.144 HD
ENDBRANCH   1   8
BRANCH   1  20
ATOM     20  C   UNL     1      32.041 -24.090 -16.363  0.00  0.00    +0.096 C 
BRANCH  20  22
ATOM     21  O   UNL     1      33.551 -24.453 -18.778  0.00  0.00    -0.270 OA
ATOM     22  N   UNL     1      32.693 -23.062 -17.132  0.00  0.00    -0.300 N 
ATOM     23  C   UNL     1      33.405 -23.335 -18.293  0.00  0.00    +0.246 C 
ATOM     24  H   UNL     1      32.633 -22.129 -16.821  0.00  0.00    +0.150 HD
BRANCH  23  25
ATOM     25  C   UNL     1      34.043 -22.167 -18.955  0.00  0.00    +0.054 C 
ATOM     26  C   UNL     1      33.258 -21.233 -19.630  0.00  0.00    +0.008 C 
ATOM     27  C   UNL     1      35.429 -22.007 -18.901  0.00  0.00    +0.008 C 
ATOM     28  C   UNL     1      33.858 -20.138 -20.251  0.00  0.00    +0.038 C 
ATOM     29  C   UNL     1      36.028 -20.912 -19.523  0.00  0.00    +0.038 C 
ATOM     30  C   UNL     1      35.243 -19.978 -20.198  0.00  0.00    +0.145 C 
BRANCH  30  31
ATOM     31  O   UNL     1      35.828 -18.911 -20.807  0.00  0.00    -0.453 OA
BRANCH  31  32
ATOM     32  C   UNL     1      35.292 -18.482 -22.010  0.00  0.00    +0.145 C 
ATOM     33  C   UNL     1      34.809 -19.413 -22.929  0.00  0.00    +0.037 C 
ATOM     34  C   UNL     1      35.238 -17.119 -22.304  0.00  0.00    +0.037 C 
ATOM     35  C   UNL     1      34.271 -18.983 -24.142  0.00  0.00    +0.003 C 
ATOM     36  C   UNL     1      34.700 -16.688 -23.517  0.00  0.00    +0.003 C 
ATOM     37  C   UNL     1      34.217 -17.620 -24.435  0.00  0.00    +0.000 C 
ENDBRANCH  31  32
ENDBRANCH  30  31
ENDBRANCH  23  25
ENDBRANCH  20  22
ENDBRANCH   1  20
TORSDOF 6
ENDMDL
MODEL 6
REMARK VINA RESULT:     -11.4      2.385      4.861
REMARK  Name = 25023705
REMARK  6 active torsions:
REMARK  status: ('A' for Active; 'I' for Inactive)
REMARK    1  A    between atoms: C_1  and  C_8
REMARK    2  A    between atoms: C_1  and  C_20
REMARK    3  A    between atoms: C_20  and  N_22
REMARK    4  A    between atoms: C_23  and  C_25
REMARK    5  A    between atoms: C_30  and  O_31
REMARK    6  A    between atoms: O_31  and  C_32
REMARK                            x       y       z     vdW  Elec       q    Type
REMARK                         _______ _______ _______ _____ _____    ______ ____
ROOT
ATOM      1  C   UNL     1      34.068 -22.416 -18.613  0.00  0.00    +0.066 C 
ATOM      2  C   UNL     1      32.734 -21.665 -18.846  0.00  0.00    +0.009 C 
ATOM      3  C   UNL     1      34.054 -23.639 -19.562  0.00  0.00    +0.009 C 
ENDROOT
BRANCH   1   8
ATOM      4  N   UNL     1      33.069 -23.333 -16.556  0.00  0.00    -0.347 NA
ATOM      5  N   UNL     1      32.019 -24.218 -14.691  0.00  0.00    -0.266 NA
ATOM      6  N   UNL     1      33.150 -24.387 -12.572  0.00  0.00    -0.316 NA
ATOM      7  N   UNL     1      30.939 -25.117 -12.812  0.00  0.00    -0.283 N 
ATOM      8  C   UNL     1      34.172 -22.784 -17.120  0.00  0.00    +0.122 C 
ATOM      9  C   UNL     1      35.350 -22.545 -16.446  0.00  0.00    +0.026 C 
ATOM     10  C   UNL     1      35.392 -22.893 -15.107  0.00  0.00    +0.001 C 
ATOM     11  C   UNL     1      33.102 -23.674 -15.261  0.00  0.00    +0.137 C 
ATOM     12  C   UNL     1      34.261 -23.463 -14.505  0.00  0.00    +0.199 C 
ATOM     13  C   UNL     1      34.226 -23.840 -13.164  0.00  0.00    +0.187 C 
ATOM     14  C   UNL     1      32.096 -24.545 -13.385  0.00  0.00    +0.207 C 
ATOM     15  H   UNL     1      30.135 -25.256 -13.363  0.00  0.00    +0.156 HD
ATOM     16  H   UNL     1      30.937 -25.376 -11.862  0.00  0.00    +0.156 HD
ATOM     17  N   UNL     1      35.374 -23.647 -12.357  0.00  0.00    -0.334 N 
ATOM     18  H   UNL     1      35.357 -23.910 -11.408  0.00  0.00    +0.144 HD
ATOM     19  H   UNL     1      36.187 -23.250 -12.743  0.00  0.00    +0.144 HD
ENDBRANCH   1   8
BRANCH   1  20
ATOM     20  C   UNL     1      35.233 -21.477 -19.035  0.00  0.00    +0.096 C 
BRANCH  20  22
ATOM     21  O   UNL     1      36.871 -19.386 -20.123  0.00  0.00    -0.270 OA
ATOM     22  N   UNL     1      34.938 -20.666 -20.189  0.00  0.00    -0.300 N 
ATOM     23  C   UNL     1      35.796 -19.673 -20.643  0.00  0.00    +0.246 C 
ATOM     24  H   UNL     1      34.096 -20.823 -20.675  0.00  0.00    +0.150 HD
BRANCH  23  25
ATOM     25  C   UNL     1      35.335 -18.907 -21.830  0.00  0.00    +0.054 C 
ATOM     26  C   UNL     1      35.745 -17.586 -22.010  0.00  0.00    +0.008 C 
ATOM     27  C   UNL     1      34.491 -19.510 -22.763  0.00  0.00    +0.008 C 
ATOM     28  C   UNL     1      35.311 -16.868 -23.124  0.00  0.00    +0.038 C 
ATOM     29  C   UNL     1      34.058 -18.791 -23.877  0.00  0.00    +0.038 C 
ATOM     30  C   UNL     1      34.467 -17.470 -24.057  0.00  0.00    +0.145 C 
BRANCH  30  31
ATOM     31  O   UNL     1      34.042 -16.768 -25.143  0.00  0.00    -0.453 OA
BRANCH  31  32
ATOM     32  C   UNL     1      33.821 -15.410 -24.985  0.00  0.00    +0.145 C 
ATOM     33  C   UNL     1      33.584 -14.609 -26.102  0.00  0.00    +0.037 C 
ATOM     34  C   UNL     1      33.839 -14.843 -23.711  0.00  0.00    +0.037 C 
ATOM     35  C   UNL     1      33.363 -13.241 -25.945  0.00  0.00    +0.003 C 
ATOM     36  C   UNL     1      33.618 -13.475 -23.553  0.00  0.00    +0.003 C 
ATOM     37  C   UNL     1      33.380 -12.674 -24.670  0.00  0.00    +0.000 C 
ENDBRANCH  31  32
ENDBRANCH  30  31
ENDBRANCH  23  25
ENDBRANCH  20  22
ENDBRANCH   1  20
TORSDOF 6
ENDMDL
MODEL 7
REMARK VINA RESULT:     -11.4     11.132     16.420
REMARK  Name = 25023705
REMARK  6 active torsions:
REMARK  status: ('A' for Active; 'I' for Inactive)
REMARK    1  A    between atoms: C_1  and  C_8
REMARK    2  A    between atoms: C_1  and  C_20
REMARK    3  A    between atoms: C_20  and  N_22
REMARK    4  A    between atoms: C_23  and  C_25
REMARK    5  A    between atoms: C_30  and  O_31
REMARK    6  A    between atoms: O_31  and  C_32
REMARK                            x       y       z     vdW  Elec       q    Type
REMARK                         _______ _______ _______ _____ _____    ______ ____
ROOT
ATOM      1  C   UNL     1      32.144  -7.243 -21.521  0.00  0.00    +0.066 C 
ATOM      2  C   UNL     1      31.179  -6.182 -20.939  0.00  0.00    +0.009 C 
ATOM      3  C   UNL     1      33.056  -7.694 -20.353  0.00  0.00    +0.009 C 
ENDROOT
BRANCH   1   8
ATOM      4  N   UNL     1      32.251  -5.671 -23.415  0.00  0.00    -0.347 NA
ATOM      5  N   UNL     1      32.228  -4.153 -25.164  0.00  0.00    -0.266 NA
ATOM      6  N   UNL     1      34.127  -3.883 -26.619  0.00  0.00    -0.316 NA
ATOM      7  N   UNL     1      32.187  -2.611 -26.932  0.00  0.00    -0.283 N 
ATOM      8  C   UNL     1      32.909  -6.619 -22.705  0.00  0.00    +0.122 C 
ATOM      9  C   UNL     1      34.191  -7.043 -22.981  0.00  0.00    +0.026 C 
ATOM     10  C   UNL     1      34.834  -6.452 -24.054  0.00  0.00    +0.001 C 
ATOM     11  C   UNL     1      32.867  -5.092 -24.455  0.00  0.00    +0.137 C 
ATOM     12  C   UNL     1      34.170  -5.468 -24.801  0.00  0.00    +0.199 C 
ATOM     13  C   UNL     1      34.749  -4.827 -25.894  0.00  0.00    +0.187 C 
ATOM     14  C   UNL     1      32.885  -3.598 -26.204  0.00  0.00    +0.207 C 
ATOM     15  H   UNL     1      31.270  -2.363 -26.671  0.00  0.00    +0.156 HD
ATOM     16  H   UNL     1      32.616  -2.171 -27.702  0.00  0.00    +0.156 HD
ATOM     17  N   UNL     1      36.067  -5.171 -26.284  0.00  0.00    -0.334 N 
ATOM     18  H   UNL     1      36.484  -4.724 -27.055  0.00  0.00    +0.144 HD
ATOM     19  H   UNL     1      36.565  -5.858 -25.785  0.00  0.00    +0.144 HD
ENDBRANCH   1   8
BRANCH   1  20
ATOM     20  C   UNL     1      31.300  -8.462 -21.987  0.00  0.00    +0.096 C 
BRANCH  20  22
ATOM     21  O   UNL     1      30.685 -11.112 -21.069  0.00  0.00    -0.270 OA
ATOM     22  N   UNL     1      32.076  -9.654 -22.218  0.00  0.00    -0.300 N 
ATOM     23  C   UNL     1      31.697 -10.898 -21.731  0.00  0.00    +0.246 C 
ATOM     24  H   UNL     1      32.907  -9.583 -22.740  0.00  0.00    +0.150 HD
BRANCH  23  25
ATOM     25  C   UNL     1      32.619 -12.024 -22.032  0.00  0.00    +0.054 C 
ATOM     26  C   UNL     1      33.407 -11.991 -23.182  0.00  0.00    +0.008 C 
ATOM     27  C   UNL     1      32.695 -13.113 -21.163  0.00  0.00    +0.008 C 
ATOM     28  C   UNL     1      34.272 -13.048 -23.464  0.00  0.00    +0.038 C 
ATOM     29  C   UNL     1      33.560 -14.170 -21.446  0.00  0.00    +0.038 C 
ATOM     30  C   UNL     1      34.348 -14.138 -22.596  0.00  0.00    +0.145 C 
BRANCH  30  31
ATOM     31  O   UNL     1      35.190 -15.171 -22.873  0.00  0.00    -0.453 OA
BRANCH  31  32
ATOM     32  C   UNL     1      34.645 -16.314 -23.433  0.00  0.00    +0.145 C 
ATOM     33  C   UNL     1      33.837 -16.218 -24.565  0.00  0.00    +0.037 C 
ATOM     34  C   UNL     1      34.903 -17.561 -22.863  0.00  0.00    +0.037 C 
ATOM     35  C   UNL     1      33.286 -17.369 -25.129  0.00  0.00    +0.003 C 
ATOM     36  C   UNL     1      34.352 -18.712 -23.427  0.00  0.00    +0.003 C 
ATOM     37  C   UNL     1      33.544 -18.616 -24.560  0.00  0.00    +0.000 C 
ENDBRANCH  31  32
ENDBRANCH  30  31
ENDBRANCH  23  25
ENDBRANCH  20  22
ENDBRANCH   1  20
TORSDOF 6
ENDMDL
MODEL 8
REMARK VINA RESULT:     -11.1      2.144      4.130
REMARK  Name = 25023705
REMARK  6 active torsions:
REMARK  status: ('A' for Active; 'I' for Inactive)
REMARK    1  A    between atoms: C_1  and  C_8
REMARK    2  A    between atoms: C_1  and  C_20
REMARK    3  A    between atoms: C_20  and  N_22
REMARK    4  A    between atoms: C_23  and  C_25
REMARK    5  A    between atoms: C_30  and  O_31
REMARK    6  A    between atoms: O_31  and  C_32
REMARK                            x       y       z     vdW  Elec       q    Type
REMARK                         _______ _______ _______ _____ _____    ______ ____
ROOT
ATOM      1  C   UNL     1      34.039 -22.469 -18.481  0.00  0.00    +0.066 C 
ATOM      2  C   UNL     1      32.721 -21.662 -18.580  0.00  0.00    +0.009 C 
ATOM      3  C   UNL     1      33.933 -23.610 -19.523  0.00  0.00    +0.009 C 
ENDROOT
BRANCH   1   8
ATOM      4  N   UNL     1      35.481 -23.128 -16.597  0.00  0.00    -0.347 NA
ATOM      5  N   UNL     1      36.943 -23.721 -14.901  0.00  0.00    -0.266 NA
ATOM      6  N   UNL     1      36.145 -24.440 -12.746  0.00  0.00    -0.316 NA
ATOM      7  N   UNL     1      38.440 -24.320 -13.196  0.00  0.00    -0.283 N 
ATOM      8  C   UNL     1      34.209 -22.962 -17.031  0.00  0.00    +0.122 C 
ATOM      9  C   UNL     1      33.090 -23.205 -16.264  0.00  0.00    +0.026 C 
ATOM     10  C   UNL     1      33.298 -23.647 -14.969  0.00  0.00    +0.001 C 
ATOM     11  C   UNL     1      35.691 -23.554 -15.343  0.00  0.00    +0.137 C 
ATOM     12  C   UNL     1      34.607 -23.824 -14.500  0.00  0.00    +0.199 C 
ATOM     13  C   UNL     1      34.897 -24.265 -13.211  0.00  0.00    +0.187 C 
ATOM     14  C   UNL     1      37.108 -24.153 -13.634  0.00  0.00    +0.207 C 
ATOM     15  H   UNL     1      39.187 -24.124 -13.806  0.00  0.00    +0.156 HD
ATOM     16  H   UNL     1      38.621 -24.632 -12.279  0.00  0.00    +0.156 HD
ATOM     17  N   UNL     1      33.834 -24.551 -12.318  0.00  0.00    -0.334 N 
ATOM     18  H   UNL     1      34.030 -24.863 -11.405  0.00  0.00    +0.144 HD
ATOM     19  H   UNL     1      32.901 -24.439 -12.611  0.00  0.00    +0.144 HD
ENDBRANCH   1   8
BRANCH   1  20
ATOM     20  C   UNL     1      35.211 -21.534 -18.891  0.00  0.00    +0.096 C 
BRANCH  20  22
ATOM     21  O   UNL     1      36.858 -19.436 -19.951  0.00  0.00    -0.270 OA
ATOM     22  N   UNL     1      34.937 -20.731 -20.054  0.00  0.00    -0.300 N 
ATOM     23  C   UNL     1      35.797 -19.733 -20.493  0.00  0.00    +0.246 C 
ATOM     24  H   UNL     1      34.106 -20.895 -20.557  0.00  0.00    +0.150 HD
BRANCH  23  25
ATOM     25  C   UNL     1      35.357 -18.975 -21.693  0.00  0.00    +0.054 C 
ATOM     26  C   UNL     1      34.482 -19.562 -22.607  0.00  0.00    +0.008 C 
ATOM     27  C   UNL     1      35.820 -17.675 -21.905  0.00  0.00    +0.008 C 
ATOM     28  C   UNL     1      34.070 -18.850 -23.733  0.00  0.00    +0.038 C 
ATOM     29  C   UNL     1      35.407 -16.964 -23.032  0.00  0.00    +0.038 C 
ATOM     30  C   UNL     1      34.533 -17.552 -23.946  0.00  0.00    +0.145 C 
BRANCH  30  31
ATOM     31  O   UNL     1      34.133 -16.858 -25.046  0.00  0.00    -0.453 OA
BRANCH  31  32
ATOM     32  C   UNL     1      33.905 -15.500 -24.903  0.00  0.00    +0.145 C 
ATOM     33  C   UNL     1      34.089 -14.889 -23.663  0.00  0.00    +0.037 C 
ATOM     34  C   UNL     1      33.488 -14.743 -25.999  0.00  0.00    +0.037 C 
ATOM     35  C   UNL     1      33.858 -13.521 -23.518  0.00  0.00    +0.003 C 
ATOM     36  C   UNL     1      33.257 -13.375 -25.854  0.00  0.00    +0.003 C 
ATOM     37  C   UNL     1      33.442 -12.764 -24.614  0.00  0.00    +0.000 C 
ENDBRANCH  31  32
ENDBRANCH  30  31
ENDBRANCH  23  25
ENDBRANCH  20  22
ENDBRANCH   1  20
TORSDOF 6
ENDMDL
MODEL 9
REMARK VINA RESULT:     -11.1      4.915     10.859
REMARK  Name = 25023705
REMARK  6 active torsions:
REMARK  status: ('A' for Active; 'I' for Inactive)
REMARK    1  A    between atoms: C_1  and  C_8
REMARK    2  A    between atoms: C_1  and  C_20
REMARK    3  A    between atoms: C_20  and  N_22
REMARK    4  A    between atoms: C_23  and  C_25
REMARK    5  A    between atoms: C_30  and  O_31
REMARK    6  A    between atoms: O_31  and  C_32
REMARK                            x       y       z     vdW  Elec       q    Type
REMARK                         _______ _______ _______ _____ _____    ______ ____
ROOT
ATOM      1  C   UNL     1      35.630 -18.846 -21.650  0.00  0.00    +0.066 C 
ATOM      2  C   UNL     1      36.591 -18.745 -20.440  0.00  0.00    +0.009 C 
ATOM      3  C   UNL     1      36.444 -19.477 -22.805  0.00  0.00    +0.009 C 
ENDROOT
BRANCH   1   8
ATOM      4  N   UNL     1      34.828 -17.171 -23.269  0.00  0.00    -0.347 NA
ATOM      5  N   UNL     1      34.094 -15.686 -24.887  0.00  0.00    -0.266 NA
ATOM      6  N   UNL     1      33.367 -13.462 -24.317  0.00  0.00    -0.316 NA
ATOM      7  N   UNL     1      33.353 -14.195 -26.541  0.00  0.00    -0.283 N 
ATOM      8  C   UNL     1      35.085 -17.439 -21.966  0.00  0.00    +0.122 C 
ATOM      9  C   UNL     1      34.891 -16.542 -20.937  0.00  0.00    +0.026 C 
ATOM     10  C   UNL     1      34.401 -15.293 -21.274  0.00  0.00    +0.001 C 
ATOM     11  C   UNL     1      34.352 -15.964 -23.603  0.00  0.00    +0.137 C 
ATOM     12  C   UNL     1      34.128 -14.996 -22.618  0.00  0.00    +0.199 C 
ATOM     13  C   UNL     1      33.634 -13.763 -23.035  0.00  0.00    +0.187 C 
ATOM     14  C   UNL     1      33.617 -14.458 -25.179  0.00  0.00    +0.207 C 
ATOM     15  H   UNL     1      33.519 -14.891 -27.218  0.00  0.00    +0.156 HD
ATOM     16  H   UNL     1      33.004 -13.315 -26.814  0.00  0.00    +0.156 HD
ATOM     17  N   UNL     1      33.389 -12.750 -22.075  0.00  0.00    -0.334 N 
ATOM     18  H   UNL     1      33.040 -11.875 -22.362  0.00  0.00    +0.144 HD
ATOM     19  H   UNL     1      33.569 -12.920 -21.123  0.00  0.00    +0.144 HD
ENDBRANCH   1   8
BRANCH   1  20
ATOM     20  C   UNL     1      34.475 -19.816 -21.272  0.00  0.00    +0.096 C 
BRANCH  20  22
ATOM     21  O   UNL     1      32.703 -21.721 -20.060  0.00  0.00    -0.270 OA
ATOM     22  N   UNL     1      34.674 -20.499 -20.021  0.00  0.00    -0.300 N 
ATOM     23  C   UNL     1      33.756 -21.409 -19.511  0.00  0.00    +0.246 C 
ATOM     24  H   UNL     1      35.493 -20.315 -19.506  0.00  0.00    +0.150 HD
BRANCH  23  25
ATOM     25  C   UNL     1      34.096 -22.009 -18.195  0.00  0.00    +0.054 C 
ATOM     26  C   UNL     1      35.403 -21.945 -17.716  0.00  0.00    +0.008 C 
ATOM     27  C   UNL     1      33.105 -22.638 -17.440  0.00  0.00    +0.008 C 
ATOM     28  C   UNL     1      35.721 -22.509 -16.480  0.00  0.00    +0.038 C 
ATOM     29  C   UNL     1      33.423 -23.201 -16.204  0.00  0.00    +0.038 C 
ATOM     30  C   UNL     1      34.732 -23.138 -15.725  0.00  0.00    +0.145 C 
BRANCH  30  31
ATOM     31  O   UNL     1      35.042 -23.690 -14.521  0.00  0.00    -0.453 OA
BRANCH  31  32
ATOM     32  C   UNL     1      36.075 -24.612 -14.482  0.00  0.00    +0.145 C 
ATOM     33  C   UNL     1      35.860 -25.918 -14.922  0.00  0.00    +0.037 C 
ATOM     34  C   UNL     1      37.330 -24.235 -14.002  0.00  0.00    +0.037 C 
ATOM     35  C   UNL     1      36.899 -26.848 -14.883  0.00  0.00    +0.003 C 
ATOM     36  C   UNL     1      38.369 -25.165 -13.963  0.00  0.00    +0.003 C 
ATOM     37  C   UNL     1      38.153 -26.471 -14.403  0.00  0.00    +0.000 C 
ENDBRANCH  31  32
ENDBRANCH  30  31
ENDBRANCH  23  25
ENDBRANCH  20  22
ENDBRANCH   1  20
TORSDOF 6
ENDMDL
