MODEL 1
REMARK VINA RESULT:     -11.8      0.000      0.000
REMARK  Name = 54726191
REMARK  4 active torsions:
REMARK  status: ('A' for Active; 'I' for Inactive)
REMARK    1  A    between atoms: C_15  and  O_31
REMARK    2  A    between atoms: C_16  and  C_20
REMARK    3  A    between atoms: N_19  and  C_22
REMARK    4  A    between atoms: C_22  and  C_25
REMARK                            x       y       z     vdW  Elec       q    Type
REMARK                         _______ _______ _______ _____ _____    ______ ____
ROOT
ATOM      1  O   UNL     1      37.242 -22.859 -15.831  0.00  0.00    -0.336 OA
ATOM      2  O   UNL     1      33.129 -23.417 -18.031  0.00  0.00    -0.268 OA
ATOM      3  O   UNL     1      33.301 -19.694 -21.498  0.00  0.00    -0.283 OA
ATOM      4  N   UNL     1      35.035 -22.989 -16.788  0.00  0.00    -0.253 N 
ATOM      5  N   UNL     1      35.921 -21.276 -18.842  0.00  0.00    -0.275 N 
ATOM      6  C   UNL     1      36.245 -22.180 -16.604  0.00  0.00    +0.215 C 
ATOM      7  C   UNL     1      34.541 -23.769 -15.639  0.00  0.00    +0.080 C 
ATOM      8  C   UNL     1      35.692 -24.370 -14.832  0.00  0.00    +0.052 C 
ATOM      9  C   UNL     1      36.894 -21.885 -17.946  0.00  0.00    +0.147 C 
ATOM     10  C   UNL     1      36.768 -23.333 -14.578  0.00  0.00    +0.146 C 
ATOM     11  C   UNL     1      34.176 -22.789 -17.878  0.00  0.00    +0.267 C 
ATOM     12  C   UNL     1      34.598 -21.726 -18.867  0.00  0.00    +0.143 C 
ATOM     13  C   UNL     1      33.624 -22.908 -14.761  0.00  0.00    +0.022 C 
ATOM     14  C   UNL     1      36.319 -20.309 -19.754  0.00  0.00    +0.074 C 
ATOM     15  C   UNL     1      33.679 -21.235 -19.728  0.00  0.00    +0.191 C 
ATOM     16  C   UNL     1      35.518 -19.737 -20.662  0.00  0.00    +0.110 C 
ATOM     17  C   UNL     1      34.099 -20.176 -20.701  0.00  0.00    +0.236 C 
ENDROOT
BRANCH  16  20
ATOM     18  O   UNL     1      37.292 -18.674 -21.776  0.00  0.00    -0.270 OA
ATOM     19  N   UNL     1      35.122 -17.881 -22.092  0.00  0.00    -0.297 N 
ATOM     20  C   UNL     1      36.081 -18.725 -21.556  0.00  0.00    +0.251 C 
ATOM     21  H   UNL     1      34.181 -18.024 -21.838  0.00  0.00    +0.150 HD
BRANCH  19  22
ATOM     22  C   UNL     1      35.430 -16.801 -23.002  0.00  0.00    +0.119 C 
BRANCH  22  25
ATOM     23  F   UNL     1      34.132 -15.352 -25.056  0.00  0.00    -0.204 F 
ATOM     24  F   UNL     1      32.275 -12.245 -22.009  0.00  0.00    -0.204 F 
ATOM     25  C   UNL     1      34.589 -15.586 -22.739  0.00  0.00    +0.025 C 
ATOM     26  C   UNL     1      33.976 -14.917 -23.799  0.00  0.00    +0.140 C 
ATOM     27  C   UNL     1      34.420 -15.127 -21.432  0.00  0.00    +0.002 C 
ATOM     28  C   UNL     1      33.194 -13.788 -23.552  0.00  0.00    +0.059 C 
ATOM     29  C   UNL     1      33.638 -13.998 -21.186  0.00  0.00    +0.030 C 
ATOM     30  C   UNL     1      33.025 -13.328 -22.246  0.00  0.00    +0.142 C 
ENDBRANCH  22  25
ENDBRANCH  19  22
ENDBRANCH  16  20
BRANCH  15  31
ATOM     31  O   UNL     1      32.361 -21.635 -19.764  0.00  0.00    -0.502 OA
ATOM     32  H   UNL     1      31.753 -21.193 -20.322  0.00  0.00    +0.292 HD
ENDBRANCH  15  31
TORSDOF 4
ENDMDL
MODEL 2
REMARK VINA RESULT:     -11.6      1.395      2.031
REMARK  Name = 54726191
REMARK  4 active torsions:
REMARK  status: ('A' for Active; 'I' for Inactive)
REMARK    1  A    between atoms: C_15  and  O_31
REMARK    2  A    between atoms: C_16  and  C_20
REMARK    3  A    between atoms: N_19  and  C_22
REMARK    4  A    between atoms: C_22  and  C_25
REMARK                            x       y       z     vdW  Elec       q    Type
REMARK                         _______ _______ _______ _____ _____    ______ ____
ROOT
ATOM      1  O   UNL     1      37.307 -23.125 -14.965  0.00  0.00    -0.336 OA
ATOM      2  O   UNL     1      33.432 -23.943 -17.491  0.00  0.00    -0.268 OA
ATOM      3  O   UNL     1      33.668 -20.234 -20.970  0.00  0.00    -0.283 OA
ATOM      4  N   UNL     1      35.199 -23.394 -16.099  0.00  0.00    -0.253 N 
ATOM      5  N   UNL     1      36.148 -21.641 -18.090  0.00  0.00    -0.275 N 
ATOM      6  C   UNL     1      36.339 -22.512 -15.824  0.00  0.00    +0.215 C 
ATOM      7  C   UNL     1      34.659 -24.196 -14.987  0.00  0.00    +0.080 C 
ATOM      8  C   UNL     1      35.773 -24.722 -14.081  0.00  0.00    +0.052 C 
ATOM      9  C   UNL     1      37.078 -22.185 -17.111  0.00  0.00    +0.147 C 
ATOM     10  C   UNL     1      36.760 -23.620 -13.750  0.00  0.00    +0.146 C 
ATOM     11  C   UNL     1      34.424 -23.251 -17.259  0.00  0.00    +0.267 C 
ATOM     12  C   UNL     1      34.861 -22.170 -18.220  0.00  0.00    +0.143 C 
ATOM     13  C   UNL     1      33.623 -23.388 -14.196  0.00  0.00    +0.022 C 
ATOM     14  C   UNL     1      36.562 -20.656 -18.976  0.00  0.00    +0.074 C 
ATOM     15  C   UNL     1      33.989 -21.740 -19.159  0.00  0.00    +0.191 C 
ATOM     16  C   UNL     1      35.807 -20.138 -19.953  0.00  0.00    +0.110 C 
ATOM     17  C   UNL     1      34.425 -20.662 -20.104  0.00  0.00    +0.236 C 
ENDROOT
BRANCH  16  20
ATOM     18  O   UNL     1      37.546 -19.170 -21.201  0.00  0.00    -0.270 OA
ATOM     19  N   UNL     1      35.486 -18.081 -21.098  0.00  0.00    -0.297 N 
ATOM     20  C   UNL     1      36.380 -19.099 -20.807  0.00  0.00    +0.251 C 
ATOM     21  H   UNL     1      34.578 -18.138 -20.722  0.00  0.00    +0.150 HD
BRANCH  19  22
ATOM     22  C   UNL     1      35.817 -16.941 -21.923  0.00  0.00    +0.119 C 
BRANCH  22  25
ATOM     23  F   UNL     1      34.855 -14.429 -22.801  0.00  0.00    -0.204 F 
ATOM     24  F   UNL     1      32.262 -16.368 -26.251  0.00  0.00    -0.204 F 
ATOM     25  C   UNL     1      34.869 -16.787 -23.076  0.00  0.00    +0.025 C 
ATOM     26  C   UNL     1      34.433 -15.517 -23.458  0.00  0.00    +0.140 C 
ATOM     27  C   UNL     1      34.425 -17.914 -23.767  0.00  0.00    +0.002 C 
ATOM     28  C   UNL     1      33.552 -15.377 -24.531  0.00  0.00    +0.059 C 
ATOM     29  C   UNL     1      33.544 -17.773 -24.840  0.00  0.00    +0.030 C 
ATOM     30  C   UNL     1      33.107 -16.504 -25.222  0.00  0.00    +0.142 C 
ENDBRANCH  22  25
ENDBRANCH  19  22
ENDBRANCH  16  20
BRANCH  15  31
ATOM     31  O   UNL     1      32.706 -22.219 -19.299  0.00  0.00    -0.502 OA
ATOM     32  H   UNL     1      32.477 -22.733 -20.048  0.00  0.00    +0.292 HD
ENDBRANCH  15  31
TORSDOF 4
ENDMDL
MODEL 3
REMARK VINA RESULT:     -11.4      3.910      9.445
REMARK  Name = 54726191
REMARK  4 active torsions:
REMARK  status: ('A' for Active; 'I' for Inactive)
REMARK    1  A    between atoms: C_15  and  O_31
REMARK    2  A    between atoms: C_16  and  C_20
REMARK    3  A    between atoms: N_19  and  C_22
REMARK    4  A    between atoms: C_22  and  C_25
REMARK                            x       y       z     vdW  Elec       q    Type
REMARK                         _______ _______ _______ _____ _____    ______ ____
ROOT
ATOM      1  O   UNL     1      34.146 -12.705 -23.195  0.00  0.00    -0.336 OA
ATOM      2  O   UNL     1      32.649 -16.473 -25.567  0.00  0.00    -0.268 OA
ATOM      3  O   UNL     1      35.190 -20.227 -23.251  0.00  0.00    -0.283 OA
ATOM      4  N   UNL     1      33.569 -14.598 -24.570  0.00  0.00    -0.253 N 
ATOM      5  N   UNL     1      34.667 -16.264 -22.581  0.00  0.00    -0.275 N 
ATOM      6  C   UNL     1      34.488 -14.046 -23.568  0.00  0.00    +0.215 C 
ATOM      7  C   UNL     1      33.126 -13.716 -25.664  0.00  0.00    +0.080 C 
ATOM      8  C   UNL     1      32.880 -12.290 -25.172  0.00  0.00    +0.052 C 
ATOM      9  C   UNL     1      34.425 -14.859 -22.286  0.00  0.00    +0.147 C 
ATOM     10  C   UNL     1      34.026 -11.818 -24.299  0.00  0.00    +0.146 C 
ATOM     11  C   UNL     1      33.374 -15.980 -24.703  0.00  0.00    +0.267 C 
ATOM     12  C   UNL     1      34.128 -16.853 -23.728  0.00  0.00    +0.143 C 
ATOM     13  C   UNL     1      34.133 -13.748 -26.821  0.00  0.00    +0.022 C 
ATOM     14  C   UNL     1      35.351 -17.062 -21.675  0.00  0.00    +0.074 C 
ATOM     15  C   UNL     1      34.271 -18.168 -24.007  0.00  0.00    +0.191 C 
ATOM     16  C   UNL     1      35.567 -18.375 -21.820  0.00  0.00    +0.110 C 
ATOM     17  C   UNL     1      35.027 -19.029 -23.040  0.00  0.00    +0.236 C 
ENDROOT
BRANCH  16  20
ATOM     18  O   UNL     1      37.352 -18.617 -20.312  0.00  0.00    -0.270 OA
ATOM     19  N   UNL     1      35.722 -20.283 -20.412  0.00  0.00    -0.297 N 
ATOM     20  C   UNL     1      36.312 -19.084 -20.780  0.00  0.00    +0.251 C 
ATOM     21  H   UNL     1      34.888 -20.549 -20.862  0.00  0.00    +0.150 HD
BRANCH  19  22
ATOM     22  C   UNL     1      36.270 -21.164 -19.406  0.00  0.00    +0.119 C 
BRANCH  22  25
ATOM     23  F   UNL     1      36.786 -22.359 -16.894  0.00  0.00    -0.204 F 
ATOM     24  F   UNL     1      32.243 -23.516 -16.251  0.00  0.00    -0.204 F 
ATOM     25  C   UNL     1      35.198 -21.791 -18.564  0.00  0.00    +0.025 C 
ATOM     26  C   UNL     1      35.521 -22.364 -17.333  0.00  0.00    +0.140 C 
ATOM     27  C   UNL     1      33.877 -21.800 -19.013  0.00  0.00    +0.002 C 
ATOM     28  C   UNL     1      34.522 -22.947 -16.552  0.00  0.00    +0.059 C 
ATOM     29  C   UNL     1      32.879 -22.383 -18.231  0.00  0.00    +0.030 C 
ATOM     30  C   UNL     1      33.201 -22.957 -17.001  0.00  0.00    +0.142 C 
ENDBRANCH  22  25
ENDBRANCH  19  22
ENDBRANCH  16  20
BRANCH  15  31
ATOM     31  O   UNL     1      33.778 -18.777 -25.139  0.00  0.00    -0.502 OA
ATOM     32  H   UNL     1      33.027 -19.334 -25.082  0.00  0.00    +0.292 HD
ENDBRANCH  15  31
TORSDOF 4
ENDMDL
MODEL 4
REMARK VINA RESULT:     -10.9      3.495      5.310
REMARK  Name = 54726191
REMARK  4 active torsions:
REMARK  status: ('A' for Active; 'I' for Inactive)
REMARK    1  A    between atoms: C_15  and  O_31
REMARK    2  A    between atoms: C_16  and  C_20
REMARK    3  A    between atoms: N_19  and  C_22
REMARK    4  A    between atoms: C_22  and  C_25
REMARK                            x       y       z     vdW  Elec       q    Type
REMARK                         _______ _______ _______ _____ _____    ______ ____
ROOT
ATOM      1  O   UNL     1      37.946 -24.589 -13.243  0.00  0.00    -0.336 OA
ATOM      2  O   UNL     1      33.335 -24.649 -12.347  0.00  0.00    -0.268 OA
ATOM      3  O   UNL     1      31.423 -22.718 -16.651  0.00  0.00    -0.283 OA
ATOM      4  N   UNL     1      35.611 -24.389 -12.686  0.00  0.00    -0.253 N 
ATOM      5  N   UNL     1      35.092 -23.915 -15.414  0.00  0.00    -0.275 N 
ATOM      6  C   UNL     1      36.696 -23.977 -13.583  0.00  0.00    +0.215 C 
ATOM      7  C   UNL     1      35.906 -24.498 -11.246  0.00  0.00    +0.080 C 
ATOM      8  C   UNL     1      37.300 -25.075 -11.000  0.00  0.00    +0.052 C 
ATOM      9  C   UNL     1      36.399 -24.413 -15.009  0.00  0.00    +0.147 C 
ATOM     10  C   UNL     1      38.325 -24.396 -11.887  0.00  0.00    +0.146 C 
ATOM     11  C   UNL     1      34.270 -24.357 -13.093  0.00  0.00    +0.267 C 
ATOM     12  C   UNL     1      34.020 -23.919 -14.518  0.00  0.00    +0.143 C 
ATOM     13  C   UNL     1      35.727 -23.139 -10.558  0.00  0.00    +0.022 C 
ATOM     14  C   UNL     1      34.869 -23.525 -16.727  0.00  0.00    +0.074 C 
ATOM     15  C   UNL     1      32.775 -23.529 -14.871  0.00  0.00    +0.191 C 
ATOM     16  C   UNL     1      33.691 -23.117 -17.215  0.00  0.00    +0.110 C 
ATOM     17  C   UNL     1      32.534 -23.087 -16.283  0.00  0.00    +0.236 C 
ENDROOT
BRANCH  16  20
ATOM     18  O   UNL     1      33.790 -23.556 -19.521  0.00  0.00    -0.270 OA
ATOM     19  N   UNL     1      33.320 -21.388 -18.802  0.00  0.00    -0.297 N 
ATOM     20  C   UNL     1      33.610 -22.731 -18.623  0.00  0.00    +0.251 C 
ATOM     21  H   UNL     1      33.197 -20.828 -18.002  0.00  0.00    +0.150 HD
BRANCH  19  22
ATOM     22  C   UNL     1      33.189 -20.767 -20.101  0.00  0.00    +0.119 C 
BRANCH  22  25
ATOM     23  F   UNL     1      33.413 -19.265 -22.488  0.00  0.00    -0.204 F 
ATOM     24  F   UNL     1      38.046 -18.532 -21.864  0.00  0.00    -0.204 F 
ATOM     25  C   UNL     1      34.483 -20.171 -20.572  0.00  0.00    +0.025 C 
ATOM     26  C   UNL     1      34.524 -19.440 -21.760  0.00  0.00    +0.140 C 
ATOM     27  C   UNL     1      35.645 -20.347 -19.820  0.00  0.00    +0.002 C 
ATOM     28  C   UNL     1      35.728 -18.887 -22.196  0.00  0.00    +0.059 C 
ATOM     29  C   UNL     1      36.849 -19.793 -20.257  0.00  0.00    +0.030 C 
ATOM     30  C   UNL     1      36.891 -19.064 -21.445  0.00  0.00    +0.142 C 
ENDBRANCH  22  25
ENDBRANCH  19  22
ENDBRANCH  16  20
BRANCH  15  31
ATOM     31  O   UNL     1      31.702 -23.494 -14.010  0.00  0.00    -0.502 OA
ATOM     32  H   UNL     1      31.839 -23.571 -13.086  0.00  0.00    +0.292 HD
ENDBRANCH  15  31
TORSDOF 4
ENDMDL
MODEL 5
REMARK VINA RESULT:     -10.6      5.863     11.643
REMARK  Name = 54726191
REMARK  4 active torsions:
REMARK  status: ('A' for Active; 'I' for Inactive)
REMARK    1  A    between atoms: C_15  and  O_31
REMARK    2  A    between atoms: C_16  and  C_20
REMARK    3  A    between atoms: N_19  and  C_22
REMARK    4  A    between atoms: C_22  and  C_25
REMARK                            x       y       z     vdW  Elec       q    Type
REMARK                         _______ _______ _______ _____ _____    ______ ____
ROOT
ATOM      1  O   UNL     1      33.487  -6.579 -23.702  0.00  0.00    -0.336 OA
ATOM      2  O   UNL     1      31.728  -8.968 -20.059  0.00  0.00    -0.268 OA
ATOM      3  O   UNL     1      31.980 -13.762 -21.752  0.00  0.00    -0.283 OA
ATOM      4  N   UNL     1      32.359  -7.773 -21.939  0.00  0.00    -0.253 N 
ATOM      5  N   UNL     1      33.310 -10.169 -23.074  0.00  0.00    -0.275 N 
ATOM      6  C   UNL     1      32.829  -7.796 -23.329  0.00  0.00    +0.215 C 
ATOM      7  C   UNL     1      31.750  -6.529 -21.435  0.00  0.00    +0.080 C 
ATOM      8  C   UNL     1      32.474  -5.293 -21.970  0.00  0.00    +0.052 C 
ATOM      9  C   UNL     1      33.858  -8.897 -23.521  0.00  0.00    +0.147 C 
ATOM     10  C   UNL     1      32.710  -5.414 -23.462  0.00  0.00    +0.146 C 
ATOM     11  C   UNL     1      32.169  -8.954 -21.209  0.00  0.00    +0.267 C 
ATOM     12  C   UNL     1      32.521 -10.239 -21.923  0.00  0.00    +0.143 C 
ATOM     13  C   UNL     1      30.252  -6.493 -21.761  0.00  0.00    +0.022 C 
ATOM     14  C   UNL     1      33.647 -11.346 -23.730  0.00  0.00    +0.074 C 
ATOM     15  C   UNL     1      32.047 -11.407 -21.435  0.00  0.00    +0.191 C 
ATOM     16  C   UNL     1      33.250 -12.569 -23.359  0.00  0.00    +0.110 C 
ATOM     17  C   UNL     1      32.391 -12.677 -22.151  0.00  0.00    +0.236 C 
ENDROOT
BRANCH  16  20
ATOM     18  O   UNL     1      33.390 -13.813 -25.347  0.00  0.00    -0.270 OA
ATOM     19  N   UNL     1      34.426 -14.633 -23.425  0.00  0.00    -0.297 N 
ATOM     20  C   UNL     1      33.683 -13.718 -24.154  0.00  0.00    +0.251 C 
ATOM     21  H   UNL     1      34.594 -14.444 -22.474  0.00  0.00    +0.150 HD
BRANCH  19  22
ATOM     22  C   UNL     1      34.965 -15.850 -23.988  0.00  0.00    +0.119 C 
BRANCH  22  25
ATOM     23  F   UNL     1      34.166 -18.463 -24.724  0.00  0.00    -0.204 F 
ATOM     24  F   UNL     1      34.765 -20.131 -20.336  0.00  0.00    -0.204 F 
ATOM     25  C   UNL     1      34.911 -16.992 -23.016  0.00  0.00    +0.025 C 
ATOM     26  C   UNL     1      34.508 -18.257 -23.445  0.00  0.00    +0.140 C 
ATOM     27  C   UNL     1      35.266 -16.787 -21.682  0.00  0.00    +0.002 C 
ATOM     28  C   UNL     1      34.458 -19.317 -22.539  0.00  0.00    +0.059 C 
ATOM     29  C   UNL     1      35.217 -17.848 -20.777  0.00  0.00    +0.030 C 
ATOM     30  C   UNL     1      34.812 -19.113 -21.205  0.00  0.00    +0.142 C 
ENDBRANCH  22  25
ENDBRANCH  19  22
ENDBRANCH  16  20
BRANCH  15  31
ATOM     31  O   UNL     1      31.246 -11.511 -20.320  0.00  0.00    -0.502 OA
ATOM     32  H   UNL     1      31.631 -11.538 -19.467  0.00  0.00    +0.292 HD
ENDBRANCH  15  31
TORSDOF 4
ENDMDL
MODEL 6
REMARK VINA RESULT:      -9.7      4.861      8.328
REMARK  Name = 54726191
REMARK  4 active torsions:
REMARK  status: ('A' for Active; 'I' for Inactive)
REMARK    1  A    between atoms: C_15  and  O_31
REMARK    2  A    between atoms: C_16  and  C_20
REMARK    3  A    between atoms: N_19  and  C_22
REMARK    4  A    between atoms: C_22  and  C_25
REMARK                            x       y       z     vdW  Elec       q    Type
REMARK                         _______ _______ _______ _____ _____    ______ ____
ROOT
ATOM      1  O   UNL     1      35.279 -17.865 -20.620  0.00  0.00    -0.336 OA
ATOM      2  O   UNL     1      35.233 -16.447 -25.098  0.00  0.00    -0.268 OA
ATOM      3  O   UNL     1      32.534 -12.142 -24.789  0.00  0.00    -0.283 OA
ATOM      4  N   UNL     1      35.046 -17.274 -22.944  0.00  0.00    -0.253 N 
ATOM      5  N   UNL     1      34.112 -14.748 -22.116  0.00  0.00    -0.275 N 
ATOM      6  C   UNL     1      34.554 -17.081 -21.575  0.00  0.00    +0.215 C 
ATOM      7  C   UNL     1      35.400 -18.641 -23.366  0.00  0.00    +0.080 C 
ATOM      8  C   UNL     1      36.084 -19.417 -22.240  0.00  0.00    +0.052 C 
ATOM      9  C   UNL     1      34.738 -15.635 -21.146  0.00  0.00    +0.147 C 
ATOM     10  C   UNL     1      35.328 -19.249 -20.937  0.00  0.00    +0.146 C 
ATOM     11  C   UNL     1      34.876 -16.293 -23.930  0.00  0.00    +0.267 C 
ATOM     12  C   UNL     1      34.201 -15.016 -23.485  0.00  0.00    +0.143 C 
ATOM     13  C   UNL     1      34.162 -19.379 -23.890  0.00  0.00    +0.022 C 
ATOM     14  C   UNL     1      33.504 -13.572 -21.700  0.00  0.00    +0.074 C 
ATOM     15  C   UNL     1      33.693 -14.186 -24.423  0.00  0.00    +0.191 C 
ATOM     16  C   UNL     1      32.960 -12.661 -22.516  0.00  0.00    +0.110 C 
ATOM     17  C   UNL     1      33.018 -12.925 -23.977  0.00  0.00    +0.236 C 
ENDROOT
BRANCH  16  20
ATOM     18  O   UNL     1      31.550 -11.558 -20.994  0.00  0.00    -0.270 OA
ATOM     19  N   UNL     1      32.766 -10.293 -22.530  0.00  0.00    -0.297 N 
ATOM     20  C   UNL     1      32.349 -11.469 -21.928  0.00  0.00    +0.251 C 
ATOM     21  H   UNL     1      33.411 -10.352 -23.271  0.00  0.00    +0.150 HD
BRANCH  19  22
ATOM     22  C   UNL     1      32.303  -8.984 -22.128  0.00  0.00    +0.119 C 
BRANCH  22  25
ATOM     23  F   UNL     1      30.822  -6.876 -23.297  0.00  0.00    -0.204 F 
ATOM     24  F   UNL     1      34.689  -4.880 -25.155  0.00  0.00    -0.204 F 
ATOM     25  C   UNL     1      32.937  -7.890 -22.935  0.00  0.00    +0.025 C 
ATOM     26  C   UNL     1      32.148  -6.879 -23.485  0.00  0.00    +0.140 C 
ATOM     27  C   UNL     1      34.318  -7.884 -23.135  0.00  0.00    +0.002 C 
ATOM     28  C   UNL     1      32.740  -5.862 -24.235  0.00  0.00    +0.059 C 
ATOM     29  C   UNL     1      34.910  -6.867 -23.885  0.00  0.00    +0.030 C 
ATOM     30  C   UNL     1      34.121  -5.856 -24.436  0.00  0.00    +0.142 C 
ENDBRANCH  22  25
ENDBRANCH  19  22
ENDBRANCH  16  20
BRANCH  15  31
ATOM     31  O   UNL     1      33.739 -14.429 -25.778  0.00  0.00    -0.502 OA
ATOM     32  H   UNL     1      32.957 -14.661 -26.239  0.00  0.00    +0.292 HD
ENDBRANCH  15  31
TORSDOF 4
ENDMDL
MODEL 7
REMARK VINA RESULT:      -9.5      3.464      6.220
REMARK  Name = 54726191
REMARK  4 active torsions:
REMARK  status: ('A' for Active; 'I' for Inactive)
REMARK    1  A    between atoms: C_15  and  O_31
REMARK    2  A    between atoms: C_16  and  C_20
REMARK    3  A    between atoms: N_19  and  C_22
REMARK    4  A    between atoms: C_22  and  C_25
REMARK                            x       y       z     vdW  Elec       q    Type
REMARK                         _______ _______ _______ _____ _____    ______ ____
ROOT
ATOM      1  O   UNL     1      29.282 -23.065 -16.681  0.00  0.00    -0.336 OA
ATOM      2  O   UNL     1      31.690 -24.461 -12.897  0.00  0.00    -0.268 OA
ATOM      3  O   UNL     1      36.499 -23.915 -14.476  0.00  0.00    -0.283 OA
ATOM      4  N   UNL     1      30.506 -24.014 -14.835  0.00  0.00    -0.253 N 
ATOM      5  N   UNL     1      32.855 -22.932 -15.953  0.00  0.00    -0.275 N 
ATOM      6  C   UNL     1      30.534 -23.608 -16.245  0.00  0.00    +0.215 C 
ATOM      7  C   UNL     1      29.298 -24.693 -14.334  0.00  0.00    +0.080 C 
ATOM      8  C   UNL     1      28.026 -24.094 -14.935  0.00  0.00    +0.052 C 
ATOM      9  C   UNL     1      31.558 -22.506 -16.459  0.00  0.00    +0.147 C 
ATOM     10  C   UNL     1      28.173 -23.919 -16.433  0.00  0.00    +0.146 C 
ATOM     11  C   UNL     1      31.676 -24.077 -14.066  0.00  0.00    +0.267 C 
ATOM     12  C   UNL     1      32.951 -23.659 -14.763  0.00  0.00    +0.143 C 
ATOM     13  C   UNL     1      29.387 -26.203 -14.588  0.00  0.00    +0.022 C 
ATOM     14  C   UNL     1      34.021 -22.536 -16.594  0.00  0.00    +0.074 C 
ATOM     15  C   UNL     1      34.137 -24.018 -14.223  0.00  0.00    +0.191 C 
ATOM     16  C   UNL     1      35.260 -22.818 -16.173  0.00  0.00    +0.110 C 
ATOM     17  C   UNL     1      35.398 -23.609 -14.922  0.00  0.00    +0.236 C 
ENDROOT
BRANCH  16  20
ATOM     18  O   UNL     1      37.549 -22.447 -16.543  0.00  0.00    -0.270 OA
ATOM     19  N   UNL     1      36.017 -21.765 -18.164  0.00  0.00    -0.297 N 
ATOM     20  C   UNL     1      36.395 -22.334 -16.958  0.00  0.00    +0.251 C 
ATOM     21  H   UNL     1      35.058 -21.733 -18.384  0.00  0.00    +0.150 HD
BRANCH  19  22
ATOM     22  C   UNL     1      36.957 -21.214 -19.113  0.00  0.00    +0.119 C 
BRANCH  22  25
ATOM     23  F   UNL     1      34.216 -21.403 -19.789  0.00  0.00    -0.204 F 
ATOM     24  F   UNL     1      34.466 -17.755 -22.792  0.00  0.00    -0.204 F 
ATOM     25  C   UNL     1      36.292 -20.293 -20.094  0.00  0.00    +0.025 C 
ATOM     26  C   UNL     1      34.934 -20.441 -20.383  0.00  0.00    +0.140 C 
ATOM     27  C   UNL     1      37.032 -19.287 -20.716  0.00  0.00    +0.002 C 
ATOM     28  C   UNL     1      34.318 -19.584 -21.294  0.00  0.00    +0.059 C 
ATOM     29  C   UNL     1      36.414 -18.430 -21.628  0.00  0.00    +0.030 C 
ATOM     30  C   UNL     1      35.058 -18.578 -21.918  0.00  0.00    +0.142 C 
ENDBRANCH  22  25
ENDBRANCH  19  22
ENDBRANCH  16  20
BRANCH  15  31
ATOM     31  O   UNL     1      34.270 -24.756 -13.068  0.00  0.00    -0.502 OA
ATOM     32  H   UNL     1      33.815 -24.496 -12.291  0.00  0.00    +0.292 HD
ENDBRANCH  15  31
TORSDOF 4
ENDMDL
MODEL 8
REMARK VINA RESULT:      -9.4      9.834     15.977
REMARK  Name = 54726191
REMARK  4 active torsions:
REMARK  status: ('A' for Active; 'I' for Inactive)
REMARK    1  A    between atoms: C_15  and  O_31
REMARK    2  A    between atoms: C_16  and  C_20
REMARK    3  A    between atoms: N_19  and  C_22
REMARK    4  A    between atoms: C_22  and  C_25
REMARK                            x       y       z     vdW  Elec       q    Type
REMARK                         _______ _______ _______ _____ _____    ______ ____
ROOT
ATOM      1  O   UNL     1      34.186  -4.598 -26.927  0.00  0.00    -0.336 OA
ATOM      2  O   UNL     1      31.527  -2.029 -24.030  0.00  0.00    -0.268 OA
ATOM      3  O   UNL     1      30.115  -5.496 -20.580  0.00  0.00    -0.283 OA
ATOM      4  N   UNL     1      32.628  -3.339 -25.589  0.00  0.00    -0.253 N 
ATOM      5  N   UNL     1      32.704  -5.425 -23.698  0.00  0.00    -0.275 N 
ATOM      6  C   UNL     1      33.119  -4.667 -25.974  0.00  0.00    +0.215 C 
ATOM      7  C   UNL     1      32.485  -2.320 -26.645  0.00  0.00    +0.080 C 
ATOM      8  C   UNL     1      33.627  -2.398 -27.658  0.00  0.00    +0.052 C 
ATOM      9  C   UNL     1      33.692  -5.390 -24.766  0.00  0.00    +0.147 C 
ATOM     10  C   UNL     1      33.870  -3.833 -28.083  0.00  0.00    +0.146 C 
ATOM     11  C   UNL     1      31.994  -3.119 -24.358  0.00  0.00    +0.267 C 
ATOM     12  C   UNL     1      31.892  -4.317 -23.442  0.00  0.00    +0.143 C 
ATOM     13  C   UNL     1      31.116  -2.441 -27.325  0.00  0.00    +0.022 C 
ATOM     14  C   UNL     1      32.625  -6.525 -22.854  0.00  0.00    +0.074 C 
ATOM     15  C   UNL     1      31.009  -4.282 -22.419  0.00  0.00    +0.191 C 
ATOM     16  C   UNL     1      31.799  -6.628 -21.805  0.00  0.00    +0.110 C 
ATOM     17  C   UNL     1      30.906  -5.476 -21.518  0.00  0.00    +0.236 C 
ENDROOT
BRANCH  16  20
ATOM     18  O   UNL     1      32.211  -7.845 -19.839  0.00  0.00    -0.270 OA
ATOM     19  N   UNL     1      31.383  -8.965 -21.709  0.00  0.00    -0.297 N 
ATOM     20  C   UNL     1      31.826  -7.854 -21.009  0.00  0.00    +0.251 C 
ATOM     21  H   UNL     1      31.099  -8.844 -22.644  0.00  0.00    +0.150 HD
BRANCH  19  22
ATOM     22  C   UNL     1      31.316 -10.292 -21.139  0.00  0.00    +0.119 C 
BRANCH  22  25
ATOM     23  F   UNL     1      31.444 -13.043 -20.491  0.00  0.00    -0.204 F 
ATOM     24  F   UNL     1      34.596 -13.938 -23.905  0.00  0.00    -0.204 F 
ATOM     25  C   UNL     1      32.190 -11.265 -21.875  0.00  0.00    +0.025 C 
ATOM     26  C   UNL     1      32.206 -12.610 -21.504  0.00  0.00    +0.140 C 
ATOM     27  C   UNL     1      32.986 -10.823 -22.932  0.00  0.00    +0.002 C 
ATOM     28  C   UNL     1      33.019 -13.513 -22.190  0.00  0.00    +0.059 C 
ATOM     29  C   UNL     1      33.799 -11.727 -23.618  0.00  0.00    +0.030 C 
ATOM     30  C   UNL     1      33.816 -13.071 -23.247  0.00  0.00    +0.142 C 
ENDBRANCH  22  25
ENDBRANCH  19  22
ENDBRANCH  16  20
BRANCH  15  31
ATOM     31  O   UNL     1      30.175  -3.220 -22.153  0.00  0.00    -0.502 OA
ATOM     32  H   UNL     1      30.514  -2.450 -21.739  0.00  0.00    +0.292 HD
ENDBRANCH  15  31
TORSDOF 4
ENDMDL
MODEL 9
REMARK VINA RESULT:      -9.2      3.363      6.010
REMARK  Name = 54726191
REMARK  4 active torsions:
REMARK  status: ('A' for Active; 'I' for Inactive)
REMARK    1  A    between atoms: C_15  and  O_31
REMARK    2  A    between atoms: C_16  and  C_20
REMARK    3  A    between atoms: N_19  and  C_22
REMARK    4  A    between atoms: C_22  and  C_25
REMARK                            x       y       z     vdW  Elec       q    Type
REMARK                         _______ _______ _______ _____ _____    ______ ____
ROOT
ATOM      1  O   UNL     1      29.291 -23.139 -16.804  0.00  0.00    -0.336 OA
ATOM      2  O   UNL     1      31.761 -24.113 -12.929  0.00  0.00    -0.268 OA
ATOM      3  O   UNL     1      36.540 -23.510 -14.573  0.00  0.00    -0.283 OA
ATOM      4  N   UNL     1      30.556 -23.879 -14.892  0.00  0.00    -0.253 N 
ATOM      5  N   UNL     1      32.857 -22.802 -16.109  0.00  0.00    -0.275 N 
ATOM      6  C   UNL     1      30.565 -23.593 -16.331  0.00  0.00    +0.215 C 
ATOM      7  C   UNL     1      29.377 -24.561 -14.329  0.00  0.00    +0.080 C 
ATOM      8  C   UNL     1      28.081 -24.067 -14.972  0.00  0.00    +0.052 C 
ATOM      9  C   UNL     1      31.543 -22.473 -16.642  0.00  0.00    +0.147 C 
ATOM     10  C   UNL     1      28.218 -24.013 -16.480  0.00  0.00    +0.146 C 
ATOM     11  C   UNL     1      31.729 -23.829 -14.126  0.00  0.00    +0.267 C 
ATOM     12  C   UNL     1      32.984 -23.422 -14.863  0.00  0.00    +0.143 C 
ATOM     13  C   UNL     1      29.526 -26.083 -14.455  0.00  0.00    +0.022 C 
ATOM     14  C   UNL     1      34.005 -22.415 -16.787  0.00  0.00    +0.074 C 
ATOM     15  C   UNL     1      34.185 -23.686 -14.300  0.00  0.00    +0.191 C 
ATOM     16  C   UNL     1      35.255 -22.610 -16.350  0.00  0.00    +0.110 C 
ATOM     17  C   UNL     1      35.427 -23.287 -15.038  0.00  0.00    +0.236 C 
ENDROOT
BRANCH  16  20
ATOM     18  O   UNL     1      37.536 -22.369 -16.855  0.00  0.00    -0.270 OA
ATOM     19  N   UNL     1      35.954 -21.471 -18.314  0.00  0.00    -0.297 N 
ATOM     20  C   UNL     1      36.368 -22.149 -17.179  0.00  0.00    +0.251 C 
ATOM     21  H   UNL     1      34.988 -21.359 -18.464  0.00  0.00    +0.150 HD
BRANCH  19  22
ATOM     22  C   UNL     1      36.868 -20.919 -19.289  0.00  0.00    +0.119 C 
BRANCH  22  25
ATOM     23  F   UNL     1      37.998 -18.568 -20.386  0.00  0.00    -0.204 F 
ATOM     24  F   UNL     1      34.211 -17.735 -23.098  0.00  0.00    -0.204 F 
ATOM     25  C   UNL     1      36.161 -20.069 -20.304  0.00  0.00    +0.025 C 
ATOM     26  C   UNL     1      36.775 -18.921 -20.805  0.00  0.00    +0.140 C 
ATOM     27  C   UNL     1      34.888 -20.429 -20.747  0.00  0.00    +0.002 C 
ATOM     28  C   UNL     1      36.116 -18.133 -21.749  0.00  0.00    +0.059 C 
ATOM     29  C   UNL     1      34.229 -19.640 -21.691  0.00  0.00    +0.030 C 
ATOM     30  C   UNL     1      34.843 -18.492 -22.192  0.00  0.00    +0.142 C 
ENDBRANCH  22  25
ENDBRANCH  19  22
ENDBRANCH  16  20
BRANCH  15  31
ATOM     31  O   UNL     1      34.349 -24.317 -13.088  0.00  0.00    -0.502 OA
ATOM     32  H   UNL     1      33.604 -24.501 -12.551  0.00  0.00    +0.292 HD
ENDBRANCH  15  31
TORSDOF 4
ENDMDL
