MODEL 1
REMARK VINA RESULT:     -12.7      0.000      0.000
REMARK  Name = 115237
REMARK  5 active torsions:
REMARK  status: ('A' for Active; 'I' for Inactive)
REMARK    1  A    between atoms: N_1  and  C_18
REMARK    2  A    between atoms: C_2  and  C_11
REMARK    3  A    between atoms: C_18  and  C_19
REMARK    4  A    between atoms: C_19  and  C_23
REMARK    5  A    between atoms: C_25  and  O_32
REMARK                            x       y       z     vdW  Elec       q    Type
REMARK                         _______ _______ _______ _____ _____    ______ ____
ROOT
ATOM      1  N   UNL     1      35.755 -19.608 -20.240  0.00  0.00    +0.387 N 
ATOM      2  C   UNL     1      35.182 -18.474 -22.884  0.00  0.00    +0.039 C 
ATOM      3  C   UNL     1      34.100 -19.140 -22.020  0.00  0.00    -0.017 C 
ATOM      4  C   UNL     1      36.315 -17.947 -21.986  0.00  0.00    -0.017 C 
ATOM      5  C   UNL     1      34.704 -20.191 -21.086  0.00  0.00    -0.077 C 
ATOM      6  C   UNL     1      36.839 -19.041 -21.054  0.00  0.00    -0.077 C 
ATOM      7  H   UNL     1      35.338 -18.850 -19.699  0.00  0.00    -0.080 HD
ENDROOT
BRANCH   2  11
ATOM      8  F   UNL     1      33.383 -12.080 -23.933  0.00  0.00    -0.204 F 
ATOM      9  O   UNL     1      33.809 -16.566 -25.614  0.00  0.00    -0.354 OA
ATOM     10  N   UNL     1      34.272 -17.745 -25.044  0.00  0.00    -0.081 NA
ATOM     11  C   UNL     1      34.624 -17.412 -23.804  0.00  0.00    +0.100 A 
ATOM     12  C   UNL     1      34.416 -16.054 -23.520  0.00  0.00    +0.054 A 
ATOM     13  C   UNL     1      33.897 -15.558 -24.703  0.00  0.00    +0.179 A 
ATOM     14  C   UNL     1      34.595 -15.182 -22.435  0.00  0.00    +0.007 C 
ATOM     15  C   UNL     1      33.531 -14.230 -24.903  0.00  0.00    +0.070 C 
ATOM     16  C   UNL     1      34.236 -13.837 -22.601  0.00  0.00    +0.030 C 
ATOM     17  C   UNL     1      33.714 -13.373 -23.814  0.00  0.00    +0.143 C 
ENDBRANCH   2  11
BRANCH   1  18
ATOM     18  C   UNL     1      36.280 -20.611 -19.314  0.00  0.00    -0.076 C 
BRANCH  18  19
ATOM     19  C   UNL     1      35.464 -21.892 -19.419  0.00  0.00    -0.007 C 
BRANCH  19  23
ATOM     20  O   UNL     1      32.745 -22.244 -18.936  0.00  0.00    -0.274 OA
ATOM     21  N   UNL     1      33.010 -22.976 -16.740  0.00  0.00    -0.235 N 
ATOM     22  N   UNL     1      35.167 -22.953 -15.767  0.00  0.00    -0.397 NA
ATOM     23  C   UNL     1      34.946 -22.308 -18.072  0.00  0.00    +0.123 C 
ATOM     24  C   UNL     1      31.563 -23.143 -16.591  0.00  0.00    +0.100 C 
ATOM     25  C   UNL     1      33.347 -23.673 -14.356  0.00  0.00    +0.177 C 
ATOM     26  C   UNL     1      31.149 -24.031 -15.433  0.00  0.00    +0.025 C 
ATOM     27  C   UNL     1      31.846 -23.546 -14.180  0.00  0.00    +0.040 C 
ATOM     28  C   UNL     1      33.888 -23.150 -15.683  0.00  0.00    +0.192 C 
ATOM     29  C   UNL     1      33.467 -22.506 -17.974  0.00  0.00    +0.237 C 
ATOM     30  C   UNL     1      35.684 -22.532 -16.967  0.00  0.00    +0.097 C 
ATOM     31  C   UNL     1      37.175 -22.325 -16.922  0.00  0.00    +0.062 C 
BRANCH  25  32
ATOM     32  O   UNL     1      33.992 -22.972 -13.303  0.00  0.00    -0.376 OA
ATOM     33  H   UNL     1      33.625 -23.257 -12.452  0.00  0.00    +0.211 HD
ENDBRANCH  25  32
ENDBRANCH  19  23
ENDBRANCH  18  19
ENDBRANCH   1  18
TORSDOF 5
ENDMDL
MODEL 2
REMARK VINA RESULT:     -12.3      3.392     10.425
REMARK  Name = 115237
REMARK  5 active torsions:
REMARK  status: ('A' for Active; 'I' for Inactive)
REMARK    1  A    between atoms: N_1  and  C_18
REMARK    2  A    between atoms: C_2  and  C_11
REMARK    3  A    between atoms: C_18  and  C_19
REMARK    4  A    between atoms: C_19  and  C_23
REMARK    5  A    between atoms: C_25  and  O_32
REMARK                            x       y       z     vdW  Elec       q    Type
REMARK                         _______ _______ _______ _____ _____    ______ ____
ROOT
ATOM      1  N   UNL     1      34.456 -20.636 -19.854  0.00  0.00    +0.387 N 
ATOM      2  C   UNL     1      34.215 -22.743 -17.827  0.00  0.00    +0.039 C 
ATOM      3  C   UNL     1      35.535 -22.000 -18.093  0.00  0.00    -0.017 C 
ATOM      4  C   UNL     1      33.027 -21.862 -18.247  0.00  0.00    -0.017 C 
ATOM      5  C   UNL     1      35.606 -21.495 -19.536  0.00  0.00    -0.077 C 
ATOM      6  C   UNL     1      33.189 -21.361 -19.684  0.00  0.00    -0.077 C 
ATOM      7  H   UNL     1      34.459 -19.852 -19.201  0.00  0.00    -0.080 HD
ENDROOT
BRANCH   2  11
ATOM      8  F   UNL     1      30.400 -24.134 -12.467  0.00  0.00    -0.204 F 
ATOM      9  O   UNL     1      34.757 -24.015 -14.500  0.00  0.00    -0.354 OA
ATOM     10  N   UNL     1      35.199 -23.625 -15.758  0.00  0.00    -0.081 NA
ATOM     11  C   UNL     1      34.100 -23.238 -16.403  0.00  0.00    +0.100 A 
ATOM     12  C   UNL     1      32.938 -23.352 -15.626  0.00  0.00    +0.054 A 
ATOM     13  C   UNL     1      33.408 -23.852 -14.424  0.00  0.00    +0.179 A 
ATOM     14  C   UNL     1      31.565 -23.106 -15.772  0.00  0.00    +0.007 C 
ATOM     15  C   UNL     1      32.602 -24.135 -13.325  0.00  0.00    +0.070 C 
ATOM     16  C   UNL     1      30.724 -23.379 -14.684  0.00  0.00    +0.030 C 
ATOM     17  C   UNL     1      31.236 -23.885 -13.484  0.00  0.00    +0.143 C 
ENDBRANCH   2  11
BRANCH   1  18
ATOM     18  C   UNL     1      34.569 -20.115 -21.216  0.00  0.00    -0.076 C 
BRANCH  18  19
ATOM     19  C   UNL     1      35.443 -18.869 -21.223  0.00  0.00    -0.007 C 
BRANCH  19  23
ATOM     20  O   UNL     1      34.933 -16.228 -20.509  0.00  0.00    -0.274 OA
ATOM     21  N   UNL     1      34.364 -15.531 -22.658  0.00  0.00    -0.235 N 
ATOM     22  N   UNL     1      34.227 -17.133 -24.394  0.00  0.00    -0.397 NA
ATOM     23  C   UNL     1      34.936 -17.865 -22.216  0.00  0.00    +0.123 C 
ATOM     24  C   UNL     1      34.136 -14.163 -22.184  0.00  0.00    +0.100 C 
ATOM     25  C   UNL     1      33.676 -14.855 -24.971  0.00  0.00    +0.177 C 
ATOM     26  C   UNL     1      34.134 -13.112 -23.277  0.00  0.00    +0.025 C 
ATOM     27  C   UNL     1      33.184 -13.553 -24.370  0.00  0.00    +0.040 C 
ATOM     28  C   UNL     1      34.091 -15.918 -23.959  0.00  0.00    +0.192 C 
ATOM     29  C   UNL     1      34.754 -16.472 -21.702  0.00  0.00    +0.237 C 
ATOM     30  C   UNL     1      34.650 -18.097 -23.513  0.00  0.00    +0.097 C 
ATOM     31  C   UNL     1      34.746 -19.461 -24.141  0.00  0.00    +0.062 C 
BRANCH  25  32
ATOM     32  O   UNL     1      32.651 -15.396 -25.792  0.00  0.00    -0.376 OA
ATOM     33  H   UNL     1      32.823 -15.166 -26.718  0.00  0.00    +0.211 HD
ENDBRANCH  25  32
ENDBRANCH  19  23
ENDBRANCH  18  19
ENDBRANCH   1  18
TORSDOF 5
ENDMDL
MODEL 3
REMARK VINA RESULT:     -12.2      2.426      4.129
REMARK  Name = 115237
REMARK  5 active torsions:
REMARK  status: ('A' for Active; 'I' for Inactive)
REMARK    1  A    between atoms: N_1  and  C_18
REMARK    2  A    between atoms: C_2  and  C_11
REMARK    3  A    between atoms: C_18  and  C_19
REMARK    4  A    between atoms: C_19  and  C_23
REMARK    5  A    between atoms: C_25  and  O_32
REMARK                            x       y       z     vdW  Elec       q    Type
REMARK                         _______ _______ _______ _____ _____    ______ ____
ROOT
ATOM      1  N   UNL     1      34.259 -22.052 -18.346  0.00  0.00    +0.387 N 
ATOM      2  C   UNL     1      34.774 -20.275 -20.622  0.00  0.00    +0.039 C 
ATOM      3  C   UNL     1      33.387 -20.402 -19.971  0.00  0.00    -0.017 C 
ATOM      4  C   UNL     1      35.864 -20.651 -19.605  0.00  0.00    -0.017 C 
ATOM      5  C   UNL     1      33.200 -21.777 -19.327  0.00  0.00    -0.077 C 
ATOM      6  C   UNL     1      35.587 -22.018 -18.974  0.00  0.00    -0.077 C 
ATOM      7  H   UNL     1      34.227 -21.320 -17.636  0.00  0.00    -0.080 HD
ENDROOT
BRANCH   2  11
ATOM      8  F   UNL     1      34.039 -16.113 -25.853  0.00  0.00    -0.204 F 
ATOM      9  O   UNL     1      35.690 -16.879 -21.401  0.00  0.00    -0.354 OA
ATOM     10  N   UNL     1      35.648 -17.983 -20.558  0.00  0.00    -0.081 NA
ATOM     11  C   UNL     1      35.003 -18.919 -21.250  0.00  0.00    +0.100 A 
ATOM     12  C   UNL     1      34.610 -18.487 -22.525  0.00  0.00    +0.054 A 
ATOM     13  C   UNL     1      35.070 -17.183 -22.574  0.00  0.00    +0.179 A 
ATOM     14  C   UNL     1      33.934 -19.014 -23.636  0.00  0.00    +0.007 C 
ATOM     15  C   UNL     1      34.907 -16.334 -23.665  0.00  0.00    +0.070 C 
ATOM     16  C   UNL     1      33.754 -18.187 -24.753  0.00  0.00    +0.030 C 
ATOM     17  C   UNL     1      34.232 -16.872 -24.765  0.00  0.00    +0.143 C 
ENDBRANCH   2  11
BRANCH   1  18
ATOM     18  C   UNL     1      34.033 -23.344 -17.698  0.00  0.00    -0.076 C 
BRANCH  18  19
ATOM     19  C   UNL     1      32.977 -23.201 -16.611  0.00  0.00    -0.007 C 
BRANCH  19  23
ATOM     20  O   UNL     1      35.703 -22.969 -16.100  0.00  0.00    -0.274 OA
ATOM     21  N   UNL     1      35.542 -23.487 -13.834  0.00  0.00    -0.235 N 
ATOM     22  N   UNL     1      33.450 -24.147 -12.946  0.00  0.00    -0.397 NA
ATOM     23  C   UNL     1      33.558 -23.502 -15.259  0.00  0.00    +0.123 C 
ATOM     24  C   UNL     1      36.988 -23.325 -13.665  0.00  0.00    +0.100 C 
ATOM     25  C   UNL     1      35.322 -24.136 -11.423  0.00  0.00    +0.177 C 
ATOM     26  C   UNL     1      37.435 -23.133 -12.228  0.00  0.00    +0.025 C 
ATOM     27  C   UNL     1      36.835 -24.237 -11.384  0.00  0.00    +0.040 C 
ATOM     28  C   UNL     1      34.723 -23.938 -12.811  0.00  0.00    +0.192 C 
ATOM     29  C   UNL     1      35.031 -23.286 -15.119  0.00  0.00    +0.237 C 
ATOM     30  C   UNL     1      32.880 -23.925 -14.174  0.00  0.00    +0.097 C 
ATOM     31  C   UNL     1      31.404 -24.224 -14.196  0.00  0.00    +0.062 C 
BRANCH  25  32
ATOM     32  O   UNL     1      34.770 -25.319 -10.863  0.00  0.00    -0.376 OA
ATOM     33  H   UNL     1      35.412 -26.042 -10.938  0.00  0.00    +0.211 HD
ENDBRANCH  25  32
ENDBRANCH  19  23
ENDBRANCH  18  19
ENDBRANCH   1  18
TORSDOF 5
ENDMDL
MODEL 4
REMARK VINA RESULT:     -12.1      3.418     10.358
REMARK  Name = 115237
REMARK  5 active torsions:
REMARK  status: ('A' for Active; 'I' for Inactive)
REMARK    1  A    between atoms: N_1  and  C_18
REMARK    2  A    between atoms: C_2  and  C_11
REMARK    3  A    between atoms: C_18  and  C_19
REMARK    4  A    between atoms: C_19  and  C_23
REMARK    5  A    between atoms: C_25  and  O_32
REMARK                            x       y       z     vdW  Elec       q    Type
REMARK                         _______ _______ _______ _____ _____    ______ ____
ROOT
ATOM      1  N   UNL     1      34.098 -19.841 -20.908  0.00  0.00    +0.387 N 
ATOM      2  C   UNL     1      34.409 -22.009 -18.957  0.00  0.00    +0.039 C 
ATOM      3  C   UNL     1      35.596 -21.165 -19.448  0.00  0.00    -0.017 C 
ATOM      4  C   UNL     1      33.104 -21.209 -19.101  0.00  0.00    -0.017 C 
ATOM      5  C   UNL     1      35.344 -20.619 -20.855  0.00  0.00    -0.077 C 
ATOM      6  C   UNL     1      32.942 -20.662 -20.521  0.00  0.00    -0.077 C 
ATOM      7  H   UNL     1      34.178 -19.075 -20.238  0.00  0.00    -0.080 HD
ENDROOT
BRANCH   2  11
ATOM      8  F   UNL     1      31.818 -24.452 -13.252  0.00  0.00    -0.204 F 
ATOM      9  O   UNL     1      35.693 -23.168 -15.796  0.00  0.00    -0.354 OA
ATOM     10  N   UNL     1      35.850 -22.651 -17.076  0.00  0.00    -0.081 NA
ATOM     11  C   UNL     1      34.614 -22.547 -17.558  0.00  0.00    +0.100 A 
ATOM     12  C   UNL     1      33.633 -22.974 -16.652  0.00  0.00    +0.054 A 
ATOM     13  C   UNL     1      34.368 -23.360 -15.546  0.00  0.00    +0.179 A 
ATOM     14  C   UNL     1      32.234 -23.089 -16.615  0.00  0.00    +0.007 C 
ATOM     15  C   UNL     1      33.815 -23.865 -14.373  0.00  0.00    +0.070 C 
ATOM     16  C   UNL     1      31.643 -23.593 -15.448  0.00  0.00    +0.030 C 
ATOM     17  C   UNL     1      32.421 -23.973 -14.350  0.00  0.00    +0.143 C 
ENDBRANCH   2  11
BRANCH   1  18
ATOM     18  C   UNL     1      33.902 -19.279 -22.244  0.00  0.00    -0.076 C 
BRANCH  18  19
ATOM     19  C   UNL     1      35.126 -18.470 -22.650  0.00  0.00    -0.007 C 
BRANCH  19  23
ATOM     20  O   UNL     1      34.566 -17.572 -25.224  0.00  0.00    -0.274 OA
ATOM     21  N   UNL     1      34.008 -15.404 -24.578  0.00  0.00    -0.235 N 
ATOM     22  N   UNL     1      34.288 -14.764 -22.317  0.00  0.00    -0.397 NA
ATOM     23  C   UNL     1      34.756 -17.042 -22.927  0.00  0.00    +0.123 C 
ATOM     24  C   UNL     1      33.722 -15.034 -25.966  0.00  0.00    +0.100 C 
ATOM     25  C   UNL     1      33.504 -13.063 -23.839  0.00  0.00    +0.177 C 
ATOM     26  C   UNL     1      32.880 -13.782 -26.121  0.00  0.00    +0.025 C 
ATOM     27  C   UNL     1      33.508 -12.673 -25.304  0.00  0.00    +0.040 C 
ATOM     28  C   UNL     1      33.983 -14.481 -23.546  0.00  0.00    +0.192 C 
ATOM     29  C   UNL     1      34.433 -16.715 -24.351  0.00  0.00    +0.237 C 
ATOM     30  C   UNL     1      34.673 -16.048 -22.021  0.00  0.00    +0.097 C 
ATOM     31  C   UNL     1      35.015 -16.235 -20.566  0.00  0.00    +0.062 C 
BRANCH  25  32
ATOM     32  O   UNL     1      34.329 -12.156 -23.122  0.00  0.00    -0.376 OA
ATOM     33  H   UNL     1      34.044 -12.122 -22.196  0.00  0.00    +0.211 HD
ENDBRANCH  25  32
ENDBRANCH  19  23
ENDBRANCH  18  19
ENDBRANCH   1  18
TORSDOF 5
ENDMDL
MODEL 5
REMARK VINA RESULT:     -12.0      3.476     10.388
REMARK  Name = 115237
REMARK  5 active torsions:
REMARK  status: ('A' for Active; 'I' for Inactive)
REMARK    1  A    between atoms: N_1  and  C_18
REMARK    2  A    between atoms: C_2  and  C_11
REMARK    3  A    between atoms: C_18  and  C_19
REMARK    4  A    between atoms: C_19  and  C_23
REMARK    5  A    between atoms: C_25  and  O_32
REMARK                            x       y       z     vdW  Elec       q    Type
REMARK                         _______ _______ _______ _____ _____    ______ ____
ROOT
ATOM      1  N   UNL     1      34.888 -20.221 -20.073  0.00  0.00    +0.387 N 
ATOM      2  C   UNL     1      33.613 -22.323 -18.473  0.00  0.00    +0.039 C 
ATOM      3  C   UNL     1      35.082 -21.916 -18.280  0.00  0.00    -0.017 C 
ATOM      4  C   UNL     1      32.822 -21.151 -19.078  0.00  0.00    -0.017 C 
ATOM      5  C   UNL     1      35.678 -21.356 -19.573  0.00  0.00    -0.077 C 
ATOM      6  C   UNL     1      33.499 -20.618 -20.343  0.00  0.00    -0.077 C 
ATOM      7  H   UNL     1      34.875 -19.503 -19.348  0.00  0.00    -0.080 HD
ENDROOT
BRANCH   2  11
ATOM      8  F   UNL     1      34.300 -24.727 -12.230  0.00  0.00    -0.204 F 
ATOM      9  O   UNL     1      31.410 -23.484 -15.869  0.00  0.00    -0.354 OA
ATOM     10  N   UNL     1      31.659 -22.971 -17.136  0.00  0.00    -0.081 NA
ATOM     11  C   UNL     1      32.984 -22.860 -17.207  0.00  0.00    +0.100 A 
ATOM     12  C   UNL     1      33.634 -23.279 -16.038  0.00  0.00    +0.054 A 
ATOM     13  C   UNL     1      32.590 -23.667 -15.215  0.00  0.00    +0.179 A 
ATOM     14  C   UNL     1      34.950 -23.381 -15.563  0.00  0.00    +0.007 C 
ATOM     15  C   UNL     1      32.751 -24.161 -13.924  0.00  0.00    +0.070 C 
ATOM     16  C   UNL     1      35.149 -23.877 -14.266  0.00  0.00    +0.030 C 
ATOM     17  C   UNL     1      34.068 -24.258 -13.465  0.00  0.00    +0.143 C 
ENDBRANCH   2  11
BRANCH   1  18
ATOM     18  C   UNL     1      35.503 -19.662 -21.277  0.00  0.00    -0.076 C 
BRANCH  18  19
ATOM     19  C   UNL     1      35.611 -18.149 -21.148  0.00  0.00    -0.007 C 
BRANCH  19  23
ATOM     20  O   UNL     1      34.918 -15.454 -21.091  0.00  0.00    -0.274 OA
ATOM     21  N   UNL     1      34.220 -15.364 -23.312  0.00  0.00    -0.235 N 
ATOM     22  N   UNL     1      34.151 -17.359 -24.583  0.00  0.00    -0.397 NA
ATOM     23  C   UNL     1      34.991 -17.465 -22.332  0.00  0.00    +0.123 C 
ATOM     24  C   UNL     1      33.901 -13.940 -23.184  0.00  0.00    +0.100 C 
ATOM     25  C   UNL     1      33.402 -15.345 -25.681  0.00  0.00    +0.177 C 
ATOM     26  C   UNL     1      33.778 -13.203 -24.504  0.00  0.00    +0.025 C 
ATOM     27  C   UNL     1      32.829 -13.970 -25.398  0.00  0.00    +0.040 C 
ATOM     28  C   UNL     1      33.935 -16.086 -24.459  0.00  0.00    +0.192 C 
ATOM     29  C   UNL     1      34.717 -16.003 -22.173  0.00  0.00    +0.237 C 
ATOM     30  C   UNL     1      34.679 -18.037 -23.512  0.00  0.00    +0.097 C 
ATOM     31  C   UNL     1      34.862 -19.507 -23.784  0.00  0.00    +0.062 C 
BRANCH  25  32
ATOM     32  O   UNL     1      32.395 -16.145 -26.284  0.00  0.00    -0.376 OA
ATOM     33  H   UNL     1      32.284 -15.881 -27.210  0.00  0.00    +0.211 HD
ENDBRANCH  25  32
ENDBRANCH  19  23
ENDBRANCH  18  19
ENDBRANCH   1  18
TORSDOF 5
ENDMDL
MODEL 6
REMARK VINA RESULT:     -11.8      3.391     10.385
REMARK  Name = 115237
REMARK  5 active torsions:
REMARK  status: ('A' for Active; 'I' for Inactive)
REMARK    1  A    between atoms: N_1  and  C_18
REMARK    2  A    between atoms: C_2  and  C_11
REMARK    3  A    between atoms: C_18  and  C_19
REMARK    4  A    between atoms: C_19  and  C_23
REMARK    5  A    between atoms: C_25  and  O_32
REMARK                            x       y       z     vdW  Elec       q    Type
REMARK                         _______ _______ _______ _____ _____    ______ ____
ROOT
ATOM      1  N   UNL     1      35.586 -18.981 -20.935  0.00  0.00    +0.387 N 
ATOM      2  C   UNL     1      35.089 -21.520 -19.552  0.00  0.00    +0.039 C 
ATOM      3  C   UNL     1      36.394 -20.726 -19.378  0.00  0.00    -0.017 C 
ATOM      4  C   UNL     1      33.953 -20.571 -19.970  0.00  0.00    -0.017 C 
ATOM      5  C   UNL     1      36.701 -19.884 -20.617  0.00  0.00    -0.077 C 
ATOM      6  C   UNL     1      34.349 -19.733 -21.188  0.00  0.00    -0.077 C 
ATOM      7  H   UNL     1      35.428 -18.379 -20.126  0.00  0.00    -0.080 HD
ENDROOT
BRANCH   2  11
ATOM      8  F   UNL     1      36.556 -23.549 -13.311  0.00  0.00    -0.204 F 
ATOM      9  O   UNL     1      33.608 -23.714 -17.108  0.00  0.00    -0.354 OA
ATOM     10  N   UNL     1      33.636 -23.092 -18.350  0.00  0.00    -0.081 NA
ATOM     11  C   UNL     1      34.741 -22.348 -18.336  0.00  0.00    +0.100 A 
ATOM     12  C   UNL     1      35.455 -22.447 -17.134  0.00  0.00    +0.054 A 
ATOM     13  C   UNL     1      34.694 -23.327 -16.384  0.00  0.00    +0.179 A 
ATOM     14  C   UNL     1      36.629 -21.917 -16.578  0.00  0.00    +0.007 C 
ATOM     15  C   UNL     1      35.013 -23.735 -15.092  0.00  0.00    +0.070 C 
ATOM     16  C   UNL     1      36.981 -22.308 -15.278  0.00  0.00    +0.030 C 
ATOM     17  C   UNL     1      36.185 -23.200 -14.552  0.00  0.00    +0.143 C 
ENDBRANCH   2  11
BRANCH   1  18
ATOM     18  C   UNL     1      35.919 -18.142 -22.086  0.00  0.00    -0.076 C 
BRANCH  18  19
ATOM     19  C   UNL     1      34.686 -17.945 -22.957  0.00  0.00    -0.007 C 
BRANCH  19  23
ATOM     20  O   UNL     1      34.329 -16.988 -25.546  0.00  0.00    -0.274 OA
ATOM     21  N   UNL     1      33.936 -14.782 -24.908  0.00  0.00    -0.235 N 
ATOM     22  N   UNL     1      34.166 -14.180 -22.631  0.00  0.00    -0.397 NA
ATOM     23  C   UNL     1      34.458 -16.488 -23.238  0.00  0.00    +0.123 C 
ATOM     24  C   UNL     1      33.750 -14.381 -26.305  0.00  0.00    +0.100 C 
ATOM     25  C   UNL     1      33.608 -12.409 -24.172  0.00  0.00    +0.177 C 
ATOM     26  C   UNL     1      33.031 -13.058 -26.487  0.00  0.00    +0.025 C 
ATOM     27  C   UNL     1      33.716 -12.014 -25.632  0.00  0.00    +0.040 C 
ATOM     28  C   UNL     1      33.945 -13.865 -23.870  0.00  0.00    +0.192 C 
ATOM     29  C   UNL     1      34.232 -16.127 -24.673  0.00  0.00    +0.237 C 
ATOM     30  C   UNL     1      34.421 -15.494 -22.328  0.00  0.00    +0.097 C 
ATOM     31  C   UNL     1      34.676 -15.718 -20.861  0.00  0.00    +0.062 C 
BRANCH  25  32
ATOM     32  O   UNL     1      34.476 -11.582 -23.410  0.00  0.00    -0.376 OA
ATOM     33  H   UNL     1      34.126 -10.678 -23.390  0.00  0.00    +0.211 HD
ENDBRANCH  25  32
ENDBRANCH  19  23
ENDBRANCH  18  19
ENDBRANCH   1  18
TORSDOF 5
ENDMDL
MODEL 7
REMARK VINA RESULT:     -11.7      1.783      2.455
REMARK  Name = 115237
REMARK  5 active torsions:
REMARK  status: ('A' for Active; 'I' for Inactive)
REMARK    1  A    between atoms: N_1  and  C_18
REMARK    2  A    between atoms: C_2  and  C_11
REMARK    3  A    between atoms: C_18  and  C_19
REMARK    4  A    between atoms: C_19  and  C_23
REMARK    5  A    between atoms: C_25  and  O_32
REMARK                            x       y       z     vdW  Elec       q    Type
REMARK                         _______ _______ _______ _____ _____    ______ ____
ROOT
ATOM      1  N   UNL     1      36.205 -20.565 -20.395  0.00  0.00    +0.387 N 
ATOM      2  C   UNL     1      35.018 -18.344 -21.900  0.00  0.00    +0.039 C 
ATOM      3  C   UNL     1      36.527 -18.639 -21.917  0.00  0.00    -0.017 C 
ATOM      4  C   UNL     1      34.238 -19.627 -21.569  0.00  0.00    -0.017 C 
ATOM      5  C   UNL     1      36.972 -19.332 -20.627  0.00  0.00    -0.077 C 
ATOM      6  C   UNL     1      34.766 -20.284 -20.292  0.00  0.00    -0.077 C 
ATOM      7  H   UNL     1      36.349 -21.180 -21.197  0.00  0.00    -0.080 HD
ENDROOT
BRANCH   2  11
ATOM      8  F   UNL     1      33.367 -12.747 -25.243  0.00  0.00    -0.204 F 
ATOM      9  O   UNL     1      33.862 -17.532 -25.214  0.00  0.00    -0.354 OA
ATOM     10  N   UNL     1      34.270 -18.430 -24.236  0.00  0.00    -0.081 NA
ATOM     11  C   UNL     1      34.538 -17.679 -23.170  0.00  0.00    +0.100 A 
ATOM     12  C   UNL     1      34.325 -16.311 -23.394  0.00  0.00    +0.054 A 
ATOM     13  C   UNL     1      33.896 -16.268 -24.709  0.00  0.00    +0.179 A 
ATOM     14  C   UNL     1      34.437 -15.112 -22.674  0.00  0.00    +0.007 C 
ATOM     15  C   UNL     1      33.559 -15.099 -25.386  0.00  0.00    +0.070 C 
ATOM     16  C   UNL     1      34.105 -13.916 -23.325  0.00  0.00    +0.030 C 
ATOM     17  C   UNL     1      33.675 -13.913 -24.656  0.00  0.00    +0.143 C 
ENDBRANCH   2  11
BRANCH   1  18
ATOM     18  C   UNL     1      36.682 -21.244 -19.191  0.00  0.00    -0.076 C 
BRANCH  18  19
ATOM     19  C   UNL     1      35.500 -21.634 -18.314  0.00  0.00    -0.007 C 
BRANCH  19  23
ATOM     20  O   UNL     1      34.157 -23.652 -16.946  0.00  0.00    -0.274 OA
ATOM     21  N   UNL     1      35.673 -23.758 -15.179  0.00  0.00    -0.235 N 
ATOM     22  N   UNL     1      37.441 -22.189 -15.077  0.00  0.00    -0.397 NA
ATOM     23  C   UNL     1      35.967 -22.130 -16.976  0.00  0.00    +0.123 C 
ATOM     24  C   UNL     1      34.902 -24.831 -14.545  0.00  0.00    +0.100 C 
ATOM     25  C   UNL     1      37.286 -23.770 -13.261  0.00  0.00    +0.177 C 
ATOM     26  C   UNL     1      35.668 -25.625 -13.506  0.00  0.00    +0.025 C 
ATOM     27  C   UNL     1      36.299 -24.658 -12.527  0.00  0.00    +0.040 C 
ATOM     28  C   UNL     1      36.773 -23.178 -14.570  0.00  0.00    +0.192 C 
ATOM     29  C   UNL     1      35.176 -23.252 -16.383  0.00  0.00    +0.237 C 
ATOM     30  C   UNL     1      37.028 -21.674 -16.281  0.00  0.00    +0.097 C 
ATOM     31  C   UNL     1      37.878 -20.521 -16.746  0.00  0.00    +0.062 C 
BRANCH  25  32
ATOM     32  O   UNL     1      37.664 -22.701 -12.405  0.00  0.00    -0.376 OA
ATOM     33  H   UNL     1      37.871 -23.050 -11.525  0.00  0.00    +0.211 HD
ENDBRANCH  25  32
ENDBRANCH  19  23
ENDBRANCH  18  19
ENDBRANCH   1  18
TORSDOF 5
ENDMDL
MODEL 8
REMARK VINA RESULT:     -11.7      3.788     10.548
REMARK  Name = 115237
REMARK  5 active torsions:
REMARK  status: ('A' for Active; 'I' for Inactive)
REMARK    1  A    between atoms: N_1  and  C_18
REMARK    2  A    between atoms: C_2  and  C_11
REMARK    3  A    between atoms: C_18  and  C_19
REMARK    4  A    between atoms: C_19  and  C_23
REMARK    5  A    between atoms: C_25  and  O_32
REMARK                            x       y       z     vdW  Elec       q    Type
REMARK                         _______ _______ _______ _____ _____    ______ ____
ROOT
ATOM      1  N   UNL     1      34.852 -20.628 -19.509  0.00  0.00    +0.387 N 
ATOM      2  C   UNL     1      35.963 -22.422 -17.472  0.00  0.00    +0.039 C 
ATOM      3  C   UNL     1      36.746 -21.224 -18.032  0.00  0.00    -0.017 C 
ATOM      4  C   UNL     1      34.452 -22.172 -17.617  0.00  0.00    -0.017 C 
ATOM      5  C   UNL     1      36.298 -20.884 -19.455  0.00  0.00    -0.077 C 
ATOM      6  C   UNL     1      34.088 -21.797 -19.056  0.00  0.00    -0.077 C 
ATOM      7  H   UNL     1      34.646 -19.853 -18.877  0.00  0.00    -0.080 HD
ENDROOT
BRANCH   2  11
ATOM      8  F   UNL     1      34.342 -24.918 -11.441  0.00  0.00    -0.204 F 
ATOM      9  O   UNL     1      37.650 -22.962 -14.335  0.00  0.00    -0.354 OA
ATOM     10  N   UNL     1      37.610 -22.534 -15.656  0.00  0.00    -0.081 NA
ATOM     11  C   UNL     1      36.363 -22.773 -16.057  0.00  0.00    +0.100 A 
ATOM     12  C   UNL     1      35.564 -23.344 -15.056  0.00  0.00    +0.054 A 
ATOM     13  C   UNL     1      36.427 -23.446 -13.979  0.00  0.00    +0.179 A 
ATOM     14  C   UNL     1      34.241 -23.788 -14.913  0.00  0.00    +0.007 C 
ATOM     15  C   UNL     1      36.075 -23.967 -12.738  0.00  0.00    +0.070 C 
ATOM     16  C   UNL     1      33.851 -24.318 -13.675  0.00  0.00    +0.030 C 
ATOM     17  C   UNL     1      34.753 -24.404 -12.610  0.00  0.00    +0.143 C 
ENDBRANCH   2  11
BRANCH   1  18
ATOM     18  C   UNL     1      34.451 -20.248 -20.864  0.00  0.00    -0.076 C 
BRANCH  18  19
ATOM     19  C   UNL     1      35.575 -19.475 -21.540  0.00  0.00    -0.007 C 
BRANCH  19  23
ATOM     20  O   UNL     1      35.154 -16.834 -20.768  0.00  0.00    -0.274 OA
ATOM     21  N   UNL     1      34.466 -16.103 -22.871  0.00  0.00    -0.235 N 
ATOM     22  N   UNL     1      34.196 -17.683 -24.612  0.00  0.00    -0.397 NA
ATOM     23  C   UNL     1      35.024 -18.451 -22.490  0.00  0.00    +0.123 C 
ATOM     24  C   UNL     1      34.291 -14.738 -22.370  0.00  0.00    +0.100 C 
ATOM     25  C   UNL     1      33.650 -15.391 -25.131  0.00  0.00    +0.177 C 
ATOM     26  C   UNL     1      34.240 -13.675 -23.450  0.00  0.00    +0.025 C 
ATOM     27  C   UNL     1      33.217 -14.088 -24.487  0.00  0.00    +0.040 C 
ATOM     28  C   UNL     1      34.108 -16.472 -24.157  0.00  0.00    +0.192 C 
ATOM     29  C   UNL     1      34.898 -17.062 -21.950  0.00  0.00    +0.237 C 
ATOM     30  C   UNL     1      34.656 -18.664 -23.768  0.00  0.00    +0.097 C 
ATOM     31  C   UNL     1      34.691 -20.023 -24.416  0.00  0.00    +0.062 C 
BRANCH  25  32
ATOM     32  O   UNL     1      32.567 -15.906 -25.893  0.00  0.00    -0.376 OA
ATOM     33  H   UNL     1      31.761 -15.409 -25.685  0.00  0.00    +0.211 HD
ENDBRANCH  25  32
ENDBRANCH  19  23
ENDBRANCH  18  19
ENDBRANCH   1  18
TORSDOF 5
ENDMDL
MODEL 9
REMARK VINA RESULT:     -11.6      2.651      4.333
REMARK  Name = 115237
REMARK  5 active torsions:
REMARK  status: ('A' for Active; 'I' for Inactive)
REMARK    1  A    between atoms: N_1  and  C_18
REMARK    2  A    between atoms: C_2  and  C_11
REMARK    3  A    between atoms: C_18  and  C_19
REMARK    4  A    between atoms: C_19  and  C_23
REMARK    5  A    between atoms: C_25  and  O_32
REMARK                            x       y       z     vdW  Elec       q    Type
REMARK                         _______ _______ _______ _____ _____    ______ ____
ROOT
ATOM      1  N   UNL     1      35.212 -17.012 -23.118  0.00  0.00    +0.387 N 
ATOM      2  C   UNL     1      33.665 -14.520 -23.123  0.00  0.00    +0.039 C 
ATOM      3  C   UNL     1      34.619 -14.897 -21.978  0.00  0.00    -0.017 C 
ATOM      4  C   UNL     1      34.102 -15.223 -24.419  0.00  0.00    -0.017 C 
ATOM      5  C   UNL     1      34.763 -16.415 -21.852  0.00  0.00    -0.077 C 
ATOM      6  C   UNL     1      34.265 -16.730 -24.205  0.00  0.00    -0.077 C 
ATOM      7  H   UNL     1      36.108 -16.589 -23.364  0.00  0.00    -0.080 HD
ENDROOT
BRANCH   2  11
ATOM      8  F   UNL     1      31.246  -8.652 -20.901  0.00  0.00    -0.204 F 
ATOM      9  O   UNL     1      33.765 -11.083 -24.199  0.00  0.00    -0.354 OA
ATOM     10  N   UNL     1      34.083 -12.429 -24.338  0.00  0.00    -0.081 NA
ATOM     11  C   UNL     1      33.516 -13.025 -23.291  0.00  0.00    +0.100 A 
ATOM     12  C   UNL     1      32.829 -12.132 -22.456  0.00  0.00    +0.054 A 
ATOM     13  C   UNL     1      33.017 -10.909 -23.075  0.00  0.00    +0.179 A 
ATOM     14  C   UNL     1      32.082 -12.188 -21.270  0.00  0.00    +0.007 C 
ATOM     15  C   UNL     1      32.509  -9.703 -22.600  0.00  0.00    +0.070 C 
ATOM     16  C   UNL     1      31.554 -10.992 -20.763  0.00  0.00    +0.030 C 
ATOM     17  C   UNL     1      31.766  -9.774 -21.418  0.00  0.00    +0.143 C 
ENDBRANCH   2  11
BRANCH   1  18
ATOM     18  C   UNL     1      35.401 -18.454 -22.965  0.00  0.00    -0.076 C 
BRANCH  18  19
ATOM     19  C   UNL     1      34.231 -19.050 -22.193  0.00  0.00    -0.007 C 
BRANCH  19  23
ATOM     20  O   UNL     1      32.492 -20.518 -20.590  0.00  0.00    -0.274 OA
ATOM     21  N   UNL     1      34.154 -21.373 -19.199  0.00  0.00    -0.235 N 
ATOM     22  N   UNL     1      36.383 -20.625 -19.466  0.00  0.00    -0.397 NA
ATOM     23  C   UNL     1      34.714 -19.816 -20.996  0.00  0.00    +0.123 C 
ATOM     24  C   UNL     1      33.160 -22.122 -18.426  0.00  0.00    +0.100 C 
ATOM     25  C   UNL     1      35.970 -22.194 -17.679  0.00  0.00    +0.177 C 
ATOM     26  C   UNL     1      33.735 -23.248 -17.588  0.00  0.00    +0.025 C 
ATOM     27  C   UNL     1      34.876 -22.700 -16.759  0.00  0.00    +0.040 C 
ATOM     28  C   UNL     1      35.490 -21.325 -18.837  0.00  0.00    +0.192 C 
ATOM     29  C   UNL     1      33.674 -20.598 -20.258  0.00  0.00    +0.237 C 
ATOM     30  C   UNL     1      35.982 -19.875 -20.544  0.00  0.00    +0.097 C 
ATOM     31  C   UNL     1      37.112 -19.099 -21.168  0.00  0.00    +0.062 C 
BRANCH  25  32
ATOM     32  O   UNL     1      36.901 -21.443 -16.913  0.00  0.00    -0.376 OA
ATOM     33  H   UNL     1      37.671 -21.995 -16.709  0.00  0.00    +0.211 HD
ENDBRANCH  25  32
ENDBRANCH  19  23
ENDBRANCH  18  19
ENDBRANCH   1  18
TORSDOF 5
ENDMDL
