MODEL 1
REMARK VINA RESULT:     -13.8      0.000      0.000
REMARK  Name = 67335295
REMARK  6 active torsions:
REMARK  status: ('A' for Active; 'I' for Inactive)
REMARK    1  A    between atoms: N_2  and  C_14
REMARK    2  A    between atoms: C_7  and  O_20
REMARK    3  A    between atoms: O_20  and  C_21
REMARK    4  A    between atoms: C_21  and  C_23
REMARK    5  A    between atoms: C_22  and  C_28
REMARK    6  A    between atoms: C_28  and  N_30
REMARK                            x       y       z     vdW  Elec       q    Type
REMARK                         _______ _______ _______ _____ _____    ______ ____
ROOT
ATOM      1  O   UNL     1      33.298 -24.683 -12.421  0.00  0.00    -0.270 OA
ATOM      2  N   UNL     1      34.417 -23.911 -14.354  0.00  0.00    -0.265 N 
ATOM      3  C   UNL     1      34.036 -23.329 -15.635  0.00  0.00    +0.124 C 
ATOM      4  C   UNL     1      32.550 -23.288 -15.525  0.00  0.00    +0.036 C 
ATOM      5  C   UNL     1      33.329 -24.200 -13.538  0.00  0.00    +0.249 C 
ATOM      6  C   UNL     1      32.137 -23.799 -14.294  0.00  0.00    +0.054 C 
ATOM      7  C   UNL     1      31.619 -22.833 -16.439  0.00  0.00    +0.137 C 
ATOM      8  C   UNL     1      30.808 -23.878 -13.926  0.00  0.00    +0.004 C 
ATOM      9  C   UNL     1      30.266 -22.902 -16.092  0.00  0.00    +0.037 C 
ATOM     10  C   UNL     1      29.864 -23.420 -14.847  0.00  0.00    +0.003 C 
ENDROOT
BRANCH   2  14
ATOM     11  O   UNL     1      35.588 -26.196 -15.259  0.00  0.00    -0.273 OA
ATOM     12  O   UNL     1      38.694 -26.212 -11.859  0.00  0.00    -0.275 OA
ATOM     13  N   UNL     1      37.108 -26.178 -13.531  0.00  0.00    -0.254 N 
ATOM     14  C   UNL     1      35.782 -24.160 -13.971  0.00  0.00    +0.153 C 
ATOM     15  C   UNL     1      35.997 -23.883 -12.491  0.00  0.00    +0.039 C 
ATOM     16  C   UNL     1      37.439 -24.191 -12.126  0.00  0.00    +0.088 C 
ATOM     17  C   UNL     1      36.108 -25.602 -14.314  0.00  0.00    +0.246 C 
ATOM     18  C   UNL     1      37.802 -25.617 -12.463  0.00  0.00    +0.228 C 
ATOM     19  H   UNL     1      37.354 -27.102 -13.764  0.00  0.00    +0.158 HD
ENDBRANCH   2  14
BRANCH   7  20
ATOM     20  O   UNL     1      31.997 -22.333 -17.644  0.00  0.00    -0.471 OA
BRANCH  20  21
ATOM     21  C   UNL     1      33.162 -22.898 -18.247  0.00  0.00    +0.232 C 
BRANCH  21  23
ATOM     22  C   UNL     1      35.080 -19.904 -20.650  0.00  0.00    -0.043 C 
ATOM     23  C   UNL     1      33.832 -21.852 -19.089  0.00  0.00    +0.021 C 
ATOM     24  C   UNL     1      35.849 -20.796 -19.900  0.00  0.00    -0.007 C 
ATOM     25  C   UNL     1      33.688 -19.986 -20.618  0.00  0.00    -0.007 C 
ATOM     26  C   UNL     1      35.225 -21.770 -19.120  0.00  0.00    -0.001 C 
ATOM     27  C   UNL     1      33.064 -20.961 -19.838  0.00  0.00    -0.001 C 
BRANCH  22  28
ATOM     28  C   UNL     1      35.748 -18.863 -21.483  0.00  0.00    -0.050 C 
BRANCH  28  30
ATOM     29  O   UNL     1      34.224 -17.199 -25.022  0.00  0.00    -0.358 OA
ATOM     30  N   UNL     1      34.836 -18.257 -22.451  0.00  0.00    +0.393 N 
ATOM     31  C   UNL     1      35.329 -16.940 -22.878  0.00  0.00    -0.044 C 
ATOM     32  C   UNL     1      34.660 -19.131 -23.619  0.00  0.00    -0.044 C 
ATOM     33  C   UNL     1      33.715 -18.472 -24.621  0.00  0.00    +0.119 C 
ATOM     34  C   UNL     1      34.369 -16.333 -23.896  0.00  0.00    +0.119 C 
ATOM     35  H   UNL     1      33.932 -18.135 -21.996  0.00  0.00    -0.079 HD
ENDBRANCH  28  30
ENDBRANCH  22  28
ENDBRANCH  21  23
ENDBRANCH  20  21
ENDBRANCH   7  20
TORSDOF 6
ENDMDL
MODEL 2
REMARK VINA RESULT:     -12.9      3.396     11.899
REMARK  Name = 67335295
REMARK  6 active torsions:
REMARK  status: ('A' for Active; 'I' for Inactive)
REMARK    1  A    between atoms: N_2  and  C_14
REMARK    2  A    between atoms: C_7  and  O_20
REMARK    3  A    between atoms: O_20  and  C_21
REMARK    4  A    between atoms: C_21  and  C_23
REMARK    5  A    between atoms: C_22  and  C_28
REMARK    6  A    between atoms: C_28  and  N_30
REMARK                            x       y       z     vdW  Elec       q    Type
REMARK                         _______ _______ _______ _____ _____    ______ ____
ROOT
ATOM      1  O   UNL     1      33.156 -14.100 -25.020  0.00  0.00    -0.270 OA
ATOM      2  N   UNL     1      33.967 -14.133 -22.801  0.00  0.00    -0.265 N 
ATOM      3  C   UNL     1      34.511 -15.131 -21.888  0.00  0.00    +0.124 C 
ATOM      4  C   UNL     1      34.473 -16.365 -22.724  0.00  0.00    +0.036 C 
ATOM      5  C   UNL     1      33.628 -14.654 -24.044  0.00  0.00    +0.249 C 
ATOM      6  C   UNL     1      33.954 -16.084 -23.988  0.00  0.00    +0.054 C 
ATOM      7  C   UNL     1      34.865 -17.651 -22.401  0.00  0.00    +0.137 C 
ATOM      8  C   UNL     1      33.806 -17.047 -24.966  0.00  0.00    +0.004 C 
ATOM      9  C   UNL     1      34.726 -18.646 -23.373  0.00  0.00    +0.037 C 
ATOM     10  C   UNL     1      34.200 -18.347 -24.645  0.00  0.00    +0.003 C 
ENDROOT
BRANCH   2  14
ATOM     11  O   UNL     1      31.995 -13.507 -21.030  0.00  0.00    -0.273 OA
ATOM     12  O   UNL     1      31.729  -9.161 -22.524  0.00  0.00    -0.275 OA
ATOM     13  N   UNL     1      31.879 -11.350 -21.822  0.00  0.00    -0.254 N 
ATOM     14  C   UNL     1      33.797 -12.747 -22.450  0.00  0.00    +0.153 C 
ATOM     15  C   UNL     1      33.843 -11.858 -23.683  0.00  0.00    +0.039 C 
ATOM     16  C   UNL     1      33.628 -10.413 -23.270  0.00  0.00    +0.088 C 
ATOM     17  C   UNL     1      32.473 -12.608 -21.721  0.00  0.00    +0.246 C 
ATOM     18  C   UNL     1      32.322 -10.238 -22.532  0.00  0.00    +0.228 C 
ATOM     19  H   UNL     1      31.037 -11.235 -21.325  0.00  0.00    +0.158 HD
ENDBRANCH   2  14
BRANCH   7  20
ATOM     20  O   UNL     1      35.371 -17.949 -21.177  0.00  0.00    -0.471 OA
BRANCH  20  21
ATOM     21  C   UNL     1      36.188 -19.116 -21.075  0.00  0.00    +0.232 C 
BRANCH  21  23
ATOM     22  C   UNL     1      34.071 -22.123 -18.863  0.00  0.00    -0.043 C 
ATOM     23  C   UNL     1      35.448 -20.166 -20.300  0.00  0.00    +0.021 C 
ATOM     24  C   UNL     1      35.467 -22.085 -18.831  0.00  0.00    -0.007 C 
ATOM     25  C   UNL     1      33.366 -21.183 -19.612  0.00  0.00    -0.007 C 
ATOM     26  C   UNL     1      36.154 -21.107 -19.550  0.00  0.00    -0.001 C 
ATOM     27  C   UNL     1      34.054 -20.204 -20.331  0.00  0.00    -0.001 C 
BRANCH  22  28
ATOM     28  C   UNL     1      33.337 -23.169 -18.095  0.00  0.00    -0.050 C 
BRANCH  28  30
ATOM     29  O   UNL     1      32.810 -23.582 -13.951  0.00  0.00    -0.358 OA
ATOM     30  N   UNL     1      33.264 -22.862 -16.667  0.00  0.00    +0.393 N 
ATOM     31  C   UNL     1      31.909 -23.101 -16.152  0.00  0.00    -0.044 C 
ATOM     32  C   UNL     1      34.239 -23.661 -15.911  0.00  0.00    -0.044 C 
ATOM     33  C   UNL     1      34.135 -23.333 -14.424  0.00  0.00    +0.119 C 
ATOM     34  C   UNL     1      31.860 -22.786 -14.660  0.00  0.00    +0.119 C 
ATOM     35  H   UNL     1      33.489 -21.874 -16.548  0.00  0.00    -0.079 HD
ENDBRANCH  28  30
ENDBRANCH  22  28
ENDBRANCH  21  23
ENDBRANCH  20  21
ENDBRANCH   7  20
TORSDOF 6
ENDMDL
MODEL 3
REMARK VINA RESULT:     -12.7      7.545     14.947
REMARK  Name = 67335295
REMARK  6 active torsions:
REMARK  status: ('A' for Active; 'I' for Inactive)
REMARK    1  A    between atoms: N_2  and  C_14
REMARK    2  A    between atoms: C_7  and  O_20
REMARK    3  A    between atoms: O_20  and  C_21
REMARK    4  A    between atoms: C_21  and  C_23
REMARK    5  A    between atoms: C_22  and  C_28
REMARK    6  A    between atoms: C_28  and  N_30
REMARK                            x       y       z     vdW  Elec       q    Type
REMARK                         _______ _______ _______ _____ _____    ______ ____
ROOT
ATOM      1  O   UNL     1      32.769  -6.677 -20.031  0.00  0.00    -0.270 OA
ATOM      2  N   UNL     1      33.052  -7.692 -22.146  0.00  0.00    -0.265 N 
ATOM      3  C   UNL     1      32.862  -9.021 -22.715  0.00  0.00    +0.124 C 
ATOM      4  C   UNL     1      32.369  -9.792 -21.539  0.00  0.00    +0.036 C 
ATOM      5  C   UNL     1      32.726  -7.623 -20.797  0.00  0.00    +0.249 C 
ATOM      6  C   UNL     1      32.290  -8.971 -20.414  0.00  0.00    +0.054 C 
ATOM      7  C   UNL     1      32.012 -11.125 -21.456  0.00  0.00    +0.137 C 
ATOM      8  C   UNL     1      31.862  -9.429 -19.183  0.00  0.00    +0.004 C 
ATOM      9  C   UNL     1      31.575 -11.615 -20.221  0.00  0.00    +0.037 C 
ATOM     10  C   UNL     1      31.501 -10.774 -19.094  0.00  0.00    +0.003 C 
ENDROOT
BRANCH   2  14
ATOM     11  O   UNL     1      31.197  -5.995 -23.191  0.00  0.00    -0.273 OA
ATOM     12  O   UNL     1      34.087  -4.485 -26.441  0.00  0.00    -0.275 OA
ATOM     13  N   UNL     1      32.666  -5.284 -24.813  0.00  0.00    -0.254 N 
ATOM     14  C   UNL     1      33.528  -6.566 -22.905  0.00  0.00    +0.153 C 
ATOM     15  C   UNL     1      34.623  -6.980 -23.876  0.00  0.00    +0.039 C 
ATOM     16  C   UNL     1      35.069  -5.770 -24.676  0.00  0.00    +0.088 C 
ATOM     17  C   UNL     1      32.343  -5.961 -23.636  0.00  0.00    +0.246 C 
ATOM     18  C   UNL     1      33.913  -5.134 -25.411  0.00  0.00    +0.228 C 
ATOM     19  H   UNL     1      31.912  -4.857 -25.280  0.00  0.00    +0.158 HD
ENDBRANCH   2  14
BRANCH   7  20
ATOM     20  O   UNL     1      32.082 -11.944 -22.536  0.00  0.00    -0.471 OA
BRANCH  20  21
ATOM     21  C   UNL     1      33.344 -12.043 -23.198  0.00  0.00    +0.232 C 
BRANCH  21  23
ATOM     22  C   UNL     1      34.500 -16.171 -23.410  0.00  0.00    -0.043 C 
ATOM     23  C   UNL     1      33.746 -13.487 -23.272  0.00  0.00    +0.021 C 
ATOM     24  C   UNL     1      34.649 -15.464 -22.215  0.00  0.00    -0.007 C 
ATOM     25  C   UNL     1      33.975 -15.535 -24.535  0.00  0.00    -0.007 C 
ATOM     26  C   UNL     1      34.272 -14.123 -22.147  0.00  0.00    -0.001 C 
ATOM     27  C   UNL     1      33.597 -14.193 -24.466  0.00  0.00    -0.001 C 
BRANCH  22  28
ATOM     28  C   UNL     1      34.903 -17.604 -23.483  0.00  0.00    -0.050 C 
BRANCH  28  30
ATOM     29  O   UNL     1      35.951 -20.300 -20.442  0.00  0.00    -0.358 OA
ATOM     30  N   UNL     1      35.130 -18.186 -22.161  0.00  0.00    +0.393 N 
ATOM     31  C   UNL     1      34.305 -19.387 -21.973  0.00  0.00    -0.044 C 
ATOM     32  C   UNL     1      36.549 -18.514 -21.972  0.00  0.00    -0.044 C 
ATOM     33  C   UNL     1      36.759 -19.131 -20.592  0.00  0.00    +0.119 C 
ATOM     34  C   UNL     1      34.567 -19.983 -20.593  0.00  0.00    +0.119 C 
ATOM     35  H   UNL     1      34.859 -17.492 -21.464  0.00  0.00    -0.079 HD
ENDBRANCH  28  30
ENDBRANCH  22  28
ENDBRANCH  21  23
ENDBRANCH  20  21
ENDBRANCH   7  20
TORSDOF 6
ENDMDL
MODEL 4
REMARK VINA RESULT:     -12.2      2.156      4.868
REMARK  Name = 67335295
REMARK  6 active torsions:
REMARK  status: ('A' for Active; 'I' for Inactive)
REMARK    1  A    between atoms: N_2  and  C_14
REMARK    2  A    between atoms: C_7  and  O_20
REMARK    3  A    between atoms: O_20  and  C_21
REMARK    4  A    between atoms: C_21  and  C_23
REMARK    5  A    between atoms: C_22  and  C_28
REMARK    6  A    between atoms: C_28  and  N_30
REMARK                            x       y       z     vdW  Elec       q    Type
REMARK                         _______ _______ _______ _____ _____    ______ ____
ROOT
ATOM      1  O   UNL     1      31.934 -25.333 -12.762  0.00  0.00    -0.270 OA
ATOM      2  N   UNL     1      31.618 -23.744 -14.482  0.00  0.00    -0.265 N 
ATOM      3  C   UNL     1      32.466 -23.020 -15.421  0.00  0.00    +0.124 C 
ATOM      4  C   UNL     1      33.822 -23.528 -15.067  0.00  0.00    +0.036 C 
ATOM      5  C   UNL     1      32.330 -24.595 -13.645  0.00  0.00    +0.249 C 
ATOM      6  C   UNL     1      33.741 -24.452 -14.025  0.00  0.00    +0.054 C 
ATOM      7  C   UNL     1      35.047 -23.205 -15.620  0.00  0.00    +0.137 C 
ATOM      8  C   UNL     1      34.851 -25.082 -13.497  0.00  0.00    +0.004 C 
ATOM      9  C   UNL     1      36.188 -23.828 -15.104  0.00  0.00    +0.037 C 
ATOM     10  C   UNL     1      36.090 -24.759 -14.052  0.00  0.00    +0.003 C 
ENDROOT
BRANCH   2  14
ATOM     11  O   UNL     1      30.099 -25.589 -15.786  0.00  0.00    -0.273 OA
ATOM     12  O   UNL     1      26.513 -22.721 -16.123  0.00  0.00    -0.275 OA
ATOM     13  N   UNL     1      28.339 -24.116 -15.953  0.00  0.00    -0.254 N 
ATOM     14  C   UNL     1      30.188 -23.593 -14.426  0.00  0.00    +0.153 C 
ATOM     15  C   UNL     1      29.777 -22.149 -14.672  0.00  0.00    +0.039 C 
ATOM     16  C   UNL     1      28.263 -22.044 -14.637  0.00  0.00    +0.088 C 
ATOM     17  C   UNL     1      29.580 -24.522 -15.461  0.00  0.00    +0.246 C 
ATOM     18  C   UNL     1      27.622 -22.963 -15.648  0.00  0.00    +0.228 C 
ATOM     19  H   UNL     1      27.916 -24.726 -16.599  0.00  0.00    +0.158 HD
ENDBRANCH   2  14
BRANCH   7  20
ATOM     20  O   UNL     1      35.151 -22.308 -16.633  0.00  0.00    -0.471 OA
BRANCH  20  21
ATOM     21  C   UNL     1      34.478 -22.622 -17.854  0.00  0.00    +0.232 C 
BRANCH  21  23
ATOM     22  C   UNL     1      35.644 -19.787 -20.858  0.00  0.00    -0.043 C 
ATOM     23  C   UNL     1      34.886 -21.632 -18.906  0.00  0.00    +0.021 C 
ATOM     24  C   UNL     1      36.615 -20.416 -20.076  0.00  0.00    -0.007 C 
ATOM     25  C   UNL     1      34.295 -20.081 -20.662  0.00  0.00    -0.007 C 
ATOM     26  C   UNL     1      36.236 -21.338 -19.101  0.00  0.00    -0.001 C 
ATOM     27  C   UNL     1      33.916 -21.004 -19.686  0.00  0.00    -0.001 C 
BRANCH  22  28
ATOM     28  C   UNL     1      36.050 -18.802 -21.900  0.00  0.00    -0.050 C 
BRANCH  28  30
ATOM     29  O   UNL     1      33.726 -17.241 -25.028  0.00  0.00    -0.358 OA
ATOM     30  N   UNL     1      34.910 -18.301 -22.666  0.00  0.00    +0.393 N 
ATOM     31  C   UNL     1      35.130 -16.908 -23.077  0.00  0.00    -0.044 C 
ATOM     32  C   UNL     1      34.665 -19.142 -23.846  0.00  0.00    -0.044 C 
ATOM     33  C   UNL     1      33.480 -18.593 -24.637  0.00  0.00    +0.119 C 
ATOM     34  C   UNL     1      33.934 -16.412 -23.884  0.00  0.00    +0.119 C 
ATOM     35  H   UNL     1      34.088 -18.337 -22.063  0.00  0.00    -0.079 HD
ENDBRANCH  28  30
ENDBRANCH  22  28
ENDBRANCH  21  23
ENDBRANCH  20  21
ENDBRANCH   7  20
TORSDOF 6
ENDMDL
MODEL 5
REMARK VINA RESULT:     -12.2      5.489      9.977
REMARK  Name = 67335295
REMARK  6 active torsions:
REMARK  status: ('A' for Active; 'I' for Inactive)
REMARK    1  A    between atoms: N_2  and  C_14
REMARK    2  A    between atoms: C_7  and  O_20
REMARK    3  A    between atoms: O_20  and  C_21
REMARK    4  A    between atoms: C_21  and  C_23
REMARK    5  A    between atoms: C_22  and  C_28
REMARK    6  A    between atoms: C_28  and  N_30
REMARK                            x       y       z     vdW  Elec       q    Type
REMARK                         _______ _______ _______ _____ _____    ______ ____
ROOT
ATOM      1  O   UNL     1      34.622 -20.124 -24.006  0.00  0.00    -0.270 OA
ATOM      2  N   UNL     1      34.942 -19.177 -21.865  0.00  0.00    -0.265 N 
ATOM      3  C   UNL     1      34.977 -17.834 -21.297  0.00  0.00    +0.124 C 
ATOM      4  C   UNL     1      34.735 -16.985 -22.498  0.00  0.00    +0.036 C 
ATOM      5  C   UNL     1      34.710 -19.186 -23.235  0.00  0.00    +0.249 C 
ATOM      6  C   UNL     1      34.579 -17.780 -23.635  0.00  0.00    +0.054 C 
ATOM      7  C   UNL     1      34.655 -15.609 -22.593  0.00  0.00    +0.137 C 
ATOM      8  C   UNL     1      34.342 -17.251 -24.888  0.00  0.00    +0.004 C 
ATOM      9  C   UNL     1      34.417 -15.047 -23.851  0.00  0.00    +0.037 C 
ATOM     10  C   UNL     1      34.261 -15.862 -24.989  0.00  0.00    +0.003 C 
ENDROOT
BRANCH   2  14
ATOM     11  O   UNL     1      32.734 -20.324 -20.760  0.00  0.00    -0.273 OA
ATOM     12  O   UNL     1      35.199 -22.456 -17.508  0.00  0.00    -0.275 OA
ATOM     13  N   UNL     1      34.001 -21.353 -19.139  0.00  0.00    -0.254 N 
ATOM     14  C   UNL     1      35.129 -20.372 -21.085  0.00  0.00    +0.153 C 
ATOM     15  C   UNL     1      36.309 -20.231 -20.136  0.00  0.00    +0.039 C 
ATOM     16  C   UNL     1      36.447 -21.499 -19.314  0.00  0.00    +0.088 C 
ATOM     17  C   UNL     1      33.842 -20.640 -20.327  0.00  0.00    +0.246 C 
ATOM     18  C   UNL     1      35.180 -21.804 -18.551  0.00  0.00    +0.228 C 
ATOM     19  H   UNL     1      33.172 -21.565 -18.653  0.00  0.00    +0.158 HD
ENDBRANCH   2  14
BRANCH   7  20
ATOM     20  O   UNL     1      34.806 -14.815 -21.502  0.00  0.00    -0.471 OA
BRANCH  20  21
ATOM     21  C   UNL     1      33.681 -14.684 -20.630  0.00  0.00    +0.232 C 
BRANCH  21  23
ATOM     22  C   UNL     1      31.665 -10.996 -21.493  0.00  0.00    -0.043 C 
ATOM     23  C   UNL     1      32.974 -13.396 -20.933  0.00  0.00    +0.021 C 
ATOM     24  C   UNL     1      32.659 -11.466 -22.353  0.00  0.00    -0.007 C 
ATOM     25  C   UNL     1      31.326 -11.726 -20.354  0.00  0.00    -0.007 C 
ATOM     26  C   UNL     1      33.314 -12.666 -22.072  0.00  0.00    -0.001 C 
ATOM     27  C   UNL     1      31.981 -12.926 -20.074  0.00  0.00    -0.001 C 
BRANCH  22  28
ATOM     28  C   UNL     1      30.966  -9.714 -21.793  0.00  0.00    -0.050 C 
BRANCH  28  30
ATOM     29  O   UNL     1      32.280  -5.922 -20.561  0.00  0.00    -0.358 OA
ATOM     30  N   UNL     1      31.817  -8.549 -21.557  0.00  0.00    +0.393 N 
ATOM     31  C   UNL     1      31.276  -7.363 -22.236  0.00  0.00    -0.044 C 
ATOM     32  C   UNL     1      31.953  -8.286 -20.117  0.00  0.00    -0.044 C 
ATOM     33  C   UNL     1      32.834  -7.059 -19.896  0.00  0.00    +0.119 C 
ATOM     34  C   UNL     1      32.173  -6.159 -21.965  0.00  0.00    +0.119 C 
ATOM     35  H   UNL     1      32.739  -8.752 -21.940  0.00  0.00    -0.079 HD
ENDBRANCH  28  30
ENDBRANCH  22  28
ENDBRANCH  21  23
ENDBRANCH  20  21
ENDBRANCH   7  20
TORSDOF 6
ENDMDL
MODEL 6
REMARK VINA RESULT:     -12.1      6.505     11.562
REMARK  Name = 67335295
REMARK  6 active torsions:
REMARK  status: ('A' for Active; 'I' for Inactive)
REMARK    1  A    between atoms: N_2  and  C_14
REMARK    2  A    between atoms: C_7  and  O_20
REMARK    3  A    between atoms: O_20  and  C_21
REMARK    4  A    between atoms: C_21  and  C_23
REMARK    5  A    between atoms: C_22  and  C_28
REMARK    6  A    between atoms: C_28  and  N_30
REMARK                            x       y       z     vdW  Elec       q    Type
REMARK                         _______ _______ _______ _____ _____    ______ ____
ROOT
ATOM      1  O   UNL     1      34.764 -18.091 -25.125  0.00  0.00    -0.270 OA
ATOM      2  N   UNL     1      34.946 -17.379 -22.879  0.00  0.00    -0.265 N 
ATOM      3  C   UNL     1      34.618 -16.177 -22.121  0.00  0.00    +0.124 C 
ATOM      4  C   UNL     1      34.041 -15.295 -23.176  0.00  0.00    +0.036 C 
ATOM      5  C   UNL     1      34.624 -17.280 -24.228  0.00  0.00    +0.249 C 
ATOM      6  C   UNL     1      34.046 -15.944 -24.411  0.00  0.00    +0.054 C 
ATOM      7  C   UNL     1      33.544 -14.010 -23.064  0.00  0.00    +0.137 C 
ATOM      8  C   UNL     1      33.567 -15.355 -25.565  0.00  0.00    +0.004 C 
ATOM      9  C   UNL     1      33.053 -13.391 -24.217  0.00  0.00    +0.037 C 
ATOM     10  C   UNL     1      33.064 -14.058 -25.457  0.00  0.00    +0.003 C 
ENDROOT
BRANCH   2  14
ATOM     11  O   UNL     1      33.300 -19.451 -22.239  0.00  0.00    -0.273 OA
ATOM     12  O   UNL     1      36.250 -21.118 -19.121  0.00  0.00    -0.275 OA
ATOM     13  N   UNL     1      34.793 -20.237 -20.675  0.00  0.00    -0.254 N 
ATOM     14  C   UNL     1      35.542 -18.549 -22.291  0.00  0.00    +0.153 C 
ATOM     15  C   UNL     1      36.536 -18.172 -21.203  0.00  0.00    +0.039 C 
ATOM     16  C   UNL     1      37.113 -19.435 -20.590  0.00  0.00    +0.088 C 
ATOM     17  C   UNL     1      34.424 -19.415 -21.740  0.00  0.00    +0.246 C 
ATOM     18  C   UNL     1      36.027 -20.328 -20.038  0.00  0.00    +0.228 C 
ATOM     19  H   UNL     1      34.087 -20.830 -20.329  0.00  0.00    +0.158 HD
ENDBRANCH   2  14
BRANCH   7  20
ATOM     20  O   UNL     1      33.531 -13.359 -21.873  0.00  0.00    -0.471 OA
BRANCH  20  21
ATOM     21  C   UNL     1      32.257 -13.127 -21.270  0.00  0.00    +0.232 C 
BRANCH  21  23
ATOM     22  C   UNL     1      31.811  -8.925 -20.522  0.00  0.00    -0.043 C 
ATOM     23  C   UNL     1      32.099 -11.658 -21.009  0.00  0.00    +0.021 C 
ATOM     24  C   UNL     1      32.041  -9.383 -21.821  0.00  0.00    -0.007 C 
ATOM     25  C   UNL     1      31.726  -9.834 -19.468  0.00  0.00    -0.007 C 
ATOM     26  C   UNL     1      32.185 -10.750 -22.063  0.00  0.00    -0.001 C 
ATOM     27  C   UNL     1      31.869 -11.201 -19.711  0.00  0.00    -0.001 C 
BRANCH  22  28
ATOM     28  C   UNL     1      31.658  -7.465 -20.263  0.00  0.00    -0.050 C 
BRANCH  28  30
ATOM     29  O   UNL     1      31.809  -4.330 -23.050  0.00  0.00    -0.358 OA
ATOM     30  N   UNL     1      31.503  -6.696 -21.496  0.00  0.00    +0.393 N 
ATOM     31  C   UNL     1      30.661  -5.512 -21.270  0.00  0.00    -0.044 C 
ATOM     32  C   UNL     1      32.812  -6.288 -22.025  0.00  0.00    -0.044 C 
ATOM     33  C   UNL     1      32.625  -5.476 -23.303  0.00  0.00    +0.119 C 
ATOM     34  C   UNL     1      30.524  -4.720 -22.566  0.00  0.00    +0.119 C 
ATOM     35  H   UNL     1      31.046  -7.294 -22.184  0.00  0.00    -0.079 HD
ENDBRANCH  28  30
ENDBRANCH  22  28
ENDBRANCH  21  23
ENDBRANCH  20  21
ENDBRANCH   7  20
TORSDOF 6
ENDMDL
MODEL 7
REMARK VINA RESULT:     -12.0      1.745      2.696
REMARK  Name = 67335295
REMARK  6 active torsions:
REMARK  status: ('A' for Active; 'I' for Inactive)
REMARK    1  A    between atoms: N_2  and  C_14
REMARK    2  A    between atoms: C_7  and  O_20
REMARK    3  A    between atoms: O_20  and  C_21
REMARK    4  A    between atoms: C_21  and  C_23
REMARK    5  A    between atoms: C_22  and  C_28
REMARK    6  A    between atoms: C_28  and  N_30
REMARK                            x       y       z     vdW  Elec       q    Type
REMARK                         _______ _______ _______ _____ _____    ______ ____
ROOT
ATOM      1  O   UNL     1      33.560 -24.053 -14.166  0.00  0.00    -0.270 OA
ATOM      2  N   UNL     1      35.608 -23.805 -15.319  0.00  0.00    -0.265 N 
ATOM      3  C   UNL     1      36.039 -23.268 -16.604  0.00  0.00    +0.124 C 
ATOM      4  C   UNL     1      34.749 -22.812 -17.196  0.00  0.00    +0.036 C 
ATOM      5  C   UNL     1      34.236 -23.707 -15.117  0.00  0.00    +0.249 C 
ATOM      6  C   UNL     1      33.692 -23.071 -16.323  0.00  0.00    +0.054 C 
ATOM      7  C   UNL     1      34.514 -22.211 -18.418  0.00  0.00    +0.137 C 
ATOM      8  C   UNL     1      32.383 -22.749 -16.620  0.00  0.00    +0.004 C 
ATOM      9  C   UNL     1      33.196 -21.876 -18.745  0.00  0.00    +0.037 C 
ATOM     10  C   UNL     1      32.140 -22.142 -17.853  0.00  0.00    +0.003 C 
ENDROOT
BRANCH   2  14
ATOM     11  O   UNL     1      36.048 -26.489 -15.439  0.00  0.00    -0.273 OA
ATOM     12  O   UNL     1      37.353 -26.695 -11.028  0.00  0.00    -0.275 OA
ATOM     13  N   UNL     1      36.672 -26.551 -13.226  0.00  0.00    -0.254 N 
ATOM     14  C   UNL     1      36.510 -24.378 -14.356  0.00  0.00    +0.153 C 
ATOM     15  C   UNL     1      36.234 -23.846 -12.958  0.00  0.00    +0.039 C 
ATOM     16  C   UNL     1      37.185 -24.502 -11.973  0.00  0.00    +0.088 C 
ATOM     17  C   UNL     1      36.355 -25.887 -14.411  0.00  0.00    +0.246 C 
ATOM     18  C   UNL     1      37.066 -26.007 -12.007  0.00  0.00    +0.228 C 
ATOM     19  H   UNL     1      36.609 -27.533 -13.256  0.00  0.00    +0.158 HD
ENDBRANCH   2  14
BRANCH   7  20
ATOM     20  O   UNL     1      35.526 -21.952 -19.285  0.00  0.00    -0.471 OA
BRANCH  20  21
ATOM     21  C   UNL     1      36.146 -20.668 -19.200  0.00  0.00    +0.232 C 
BRANCH  21  23
ATOM     22  C   UNL     1      35.225 -18.426 -22.741  0.00  0.00    -0.043 C 
ATOM     23  C   UNL     1      35.824 -19.886 -20.439  0.00  0.00    +0.021 C 
ATOM     24  C   UNL     1      36.488 -18.318 -22.154  0.00  0.00    -0.007 C 
ATOM     25  C   UNL     1      34.264 -19.263 -22.176  0.00  0.00    -0.007 C 
ATOM     26  C   UNL     1      36.787 -19.048 -21.004  0.00  0.00    -0.001 C 
ATOM     27  C   UNL     1      34.563 -19.994 -21.025  0.00  0.00    -0.001 C 
BRANCH  22  28
ATOM     28  C   UNL     1      34.906 -17.645 -23.970  0.00  0.00    -0.050 C 
BRANCH  28  30
ATOM     29  O   UNL     1      33.966 -13.576 -23.551  0.00  0.00    -0.358 OA
ATOM     30  N   UNL     1      34.180 -16.412 -23.672  0.00  0.00    +0.393 N 
ATOM     31  C   UNL     1      34.878 -15.632 -22.641  0.00  0.00    -0.044 C 
ATOM     32  C   UNL     1      34.009 -15.602 -24.887  0.00  0.00    -0.044 C 
ATOM     33  C   UNL     1      33.260 -14.315 -24.549  0.00  0.00    +0.119 C 
ATOM     34  C   UNL     1      34.109 -14.345 -22.357  0.00  0.00    +0.119 C 
ATOM     35  H   UNL     1      33.258 -16.669 -23.319  0.00  0.00    -0.079 HD
ENDBRANCH  28  30
ENDBRANCH  22  28
ENDBRANCH  21  23
ENDBRANCH  20  21
ENDBRANCH   7  20
TORSDOF 6
ENDMDL
MODEL 8
REMARK VINA RESULT:     -11.9      2.254      5.051
REMARK  Name = 67335295
REMARK  6 active torsions:
REMARK  status: ('A' for Active; 'I' for Inactive)
REMARK    1  A    between atoms: N_2  and  C_14
REMARK    2  A    between atoms: C_7  and  O_20
REMARK    3  A    between atoms: O_20  and  C_21
REMARK    4  A    between atoms: C_21  and  C_23
REMARK    5  A    between atoms: C_22  and  C_28
REMARK    6  A    between atoms: C_28  and  N_30
REMARK                            x       y       z     vdW  Elec       q    Type
REMARK                         _______ _______ _______ _____ _____    ______ ____
ROOT
ATOM      1  O   UNL     1      34.315 -24.776 -13.819  0.00  0.00    -0.270 OA
ATOM      2  N   UNL     1      33.519 -23.382 -15.554  0.00  0.00    -0.265 N 
ATOM      3  C   UNL     1      34.106 -22.496 -16.552  0.00  0.00    +0.124 C 
ATOM      4  C   UNL     1      35.562 -22.623 -16.258  0.00  0.00    +0.036 C 
ATOM      5  C   UNL     1      34.465 -23.991 -14.738  0.00  0.00    +0.249 C 
ATOM      6  C   UNL     1      35.771 -23.500 -15.193  0.00  0.00    +0.054 C 
ATOM      7  C   UNL     1      36.635 -22.012 -16.880  0.00  0.00    +0.137 C 
ATOM      8  C   UNL     1      37.030 -23.802 -14.711  0.00  0.00    +0.004 C 
ATOM      9  C   UNL     1      37.921 -22.300 -16.410  0.00  0.00    +0.037 C 
ATOM     10  C   UNL     1      38.116 -23.188 -15.335  0.00  0.00    +0.003 C 
ENDROOT
BRANCH   2  14
ATOM     11  O   UNL     1      31.951 -22.810 -17.705  0.00  0.00    -0.273 OA
ATOM     12  O   UNL     1      28.188 -22.295 -15.102  0.00  0.00    -0.275 OA
ATOM     13  N   UNL     1      30.100 -22.540 -16.365  0.00  0.00    -0.254 N 
ATOM     14  C   UNL     1      32.103 -23.605 -15.427  0.00  0.00    +0.153 C 
ATOM     15  C   UNL     1      31.578 -23.071 -14.103  0.00  0.00    +0.039 C 
ATOM     16  C   UNL     1      30.079 -23.298 -14.028  0.00  0.00    +0.088 C 
ATOM     17  C   UNL     1      31.417 -22.932 -16.603  0.00  0.00    +0.246 C 
ATOM     18  C   UNL     1      29.363 -22.650 -15.189  0.00  0.00    +0.228 C 
ATOM     19  H   UNL     1      29.631 -22.134 -17.129  0.00  0.00    +0.158 HD
ENDBRANCH   2  14
BRANCH   7  20
ATOM     20  O   UNL     1      36.456 -21.153 -17.916  0.00  0.00    -0.471 OA
BRANCH  20  21
ATOM     21  C   UNL     1      35.792 -21.659 -19.075  0.00  0.00    +0.232 C 
BRANCH  21  23
ATOM     22  C   UNL     1      35.540 -18.547 -22.019  0.00  0.00    -0.043 C 
ATOM     23  C   UNL     1      35.703 -20.569 -20.103  0.00  0.00    +0.021 C 
ATOM     24  C   UNL     1      34.429 -19.352 -21.756  0.00  0.00    -0.007 C 
ATOM     25  C   UNL     1      36.731 -18.755 -21.324  0.00  0.00    -0.007 C 
ATOM     26  C   UNL     1      34.512 -20.362 -20.798  0.00  0.00    -0.001 C 
ATOM     27  C   UNL     1      36.813 -19.766 -20.365  0.00  0.00    -0.001 C 
BRANCH  22  28
ATOM     28  C   UNL     1      35.451 -17.467 -23.043  0.00  0.00    -0.050 C 
BRANCH  28  30
ATOM     29  O   UNL     1      33.942 -13.682 -22.039  0.00  0.00    -0.358 OA
ATOM     30  N   UNL     1      34.537 -16.398 -22.646  0.00  0.00    +0.393 N 
ATOM     31  C   UNL     1      34.975 -15.779 -21.388  0.00  0.00    -0.044 C 
ATOM     32  C   UNL     1      34.436 -15.380 -23.701  0.00  0.00    -0.044 C 
ATOM     33  C   UNL     1      33.487 -14.269 -23.259  0.00  0.00    +0.119 C 
ATOM     34  C   UNL     1      34.012 -14.659 -21.001  0.00  0.00    +0.119 C 
ATOM     35  H   UNL     1      33.616 -16.812 -22.503  0.00  0.00    -0.079 HD
ENDBRANCH  28  30
ENDBRANCH  22  28
ENDBRANCH  21  23
ENDBRANCH  20  21
ENDBRANCH   7  20
TORSDOF 6
ENDMDL
MODEL 9
REMARK VINA RESULT:     -11.4     10.524     15.176
REMARK  Name = 67335295
REMARK  6 active torsions:
REMARK  status: ('A' for Active; 'I' for Inactive)
REMARK    1  A    between atoms: N_2  and  C_14
REMARK    2  A    between atoms: C_7  and  O_20
REMARK    3  A    between atoms: O_20  and  C_21
REMARK    4  A    between atoms: C_21  and  C_23
REMARK    5  A    between atoms: C_22  and  C_28
REMARK    6  A    between atoms: C_28  and  N_30
REMARK                            x       y       z     vdW  Elec       q    Type
REMARK                         _______ _______ _______ _____ _____    ______ ____
ROOT
ATOM      1  O   UNL     1      31.695 -13.593 -20.265  0.00  0.00    -0.270 OA
ATOM      2  N   UNL     1      32.609 -12.744 -22.272  0.00  0.00    -0.265 N 
ATOM      3  C   UNL     1      32.910 -11.428 -22.824  0.00  0.00    +0.124 C 
ATOM      4  C   UNL     1      32.469 -10.525 -21.723  0.00  0.00    +0.036 C 
ATOM      5  C   UNL     1      32.055 -12.690 -20.999  0.00  0.00    +0.249 C 
ATOM      6  C   UNL     1      31.968 -11.267 -20.653  0.00  0.00    +0.054 C 
ATOM      7  C   UNL     1      32.503  -9.144 -21.660  0.00  0.00    +0.137 C 
ATOM      8  C   UNL     1      31.489 -10.681 -19.498  0.00  0.00    +0.004 C 
ATOM      9  C   UNL     1      32.024  -8.525 -20.501  0.00  0.00    +0.037 C 
ATOM     10  C   UNL     1      31.522  -9.287 -19.429  0.00  0.00    +0.003 C 
ENDROOT
BRANCH   2  14
ATOM     11  O   UNL     1      34.576 -14.366 -21.317  0.00  0.00    -0.273 OA
ATOM     12  O   UNL     1      35.164 -16.423 -25.395  0.00  0.00    -0.275 OA
ATOM     13  N   UNL     1      34.852 -15.352 -23.378  0.00  0.00    -0.254 N 
ATOM     14  C   UNL     1      32.862 -13.974 -22.975  0.00  0.00    +0.153 C 
ATOM     15  C   UNL     1      32.903 -13.750 -24.479  0.00  0.00    +0.039 C 
ATOM     16  C   UNL     1      33.204 -15.065 -25.175  0.00  0.00    +0.088 C 
ATOM     17  C   UNL     1      34.175 -14.541 -22.467  0.00  0.00    +0.246 C 
ATOM     18  C   UNL     1      34.500 -15.665 -24.687  0.00  0.00    +0.228 C 
ATOM     19  H   UNL     1      35.689 -15.755 -23.050  0.00  0.00    +0.158 HD
ENDBRANCH   2  14
BRANCH   7  20
ATOM     20  O   UNL     1      32.985  -8.401 -22.689  0.00  0.00    -0.471 OA
BRANCH  20  21
ATOM     21  C   UNL     1      33.696  -7.209 -22.356  0.00  0.00    +0.232 C 
BRANCH  21  23
ATOM     22  C   UNL     1      33.984  -4.722 -25.842  0.00  0.00    -0.043 C 
ATOM     23  C   UNL     1      33.796  -6.341 -23.576  0.00  0.00    +0.021 C 
ATOM     24  C   UNL     1      35.070  -5.510 -25.454  0.00  0.00    -0.007 C 
ATOM     25  C   UNL     1      32.806  -4.745 -25.096  0.00  0.00    -0.007 C 
ATOM     26  C   UNL     1      34.975  -6.319 -24.321  0.00  0.00    -0.001 C 
ATOM     27  C   UNL     1      32.711  -5.554 -23.964  0.00  0.00    -0.001 C 
BRANCH  22  28
ATOM     28  C   UNL     1      34.086  -3.858 -27.052  0.00  0.00    -0.050 C 
BRANCH  28  30
ATOM     29  O   UNL     1      37.321  -3.137 -29.627  0.00  0.00    -0.358 OA
ATOM     30  N   UNL     1      35.401  -3.939 -27.684  0.00  0.00    +0.393 N 
ATOM     31  C   UNL     1      35.278  -4.332 -29.095  0.00  0.00    -0.044 C 
ATOM     32  C   UNL     1      36.110  -2.655 -27.580  0.00  0.00    -0.044 C 
ATOM     33  C   UNL     1      37.473  -2.760 -28.257  0.00  0.00    +0.119 C 
ATOM     34  C   UNL     1      36.661  -4.398 -29.735  0.00  0.00    +0.119 C 
ATOM     35  H   UNL     1      35.941  -4.651 -27.193  0.00  0.00    -0.079 HD
ENDBRANCH  28  30
ENDBRANCH  22  28
ENDBRANCH  21  23
ENDBRANCH  20  21
ENDBRANCH   7  20
TORSDOF 6
ENDMDL
