MODEL 1
REMARK VINA RESULT:     -11.8      0.000      0.000
REMARK  Name = 71360
REMARK  8 active torsions:
REMARK  status: ('A' for Active; 'I' for Inactive)
REMARK    1  A    between atoms: N_1  and  C_18
REMARK    2  A    between atoms: C_2  and  C_11
REMARK    3  A    between atoms: C_18  and  C_19
REMARK    4  A    between atoms: C_19  and  C_20
REMARK    5  A    between atoms: C_20  and  O_21
REMARK    6  A    between atoms: O_21  and  C_22
REMARK    7  A    between atoms: C_23  and  O_31
REMARK    8  A    between atoms: C_27  and  C_29
REMARK                            x       y       z     vdW  Elec       q    Type
REMARK                         _______ _______ _______ _____ _____    ______ ____
ROOT
ATOM      1  N   UNL     1      35.765 -19.730 -20.314  0.00  0.00    +0.387 N 
ATOM      2  C   UNL     1      35.245 -18.456 -22.905  0.00  0.00    +0.039 C 
ATOM      3  C   UNL     1      36.316 -17.939 -21.932  0.00  0.00    -0.017 C 
ATOM      4  C   UNL     1      34.161 -19.222 -22.130  0.00  0.00    -0.017 C 
ATOM      5  C   UNL     1      36.853 -19.067 -21.046  0.00  0.00    -0.077 C 
ATOM      6  C   UNL     1      34.775 -20.304 -21.238  0.00  0.00    -0.077 C 
ATOM      7  H   UNL     1      35.293 -19.027 -19.746  0.00  0.00    -0.080 HD
ENDROOT
BRANCH   2  11
ATOM      8  F   UNL     1      33.351 -12.049 -23.670  0.00  0.00    -0.204 F 
ATOM      9  O   UNL     1      33.854 -16.446 -25.553  0.00  0.00    -0.354 OA
ATOM     10  N   UNL     1      34.332 -17.643 -25.035  0.00  0.00    -0.081 NA
ATOM     11  C   UNL     1      34.674 -17.362 -23.780  0.00  0.00    +0.100 A 
ATOM     12  C   UNL     1      34.446 -16.022 -23.435  0.00  0.00    +0.054 A 
ATOM     13  C   UNL     1      33.922 -15.480 -24.596  0.00  0.00    +0.179 A 
ATOM     14  C   UNL     1      34.606 -15.199 -22.310  0.00  0.00    +0.007 C 
ATOM     15  C   UNL     1      33.537 -14.151 -24.736  0.00  0.00    +0.070 C 
ATOM     16  C   UNL     1      34.227 -13.853 -22.416  0.00  0.00    +0.030 C 
ATOM     17  C   UNL     1      33.702 -13.340 -23.607  0.00  0.00    +0.143 C 
ENDBRANCH   2  11
BRANCH   1  18
ATOM     18  C   UNL     1      36.300 -20.767 -19.431  0.00  0.00    -0.074 C 
BRANCH  18  19
ATOM     19  C   UNL     1      35.462 -22.036 -19.537  0.00  0.00    +0.025 C 
BRANCH  19  20
ATOM     20  C   UNL     1      34.358 -22.067 -18.490  0.00  0.00    +0.203 C 
BRANCH  20  21
ATOM     21  O   UNL     1      34.794 -22.844 -17.384  0.00  0.00    -0.472 OA
BRANCH  21  22
ATOM     22  C   UNL     1      33.844 -23.193 -16.460  0.00  0.00    +0.172 C 
ATOM     23  C   UNL     1      34.222 -23.761 -15.248  0.00  0.00    +0.172 C 
ATOM     24  C   UNL     1      32.502 -22.974 -16.751  0.00  0.00    +0.040 C 
ATOM     25  C   UNL     1      33.246 -24.113 -14.315  0.00  0.00    +0.043 C 
ATOM     26  C   UNL     1      31.526 -23.326 -15.818  0.00  0.00    +0.006 C 
ATOM     27  C   UNL     1      31.898 -23.896 -14.601  0.00  0.00    +0.038 C 
BRANCH  27  29
ATOM     28  O   UNL     1      30.938 -23.868 -12.446  0.00  0.00    -0.291 OA
ATOM     29  C   UNL     1      30.880 -24.262 -13.628  0.00  0.00    +0.174 C 
ATOM     30  C   UNL     1      29.708 -25.146 -14.039  0.00  0.00    +0.077 C 
ENDBRANCH  27  29
BRANCH  23  31
ATOM     31  O   UNL     1      35.536 -23.977 -14.957  0.00  0.00    -0.468 OA
ATOM     32  C   UNL     1      35.909 -25.306 -14.598  0.00  0.00    +0.253 C 
ENDBRANCH  23  31
ENDBRANCH  21  22
ENDBRANCH  20  21
ENDBRANCH  19  20
ENDBRANCH  18  19
ENDBRANCH   1  18
TORSDOF 8
ENDMDL
MODEL 2
REMARK VINA RESULT:     -11.7      4.164     11.242
REMARK  Name = 71360
REMARK  8 active torsions:
REMARK  status: ('A' for Active; 'I' for Inactive)
REMARK    1  A    between atoms: N_1  and  C_18
REMARK    2  A    between atoms: C_2  and  C_11
REMARK    3  A    between atoms: C_18  and  C_19
REMARK    4  A    between atoms: C_19  and  C_20
REMARK    5  A    between atoms: C_20  and  O_21
REMARK    6  A    between atoms: O_21  and  C_22
REMARK    7  A    between atoms: C_23  and  O_31
REMARK    8  A    between atoms: C_27  and  C_29
REMARK                            x       y       z     vdW  Elec       q    Type
REMARK                         _______ _______ _______ _____ _____    ______ ____
ROOT
ATOM      1  N   UNL     1      34.822 -16.697 -24.233  0.00  0.00    +0.387 N 
ATOM      2  C   UNL     1      34.647 -18.444 -21.882  0.00  0.00    +0.039 C 
ATOM      3  C   UNL     1      35.331 -17.068 -21.839  0.00  0.00    -0.017 C 
ATOM      4  C   UNL     1      34.668 -18.992 -23.319  0.00  0.00    -0.017 C 
ATOM      5  C   UNL     1      34.738 -16.119 -22.885  0.00  0.00    -0.077 C 
ATOM      6  C   UNL     1      34.098 -17.974 -24.310  0.00  0.00    -0.077 C 
ATOM      7  H   UNL     1      35.805 -16.879 -24.437  0.00  0.00    -0.080 HD
ENDROOT
BRANCH   2  11
ATOM      8  F   UNL     1      33.749 -23.462 -17.496  0.00  0.00    -0.204 F 
ATOM      9  O   UNL     1      36.735 -20.391 -19.684  0.00  0.00    -0.354 OA
ATOM     10  N   UNL     1      36.534 -19.396 -20.632  0.00  0.00    -0.081 NA
ATOM     11  C   UNL     1      35.226 -19.415 -20.878  0.00  0.00    +0.100 A 
ATOM     12  C   UNL     1      34.541 -20.387 -20.134  0.00  0.00    +0.054 A 
ATOM     13  C   UNL     1      35.544 -20.981 -19.388  0.00  0.00    +0.179 A 
ATOM     14  C   UNL     1      33.222 -20.842 -19.987  0.00  0.00    +0.007 C 
ATOM     15  C   UNL     1      35.340 -22.020 -18.486  0.00  0.00    +0.070 C 
ATOM     16  C   UNL     1      32.979 -21.888 -19.084  0.00  0.00    +0.030 C 
ATOM     17  C   UNL     1      34.020 -22.464 -18.349  0.00  0.00    +0.143 C 
ENDBRANCH   2  11
BRANCH   1  18
ATOM     18  C   UNL     1      34.303 -15.755 -25.226  0.00  0.00    -0.074 C 
BRANCH  18  19
ATOM     19  C   UNL     1      33.220 -14.879 -24.608  0.00  0.00    +0.025 C 
BRANCH  19  20
ATOM     20  C   UNL     1      33.464 -13.403 -24.893  0.00  0.00    +0.203 C 
BRANCH  20  21
ATOM     21  O   UNL     1      34.078 -12.810 -23.758  0.00  0.00    -0.472 OA
BRANCH  21  22
ATOM     22  C   UNL     1      33.486 -11.682 -23.252  0.00  0.00    +0.172 C 
ATOM     23  C   UNL     1      32.492 -11.787 -22.285  0.00  0.00    +0.172 C 
ATOM     24  C   UNL     1      33.891 -10.437 -23.719  0.00  0.00    +0.040 C 
ATOM     25  C   UNL     1      31.897 -10.632 -21.779  0.00  0.00    +0.043 C 
ATOM     26  C   UNL     1      33.296  -9.281 -23.213  0.00  0.00    +0.006 C 
ATOM     27  C   UNL     1      32.298  -9.379 -22.243  0.00  0.00    +0.038 C 
BRANCH  27  29
ATOM     28  O   UNL     1      31.808  -7.847 -20.517  0.00  0.00    -0.291 OA
ATOM     29  C   UNL     1      31.678  -8.174 -21.714  0.00  0.00    +0.174 C 
ATOM     30  C   UNL     1      30.847  -7.275 -22.623  0.00  0.00    +0.077 C 
ENDBRANCH  27  29
BRANCH  23  31
ATOM     31  O   UNL     1      32.092 -13.005 -21.824  0.00  0.00    -0.468 OA
ATOM     32  C   UNL     1      32.006 -13.165 -20.409  0.00  0.00    +0.253 C 
ENDBRANCH  23  31
ENDBRANCH  21  22
ENDBRANCH  20  21
ENDBRANCH  19  20
ENDBRANCH  18  19
ENDBRANCH   1  18
TORSDOF 8
ENDMDL
MODEL 3
REMARK VINA RESULT:     -11.5      2.366      4.430
REMARK  Name = 71360
REMARK  8 active torsions:
REMARK  status: ('A' for Active; 'I' for Inactive)
REMARK    1  A    between atoms: N_1  and  C_18
REMARK    2  A    between atoms: C_2  and  C_11
REMARK    3  A    between atoms: C_18  and  C_19
REMARK    4  A    between atoms: C_19  and  C_20
REMARK    5  A    between atoms: C_20  and  O_21
REMARK    6  A    between atoms: O_21  and  C_22
REMARK    7  A    between atoms: C_23  and  O_31
REMARK    8  A    between atoms: C_27  and  C_29
REMARK                            x       y       z     vdW  Elec       q    Type
REMARK                         _______ _______ _______ _____ _____    ______ ____
ROOT
ATOM      1  N   UNL     1      34.020 -22.030 -18.571  0.00  0.00    +0.387 N 
ATOM      2  C   UNL     1      34.620 -20.177 -20.765  0.00  0.00    +0.039 C 
ATOM      3  C   UNL     1      35.697 -20.676 -19.788  0.00  0.00    -0.017 C 
ATOM      4  C   UNL     1      33.237 -20.244 -20.096  0.00  0.00    -0.017 C 
ATOM      5  C   UNL     1      35.337 -22.052 -19.220  0.00  0.00    -0.077 C 
ATOM      6  C   UNL     1      32.967 -21.635 -19.518  0.00  0.00    -0.077 C 
ATOM      7  H   UNL     1      34.048 -21.335 -17.825  0.00  0.00    -0.080 HD
ENDROOT
BRANCH   2  11
ATOM      8  F   UNL     1      34.309 -15.800 -25.861  0.00  0.00    -0.204 F 
ATOM      9  O   UNL     1      35.697 -16.791 -21.363  0.00  0.00    -0.354 OA
ATOM     10  N   UNL     1      35.572 -17.922 -20.567  0.00  0.00    -0.081 NA
ATOM     11  C   UNL     1      34.931 -18.807 -21.326  0.00  0.00    +0.100 A 
ATOM     12  C   UNL     1      34.619 -18.314 -22.602  0.00  0.00    +0.054 A 
ATOM     13  C   UNL     1      35.128 -17.027 -22.578  0.00  0.00    +0.179 A 
ATOM     14  C   UNL     1      33.983 -18.774 -23.765  0.00  0.00    +0.007 C 
ATOM     15  C   UNL     1      35.053 -16.135 -23.642  0.00  0.00    +0.070 C 
ATOM     16  C   UNL     1      33.891 -17.900 -24.858  0.00  0.00    +0.030 C 
ATOM     17  C   UNL     1      34.416 -16.605 -24.796  0.00  0.00    +0.143 C 
ENDBRANCH   2  11
BRANCH   1  18
ATOM     18  C   UNL     1      33.716 -23.336 -17.985  0.00  0.00    -0.074 C 
BRANCH  18  19
ATOM     19  C   UNL     1      32.584 -23.211 -16.972  0.00  0.00    +0.025 C 
BRANCH  19  20
ATOM     20  C   UNL     1      33.072 -23.462 -15.553  0.00  0.00    +0.203 C 
BRANCH  20  21
ATOM     21  O   UNL     1      34.301 -22.775 -15.361  0.00  0.00    -0.472 OA
BRANCH  21  22
ATOM     22  C   UNL     1      35.313 -23.474 -14.755  0.00  0.00    +0.172 C 
ATOM     23  C   UNL     1      36.600 -23.440 -15.282  0.00  0.00    +0.172 C 
ATOM     24  C   UNL     1      35.035 -24.215 -13.612  0.00  0.00    +0.040 C 
ATOM     25  C   UNL     1      37.621 -24.156 -14.657  0.00  0.00    +0.043 C 
ATOM     26  C   UNL     1      36.057 -24.931 -12.987  0.00  0.00    +0.006 C 
ATOM     27  C   UNL     1      37.349 -24.901 -13.510  0.00  0.00    +0.038 C 
BRANCH  27  29
ATOM     28  O   UNL     1      38.221 -26.257 -11.787  0.00  0.00    -0.291 OA
ATOM     29  C   UNL     1      38.415 -25.647 -12.857  0.00  0.00    +0.174 C 
ATOM     30  C   UNL     1      39.807 -25.699 -13.477  0.00  0.00    +0.077 C 
ENDBRANCH  27  29
BRANCH  23  31
ATOM     31  O   UNL     1      36.878 -22.715 -16.402  0.00  0.00    -0.468 OA
ATOM     32  C   UNL     1      37.320 -21.373 -16.212  0.00  0.00    +0.253 C 
ENDBRANCH  23  31
ENDBRANCH  21  22
ENDBRANCH  20  21
ENDBRANCH  19  20
ENDBRANCH  18  19
ENDBRANCH   1  18
TORSDOF 8
ENDMDL
MODEL 4
REMARK VINA RESULT:     -11.3      1.681      2.967
REMARK  Name = 71360
REMARK  8 active torsions:
REMARK  status: ('A' for Active; 'I' for Inactive)
REMARK    1  A    between atoms: N_1  and  C_18
REMARK    2  A    between atoms: C_2  and  C_11
REMARK    3  A    between atoms: C_18  and  C_19
REMARK    4  A    between atoms: C_19  and  C_20
REMARK    5  A    between atoms: C_20  and  O_21
REMARK    6  A    between atoms: O_21  and  C_22
REMARK    7  A    between atoms: C_23  and  O_31
REMARK    8  A    between atoms: C_27  and  C_29
REMARK                            x       y       z     vdW  Elec       q    Type
REMARK                         _______ _______ _______ _____ _____    ______ ____
ROOT
ATOM      1  N   UNL     1      36.321 -20.290 -20.557  0.00  0.00    +0.387 N 
ATOM      2  C   UNL     1      34.989 -18.168 -22.083  0.00  0.00    +0.039 C 
ATOM      3  C   UNL     1      34.295 -19.493 -21.734  0.00  0.00    -0.017 C 
ATOM      4  C   UNL     1      36.514 -18.367 -22.104  0.00  0.00    -0.017 C 
ATOM      5  C   UNL     1      34.868 -20.100 -20.450  0.00  0.00    -0.077 C 
ATOM      6  C   UNL     1      37.007 -19.014 -20.807  0.00  0.00    -0.077 C 
ATOM      7  H   UNL     1      36.501 -20.904 -21.351  0.00  0.00    -0.080 HD
ENDROOT
BRANCH   2  11
ATOM      8  F   UNL     1      33.257 -12.698 -25.591  0.00  0.00    -0.204 F 
ATOM      9  O   UNL     1      33.706 -17.482 -25.380  0.00  0.00    -0.354 OA
ATOM     10  N   UNL     1      34.146 -18.343 -24.382  0.00  0.00    -0.081 NA
ATOM     11  C   UNL     1      34.464 -17.552 -23.361  0.00  0.00    +0.100 A 
ATOM     12  C   UNL     1      34.257 -16.192 -23.634  0.00  0.00    +0.054 A 
ATOM     13  C   UNL     1      33.773 -16.198 -24.930  0.00  0.00    +0.179 A 
ATOM     14  C   UNL     1      34.409 -14.966 -22.969  0.00  0.00    +0.007 C 
ATOM     15  C   UNL     1      33.421 -15.056 -25.642  0.00  0.00    +0.070 C 
ATOM     16  C   UNL     1      34.062 -13.793 -23.656  0.00  0.00    +0.030 C 
ATOM     17  C   UNL     1      33.577 -13.840 -24.968  0.00  0.00    +0.143 C 
ENDBRANCH   2  11
BRANCH   1  18
ATOM     18  C   UNL     1      36.845 -20.922 -19.345  0.00  0.00    -0.074 C 
BRANCH  18  19
ATOM     19  C   UNL     1      35.752 -21.732 -18.657  0.00  0.00    +0.025 C 
BRANCH  19  20
ATOM     20  C   UNL     1      36.151 -22.117 -17.239  0.00  0.00    +0.203 C 
BRANCH  20  21
ATOM     21  O   UNL     1      35.104 -22.883 -16.659  0.00  0.00    -0.472 OA
BRANCH  21  22
ATOM     22  C   UNL     1      35.342 -23.419 -15.421  0.00  0.00    +0.172 C 
ATOM     23  C   UNL     1      34.281 -23.809 -14.611  0.00  0.00    +0.172 C 
ATOM     24  C   UNL     1      36.655 -23.565 -14.986  0.00  0.00    +0.040 C 
ATOM     25  C   UNL     1      34.536 -24.353 -13.352  0.00  0.00    +0.043 C 
ATOM     26  C   UNL     1      36.910 -24.109 -13.727  0.00  0.00    +0.006 C 
ATOM     27  C   UNL     1      35.851 -24.503 -12.910  0.00  0.00    +0.038 C 
BRANCH  27  29
ATOM     28  O   UNL     1      36.690 -26.171 -11.468  0.00  0.00    -0.291 OA
ATOM     29  C   UNL     1      36.117 -25.071 -11.597  0.00  0.00    +0.174 C 
ATOM     30  C   UNL     1      35.697 -24.322 -10.337  0.00  0.00    +0.077 C 
ENDBRANCH  27  29
BRANCH  23  31
ATOM     31  O   UNL     1      32.993 -23.669 -15.031  0.00  0.00    -0.468 OA
ATOM     32  C   UNL     1      31.976 -23.724 -14.033  0.00  0.00    +0.253 C 
ENDBRANCH  23  31
ENDBRANCH  21  22
ENDBRANCH  20  21
ENDBRANCH  19  20
ENDBRANCH  18  19
ENDBRANCH   1  18
TORSDOF 8
ENDMDL
MODEL 5
REMARK VINA RESULT:     -11.2      3.526     11.240
REMARK  Name = 71360
REMARK  8 active torsions:
REMARK  status: ('A' for Active; 'I' for Inactive)
REMARK    1  A    between atoms: N_1  and  C_18
REMARK    2  A    between atoms: C_2  and  C_11
REMARK    3  A    between atoms: C_18  and  C_19
REMARK    4  A    between atoms: C_19  and  C_20
REMARK    5  A    between atoms: C_20  and  O_21
REMARK    6  A    between atoms: O_21  and  C_22
REMARK    7  A    between atoms: C_23  and  O_31
REMARK    8  A    between atoms: C_27  and  C_29
REMARK                            x       y       z     vdW  Elec       q    Type
REMARK                         _______ _______ _______ _____ _____    ______ ____
ROOT
ATOM      1  N   UNL     1      34.309 -20.403 -20.098  0.00  0.00    +0.387 N 
ATOM      2  C   UNL     1      34.115 -22.573 -18.133  0.00  0.00    +0.039 C 
ATOM      3  C   UNL     1      32.934 -21.645 -18.458  0.00  0.00    -0.017 C 
ATOM      4  C   UNL     1      35.440 -21.859 -18.446  0.00  0.00    -0.017 C 
ATOM      5  C   UNL     1      33.033 -21.097 -19.884  0.00  0.00    -0.077 C 
ATOM      6  C   UNL     1      35.449 -21.304 -19.873  0.00  0.00    -0.077 C 
ATOM      7  H   UNL     1      34.372 -19.642 -19.421  0.00  0.00    -0.080 HD
ENDROOT
BRANCH   2  11
ATOM      8  F   UNL     1      30.519 -24.243 -12.701  0.00  0.00    -0.204 F 
ATOM      9  O   UNL     1      34.803 -23.926 -14.865  0.00  0.00    -0.354 OA
ATOM     10  N   UNL     1      35.192 -23.485 -16.124  0.00  0.00    -0.081 NA
ATOM     11  C   UNL     1      34.062 -23.113 -16.722  0.00  0.00    +0.100 A 
ATOM     12  C   UNL     1      32.929 -23.289 -15.914  0.00  0.00    +0.054 A 
ATOM     13  C   UNL     1      33.452 -23.807 -14.742  0.00  0.00    +0.179 A 
ATOM     14  C   UNL     1      31.545 -23.082 -16.010  0.00  0.00    +0.007 C 
ATOM     15  C   UNL     1      32.692 -24.149 -13.628  0.00  0.00    +0.070 C 
ATOM     16  C   UNL     1      30.748 -23.414 -14.904  0.00  0.00    +0.030 C 
ATOM     17  C   UNL     1      31.313 -23.938 -13.736  0.00  0.00    +0.143 C 
ENDBRANCH   2  11
BRANCH   1  18
ATOM     18  C   UNL     1      34.365 -19.837 -21.446  0.00  0.00    -0.074 C 
BRANCH  18  19
ATOM     19  C   UNL     1      35.761 -19.298 -21.737  0.00  0.00    +0.025 C 
BRANCH  19  20
ATOM     20  C   UNL     1      35.764 -17.779 -21.840  0.00  0.00    +0.203 C 
BRANCH  20  21
ATOM     21  O   UNL     1      35.013 -17.394 -22.983  0.00  0.00    -0.472 OA
BRANCH  21  22
ATOM     22  C   UNL     1      34.617 -16.084 -23.051  0.00  0.00    +0.172 C 
ATOM     23  C   UNL     1      34.119 -15.564 -24.241  0.00  0.00    +0.172 C 
ATOM     24  C   UNL     1      34.721 -15.285 -21.918  0.00  0.00    +0.040 C 
ATOM     25  C   UNL     1      33.719 -14.228 -24.297  0.00  0.00    +0.043 C 
ATOM     26  C   UNL     1      34.321 -13.949 -21.974  0.00  0.00    +0.006 C 
ATOM     27  C   UNL     1      33.821 -13.421 -23.164  0.00  0.00    +0.038 C 
BRANCH  27  29
ATOM     28  O   UNL     1      32.556 -11.569 -22.431  0.00  0.00    -0.291 OA
ATOM     29  C   UNL     1      33.404 -12.029 -23.223  0.00  0.00    +0.174 C 
ATOM     30  C   UNL     1      34.002 -11.091 -24.266  0.00  0.00    +0.077 C 
ENDBRANCH  27  29
BRANCH  23  31
ATOM     31  O   UNL     1      34.014 -16.342 -25.354  0.00  0.00    -0.468 OA
ATOM     32  C   UNL     1      32.765 -16.995 -25.573  0.00  0.00    +0.253 C 
ENDBRANCH  23  31
ENDBRANCH  21  22
ENDBRANCH  20  21
ENDBRANCH  19  20
ENDBRANCH  18  19
ENDBRANCH   1  18
TORSDOF 8
ENDMDL
MODEL 6
REMARK VINA RESULT:     -10.9      7.131     11.472
REMARK  Name = 71360
REMARK  8 active torsions:
REMARK  status: ('A' for Active; 'I' for Inactive)
REMARK    1  A    between atoms: N_1  and  C_18
REMARK    2  A    between atoms: C_2  and  C_11
REMARK    3  A    between atoms: C_18  and  C_19
REMARK    4  A    between atoms: C_19  and  C_20
REMARK    5  A    between atoms: C_20  and  O_21
REMARK    6  A    between atoms: O_21  and  C_22
REMARK    7  A    between atoms: C_23  and  O_31
REMARK    8  A    between atoms: C_27  and  C_29
REMARK                            x       y       z     vdW  Elec       q    Type
REMARK                         _______ _______ _______ _____ _____    ______ ____
ROOT
ATOM      1  N   UNL     1      31.479  -9.588 -20.431  0.00  0.00    +0.387 N 
ATOM      2  C   UNL     1      31.973  -7.075 -21.862  0.00  0.00    +0.039 C 
ATOM      3  C   UNL     1      31.878  -7.147 -20.330  0.00  0.00    -0.017 C 
ATOM      4  C   UNL     1      31.193  -8.243 -22.488  0.00  0.00    -0.017 C 
ATOM      5  C   UNL     1      32.288  -8.528 -19.812  0.00  0.00    -0.077 C 
ATOM      6  C   UNL     1      31.628  -9.584 -21.893  0.00  0.00    -0.077 C 
ATOM      7  H   UNL     1      30.500  -9.404 -20.214  0.00  0.00    -0.080 HD
ENDROOT
BRANCH   2  11
ATOM      8  F   UNL     1      32.643  -2.237 -26.485  0.00  0.00    -0.204 F 
ATOM      9  O   UNL     1      30.446  -3.881 -22.535  0.00  0.00    -0.354 OA
ATOM     10  N   UNL     1      30.592  -5.046 -21.792  0.00  0.00    -0.081 NA
ATOM     11  C   UNL     1      31.551  -5.730 -22.411  0.00  0.00    +0.100 A 
ATOM     12  C   UNL     1      32.055  -5.070 -23.541  0.00  0.00    +0.054 A 
ATOM     13  C   UNL     1      31.322  -3.898 -23.578  0.00  0.00    +0.179 A 
ATOM     14  C   UNL     1      33.025  -5.299 -24.529  0.00  0.00    +0.007 C 
ATOM     15  C   UNL     1      31.473  -2.908 -24.543  0.00  0.00    +0.070 C 
ATOM     16  C   UNL     1      33.204  -4.321 -25.519  0.00  0.00    +0.030 C 
ATOM     17  C   UNL     1      32.442  -3.148 -25.524  0.00  0.00    +0.143 C 
ENDBRANCH   2  11
BRANCH   1  18
ATOM     18  C   UNL     1      31.844 -10.895 -19.884  0.00  0.00    -0.074 C 
BRANCH  18  19
ATOM     19  C   UNL     1      31.554 -11.993 -20.900  0.00  0.00    +0.025 C 
BRANCH  19  20
ATOM     20  C   UNL     1      32.429 -13.217 -20.667  0.00  0.00    +0.203 C 
BRANCH  20  21
ATOM     21  O   UNL     1      33.380 -13.309 -21.719  0.00  0.00    -0.472 OA
BRANCH  21  22
ATOM     22  C   UNL     1      33.955 -14.535 -21.927  0.00  0.00    +0.172 C 
ATOM     23  C   UNL     1      34.136 -15.013 -23.221  0.00  0.00    +0.172 C 
ATOM     24  C   UNL     1      34.353 -15.293 -20.831  0.00  0.00    +0.040 C 
ATOM     25  C   UNL     1      34.722 -16.263 -23.420  0.00  0.00    +0.043 C 
ATOM     26  C   UNL     1      34.940 -16.543 -21.030  0.00  0.00    +0.006 C 
ATOM     27  C   UNL     1      35.124 -17.028 -22.325  0.00  0.00    +0.038 C 
BRANCH  27  29
ATOM     28  O   UNL     1      36.905 -18.567 -22.165  0.00  0.00    -0.291 OA
ATOM     29  C   UNL     1      35.736 -18.331 -22.533  0.00  0.00    +0.174 C 
ATOM     30  C   UNL     1      34.952 -19.449 -23.211  0.00  0.00    +0.077 C 
ENDBRANCH  27  29
BRANCH  23  31
ATOM     31  O   UNL     1      33.749 -14.275 -24.299  0.00  0.00    -0.468 OA
ATOM     32  C   UNL     1      33.380 -14.991 -25.475  0.00  0.00    +0.253 C 
ENDBRANCH  23  31
ENDBRANCH  21  22
ENDBRANCH  20  21
ENDBRANCH  19  20
ENDBRANCH  18  19
ENDBRANCH   1  18
TORSDOF 8
ENDMDL
MODEL 7
REMARK VINA RESULT:     -10.9      2.555      3.804
REMARK  Name = 71360
REMARK  8 active torsions:
REMARK  status: ('A' for Active; 'I' for Inactive)
REMARK    1  A    between atoms: N_1  and  C_18
REMARK    2  A    between atoms: C_2  and  C_11
REMARK    3  A    between atoms: C_18  and  C_19
REMARK    4  A    between atoms: C_19  and  C_20
REMARK    5  A    between atoms: C_20  and  O_21
REMARK    6  A    between atoms: O_21  and  C_22
REMARK    7  A    between atoms: C_23  and  O_31
REMARK    8  A    between atoms: C_27  and  C_29
REMARK                            x       y       z     vdW  Elec       q    Type
REMARK                         _______ _______ _______ _____ _____    ______ ____
ROOT
ATOM      1  N   UNL     1      35.521 -17.233 -22.680  0.00  0.00    +0.387 N 
ATOM      2  C   UNL     1      33.801 -14.862 -22.833  0.00  0.00    +0.039 C 
ATOM      3  C   UNL     1      34.429 -15.507 -24.078  0.00  0.00    -0.017 C 
ATOM      4  C   UNL     1      34.648 -15.188 -21.592  0.00  0.00    -0.017 C 
ATOM      5  C   UNL     1      34.680 -17.002 -23.862  0.00  0.00    -0.077 C 
ATOM      6  C   UNL     1      34.891 -16.694 -21.466  0.00  0.00    -0.077 C 
ATOM      7  H   UNL     1      36.404 -16.742 -22.820  0.00  0.00    -0.080 HD
ENDROOT
BRANCH   2  11
ATOM      8  F   UNL     1      31.107  -9.133 -20.563  0.00  0.00    -0.204 F 
ATOM      9  O   UNL     1      33.673 -11.429 -23.922  0.00  0.00    -0.354 OA
ATOM     10  N   UNL     1      34.064 -12.754 -24.065  0.00  0.00    -0.081 NA
ATOM     11  C   UNL     1      33.561 -13.378 -23.003  0.00  0.00    +0.100 A 
ATOM     12  C   UNL     1      32.848 -12.523 -22.150  0.00  0.00    +0.054 A 
ATOM     13  C   UNL     1      32.946 -11.294 -22.778  0.00  0.00    +0.179 A 
ATOM     14  C   UNL     1      32.137 -12.617 -20.944  0.00  0.00    +0.007 C 
ATOM     15  C   UNL     1      32.383 -10.118 -22.293  0.00  0.00    +0.070 C 
ATOM     16  C   UNL     1      31.555 -11.451 -20.426  0.00  0.00    +0.030 C 
ATOM     17  C   UNL     1      31.677 -10.225 -21.089  0.00  0.00    +0.143 C 
ENDBRANCH   2  11
BRANCH   1  18
ATOM     18  C   UNL     1      35.799 -18.661 -22.520  0.00  0.00    -0.074 C 
BRANCH  18  19
ATOM     19  C   UNL     1      35.807 -19.036 -21.042  0.00  0.00    +0.025 C 
BRANCH  19  20
ATOM     20  C   UNL     1      35.067 -20.344 -20.793  0.00  0.00    +0.203 C 
BRANCH  20  21
ATOM     21  O   UNL     1      35.782 -21.098 -19.825  0.00  0.00    -0.472 OA
BRANCH  21  22
ATOM     22  C   UNL     1      35.044 -21.683 -18.829  0.00  0.00    +0.172 C 
ATOM     23  C   UNL     1      35.659 -22.092 -17.650  0.00  0.00    +0.172 C 
ATOM     24  C   UNL     1      33.677 -21.862 -19.013  0.00  0.00    +0.040 C 
ATOM     25  C   UNL     1      34.897 -22.686 -16.643  0.00  0.00    +0.043 C 
ATOM     26  C   UNL     1      32.916 -22.456 -18.006  0.00  0.00    +0.006 C 
ATOM     27  C   UNL     1      33.526 -22.869 -16.822  0.00  0.00    +0.038 C 
BRANCH  27  29
ATOM     28  O   UNL     1      33.266 -24.117 -14.837  0.00  0.00    -0.291 OA
ATOM     29  C   UNL     1      32.732 -23.487 -15.772  0.00  0.00    +0.174 C 
ATOM     30  C   UNL     1      31.211 -23.377 -15.792  0.00  0.00    +0.077 C 
ENDBRANCH  27  29
BRANCH  23  31
ATOM     31  O   UNL     1      36.997 -21.919 -17.464  0.00  0.00    -0.468 OA
ATOM     32  C   UNL     1      37.524 -22.267 -16.185  0.00  0.00    +0.253 C 
ENDBRANCH  23  31
ENDBRANCH  21  22
ENDBRANCH  20  21
ENDBRANCH  19  20
ENDBRANCH  18  19
ENDBRANCH   1  18
TORSDOF 8
ENDMDL
MODEL 8
REMARK VINA RESULT:     -10.9      3.221      5.985
REMARK  Name = 71360
REMARK  8 active torsions:
REMARK  status: ('A' for Active; 'I' for Inactive)
REMARK    1  A    between atoms: N_1  and  C_18
REMARK    2  A    between atoms: C_2  and  C_11
REMARK    3  A    between atoms: C_18  and  C_19
REMARK    4  A    between atoms: C_19  and  C_20
REMARK    5  A    between atoms: C_20  and  O_21
REMARK    6  A    between atoms: O_21  and  C_22
REMARK    7  A    between atoms: C_23  and  O_31
REMARK    8  A    between atoms: C_27  and  C_29
REMARK                            x       y       z     vdW  Elec       q    Type
REMARK                         _______ _______ _______ _____ _____    ______ ____
ROOT
ATOM      1  N   UNL     1      33.673 -15.983 -24.238  0.00  0.00    +0.387 N 
ATOM      2  C   UNL     1      33.933 -13.113 -23.687  0.00  0.00    +0.039 C 
ATOM      3  C   UNL     1      34.064 -14.180 -22.588  0.00  0.00    -0.017 C 
ATOM      4  C   UNL     1      33.079 -13.658 -24.844  0.00  0.00    -0.017 C 
ATOM      5  C   UNL     1      34.555 -15.512 -23.162  0.00  0.00    -0.077 C 
ATOM      6  C   UNL     1      33.606 -15.008 -25.336  0.00  0.00    -0.077 C 
ATOM      7  H   UNL     1      32.734 -16.088 -23.853  0.00  0.00    -0.080 HD
ENDROOT
BRANCH   2  11
ATOM      8  F   UNL     1      34.480  -6.419 -23.350  0.00  0.00    -0.204 F 
ATOM      9  O   UNL     1      32.159 -10.431 -22.063  0.00  0.00    -0.354 OA
ATOM     10  N   UNL     1      32.360 -11.772 -22.363  0.00  0.00    -0.081 NA
ATOM     11  C   UNL     1      33.426 -11.790 -23.159  0.00  0.00    +0.100 A 
ATOM     12  C   UNL     1      33.948 -10.512 -23.408  0.00  0.00    +0.054 A 
ATOM     13  C   UNL     1      33.108  -9.681 -22.687  0.00  0.00    +0.179 A 
ATOM     14  C   UNL     1      35.007  -9.948 -24.134  0.00  0.00    +0.007 C 
ATOM     15  C   UNL     1      33.236  -8.297 -22.630  0.00  0.00    +0.070 C 
ATOM     16  C   UNL     1      35.166  -8.555 -24.099  0.00  0.00    +0.030 C 
ATOM     17  C   UNL     1      34.296  -7.746 -23.360  0.00  0.00    +0.143 C 
ENDBRANCH   2  11
BRANCH   1  18
ATOM     18  C   UNL     1      34.124 -17.283 -24.736  0.00  0.00    -0.074 C 
BRANCH  18  19
ATOM     19  C   UNL     1      35.143 -17.891 -23.780  0.00  0.00    +0.025 C 
BRANCH  19  20
ATOM     20  C   UNL     1      34.573 -19.098 -23.048  0.00  0.00    +0.203 C 
BRANCH  20  21
ATOM     21  O   UNL     1      34.367 -18.753 -21.685  0.00  0.00    -0.472 OA
BRANCH  21  22
ATOM     22  C   UNL     1      34.306 -19.788 -20.787  0.00  0.00    +0.172 C 
ATOM     23  C   UNL     1      35.476 -20.353 -20.291  0.00  0.00    +0.172 C 
ATOM     24  C   UNL     1      33.063 -20.263 -20.384  0.00  0.00    +0.040 C 
ATOM     25  C   UNL     1      35.401 -21.406 -19.378  0.00  0.00    +0.043 C 
ATOM     26  C   UNL     1      32.988 -21.315 -19.471  0.00  0.00    +0.006 C 
ATOM     27  C   UNL     1      34.157 -21.887 -18.969  0.00  0.00    +0.038 C 
BRANCH  27  29
ATOM     28  O   UNL     1      33.560 -24.077 -18.324  0.00  0.00    -0.291 OA
ATOM     29  C   UNL     1      34.079 -22.984 -18.017  0.00  0.00    +0.174 C 
ATOM     30  C   UNL     1      34.637 -22.819 -16.608  0.00  0.00    +0.077 C 
ENDBRANCH  27  29
BRANCH  23  31
ATOM     31  O   UNL     1      36.696 -19.892 -20.682  0.00  0.00    -0.468 OA
ATOM     32  C   UNL     1      37.237 -18.791 -19.955  0.00  0.00    +0.253 C 
ENDBRANCH  23  31
ENDBRANCH  21  22
ENDBRANCH  20  21
ENDBRANCH  19  20
ENDBRANCH  18  19
ENDBRANCH   1  18
TORSDOF 8
ENDMDL
MODEL 9
REMARK VINA RESULT:     -10.8      1.510      2.544
REMARK  Name = 71360
REMARK  8 active torsions:
REMARK  status: ('A' for Active; 'I' for Inactive)
REMARK    1  A    between atoms: N_1  and  C_18
REMARK    2  A    between atoms: C_2  and  C_11
REMARK    3  A    between atoms: C_18  and  C_19
REMARK    4  A    between atoms: C_19  and  C_20
REMARK    5  A    between atoms: C_20  and  O_21
REMARK    6  A    between atoms: O_21  and  C_22
REMARK    7  A    between atoms: C_23  and  O_31
REMARK    8  A    between atoms: C_27  and  C_29
REMARK                            x       y       z     vdW  Elec       q    Type
REMARK                         _______ _______ _______ _____ _____    ______ ____
ROOT
ATOM      1  N   UNL     1      35.514 -19.395 -21.535  0.00  0.00    +0.387 N 
ATOM      2  C   UNL     1      34.126 -17.301 -23.050  0.00  0.00    +0.039 C 
ATOM      3  C   UNL     1      34.189 -18.761 -23.527  0.00  0.00    -0.017 C 
ATOM      4  C   UNL     1      35.322 -17.000 -22.132  0.00  0.00    -0.017 C 
ATOM      5  C   UNL     1      34.335 -19.725 -22.347  0.00  0.00    -0.077 C 
ATOM      6  C   UNL     1      35.426 -18.027 -21.002  0.00  0.00    -0.077 C 
ATOM      7  H   UNL     1      36.336 -19.445 -22.138  0.00  0.00    -0.080 HD
ENDROOT
BRANCH   2  11
ATOM      8  F   UNL     1      33.563 -10.952 -25.195  0.00  0.00    -0.204 F 
ATOM      9  O   UNL     1      33.878 -15.637 -26.237  0.00  0.00    -0.354 OA
ATOM     10  N   UNL     1      33.994 -16.772 -25.444  0.00  0.00    -0.081 NA
ATOM     11  C   UNL     1      34.007 -16.318 -24.194  0.00  0.00    +0.100 A 
ATOM     12  C   UNL     1      33.905 -14.922 -24.115  0.00  0.00    +0.054 A 
ATOM     13  C   UNL     1      33.824 -14.534 -25.441  0.00  0.00    +0.179 A 
ATOM     14  C   UNL     1      33.867 -13.939 -23.114  0.00  0.00    +0.007 C 
ATOM     15  C   UNL     1      33.709 -13.214 -25.867  0.00  0.00    +0.070 C 
ATOM     16  C   UNL     1      33.751 -12.598 -23.507  0.00  0.00    +0.030 C 
ATOM     17  C   UNL     1      33.673 -12.244 -24.858  0.00  0.00    +0.143 C 
ENDBRANCH   2  11
BRANCH   1  18
ATOM     18  C   UNL     1      35.672 -20.358 -20.445  0.00  0.00    -0.074 C 
BRANCH  18  19
ATOM     19  C   UNL     1      34.307 -20.814 -19.941  0.00  0.00    +0.025 C 
BRANCH  19  20
ATOM     20  C   UNL     1      34.418 -22.065 -19.080  0.00  0.00    +0.203 C 
BRANCH  20  21
ATOM     21  O   UNL     1      33.166 -22.303 -18.452  0.00  0.00    -0.472 OA
BRANCH  21  22
ATOM     22  C   UNL     1      33.199 -22.773 -17.165  0.00  0.00    +0.172 C 
ATOM     23  C   UNL     1      32.023 -22.882 -16.430  0.00  0.00    +0.172 C 
ATOM     24  C   UNL     1      34.419 -23.135 -16.606  0.00  0.00    +0.040 C 
ATOM     25  C   UNL     1      32.069 -23.361 -15.120  0.00  0.00    +0.043 C 
ATOM     26  C   UNL     1      34.465 -23.614 -15.297  0.00  0.00    +0.006 C 
ATOM     27  C   UNL     1      33.290 -23.726 -14.554  0.00  0.00    +0.038 C 
BRANCH  27  29
ATOM     28  O   UNL     1      32.297 -24.515 -12.565  0.00  0.00    -0.291 OA
ATOM     29  C   UNL     1      33.338 -24.226 -13.188  0.00  0.00    +0.174 C 
ATOM     30  C   UNL     1      34.677 -24.410 -12.484  0.00  0.00    +0.077 C 
ENDBRANCH  27  29
BRANCH  23  31
ATOM     31  O   UNL     1      30.824 -22.528 -16.972  0.00  0.00    -0.468 OA
ATOM     32  C   UNL     1      29.651 -22.937 -16.273  0.00  0.00    +0.253 C 
ENDBRANCH  23  31
ENDBRANCH  21  22
ENDBRANCH  20  21
ENDBRANCH  19  20
ENDBRANCH  18  19
ENDBRANCH   1  18
TORSDOF 8
ENDMDL
