MODEL 1
REMARK VINA RESULT:     -12.1      0.000      0.000
REMARK  Name = 5326929
REMARK  3 active torsions:
REMARK  status: ('A' for Active; 'I' for Inactive)
REMARK    1  A    between atoms: C_7  and  C_21
REMARK    2  A    between atoms: C_21  and  C_22
REMARK    3  A    between atoms: C_22  and  C_23
REMARK                            x       y       z     vdW  Elec       q    Type
REMARK                         _______ _______ _______ _____ _____    ______ ____
ROOT
ATOM      1  O   UNL     1      34.572 -24.897 -11.600  0.00  0.00    -0.209 OA
ATOM      2  N   UNL     1      34.592 -22.984 -15.119  0.00  0.00    -0.275 N 
ATOM      3  N   UNL     1      29.768 -25.216 -13.702  0.00  0.00    -0.315 N 
ATOM      4  N   UNL     1      29.810 -24.146 -15.649  0.00  0.00    -0.316 N 
ATOM      5  N   UNL     1      35.741 -23.697 -13.161  0.00  0.00    -0.302 NA
ATOM      6  N   UNL     1      36.808 -22.461 -14.841  0.00  0.00    -0.320 N 
ATOM      7  C   UNL     1      32.238 -23.485 -15.514  0.00  0.00    +0.007 C 
ATOM      8  C   UNL     1      33.389 -23.569 -14.714  0.00  0.00    +0.060 C 
ATOM      9  C   UNL     1      31.053 -24.090 -15.060  0.00  0.00    +0.056 C 
ATOM     10  C   UNL     1      31.051 -24.753 -13.838  0.00  0.00    +0.060 C 
ATOM     11  C   UNL     1      33.348 -24.247 -13.485  0.00  0.00    +0.109 C 
ATOM     12  C   UNL     1      32.175 -24.858 -13.016  0.00  0.00    +0.029 C 
ATOM     13  C   UNL     1      34.599 -24.306 -12.676  0.00  0.00    +0.208 C 
ATOM     14  C   UNL     1      29.065 -24.828 -14.810  0.00  0.00    +0.182 C 
ATOM     15  C   UNL     1      35.704 -23.083 -14.314  0.00  0.00    +0.248 C 
ATOM     16  H   UNL     1      34.644 -22.504 -15.977  0.00  0.00    +0.156 HD
ATOM     17  H   UNL     1      29.415 -25.735 -12.944  0.00  0.00    +0.148 HD
ATOM     18  H   UNL     1      29.539 -23.760 -16.513  0.00  0.00    +0.148 HD
ATOM     19  H   UNL     1      36.747 -22.007 -15.714  0.00  0.00    +0.146 HD
ATOM     20  H   UNL     1      37.660 -22.469 -14.349  0.00  0.00    +0.146 HD
ENDROOT
BRANCH   7  21
ATOM     21  C   UNL     1      32.274 -22.763 -16.824  0.00  0.00    +0.034 C 
BRANCH  21  22
ATOM     22  C   UNL     1      33.414 -23.217 -17.754  0.00  0.00    +0.031 C 
BRANCH  22  23
ATOM     23  C   UNL     1      33.861 -22.145 -18.717  0.00  0.00    -0.022 C 
ATOM     24  C   UNL     1      32.909 -21.380 -19.374  0.00  0.00    -0.005 C 
ATOM     25  C   UNL     1      35.216 -21.942 -18.928  0.00  0.00    -0.005 C 
ATOM     26  C   UNL     1      34.683 -20.175 -20.486  0.00  0.00    -0.022 C 
ATOM     27  C   UNL     1      33.323 -20.389 -20.263  0.00  0.00    -0.005 C 
ATOM     28  C   UNL     1      35.630 -20.951 -19.817  0.00  0.00    -0.005 C 
ATOM     29  C   UNL     1      35.126 -19.114 -21.436  0.00  0.00    +0.031 C 
ENDBRANCH  22  23
ENDBRANCH  21  22
ENDBRANCH   7  21
TORSDOF 3
ENDMDL
MODEL 2
REMARK VINA RESULT:     -11.7      1.773      2.569
REMARK  Name = 5326929
REMARK  3 active torsions:
REMARK  status: ('A' for Active; 'I' for Inactive)
REMARK    1  A    between atoms: C_7  and  C_21
REMARK    2  A    between atoms: C_21  and  C_22
REMARK    3  A    between atoms: C_22  and  C_23
REMARK                            x       y       z     vdW  Elec       q    Type
REMARK                         _______ _______ _______ _____ _____    ______ ____
ROOT
ATOM      1  O   UNL     1      36.646 -26.132 -11.524  0.00  0.00    -0.209 OA
ATOM      2  N   UNL     1      37.298 -24.250 -14.998  0.00  0.00    -0.275 N 
ATOM      3  N   UNL     1      32.181 -23.807 -13.028  0.00  0.00    -0.315 N 
ATOM      4  N   UNL     1      32.575 -22.772 -14.955  0.00  0.00    -0.316 N 
ATOM      5  N   UNL     1      38.105 -25.587 -13.202  0.00  0.00    -0.302 NA
ATOM      6  N   UNL     1      39.482 -24.950 -14.987  0.00  0.00    -0.320 N 
ATOM      7  C   UNL     1      34.997 -23.452 -15.109  0.00  0.00    +0.007 C 
ATOM      8  C   UNL     1      36.013 -24.167 -14.455  0.00  0.00    +0.060 C 
ATOM      9  C   UNL     1      33.721 -23.399 -14.521  0.00  0.00    +0.056 C 
ATOM     10  C   UNL     1      33.500 -24.054 -13.314  0.00  0.00    +0.060 C 
ATOM     11  C   UNL     1      35.751 -24.816 -13.238  0.00  0.00    +0.109 C 
ATOM     12  C   UNL     1      34.484 -24.776 -12.637  0.00  0.00    +0.029 C 
ATOM     13  C   UNL     1      36.866 -25.563 -12.588  0.00  0.00    +0.208 C 
ATOM     14  C   UNL     1      31.673 -23.037 -14.038  0.00  0.00    +0.182 C 
ATOM     15  C   UNL     1      38.274 -24.958 -14.336  0.00  0.00    +0.248 C 
ATOM     16  H   UNL     1      37.504 -23.803 -15.850  0.00  0.00    +0.156 HD
ATOM     17  H   UNL     1      31.689 -24.127 -12.239  0.00  0.00    +0.148 HD
ATOM     18  H   UNL     1      32.457 -22.241 -15.775  0.00  0.00    +0.148 HD
ATOM     19  H   UNL     1      39.578 -24.467 -15.841  0.00  0.00    +0.146 HD
ATOM     20  H   UNL     1      40.252 -25.426 -14.603  0.00  0.00    +0.146 HD
ENDROOT
BRANCH   7  21
ATOM     21  C   UNL     1      35.269 -22.757 -16.406  0.00  0.00    +0.034 C 
BRANCH  21  22
ATOM     22  C   UNL     1      34.167 -22.957 -17.463  0.00  0.00    +0.031 C 
BRANCH  22  23
ATOM     23  C   UNL     1      34.243 -21.965 -18.598  0.00  0.00    -0.022 C 
ATOM     24  C   UNL     1      35.483 -21.588 -19.091  0.00  0.00    -0.005 C 
ATOM     25  C   UNL     1      33.072 -21.449 -19.128  0.00  0.00    -0.005 C 
ATOM     26  C   UNL     1      34.381 -20.143 -20.683  0.00  0.00    -0.022 C 
ATOM     27  C   UNL     1      35.552 -20.672 -20.139  0.00  0.00    -0.005 C 
ATOM     28  C   UNL     1      33.141 -20.532 -20.177  0.00  0.00    -0.005 C 
ATOM     29  C   UNL     1      34.456 -19.164 -21.804  0.00  0.00    +0.031 C 
ENDBRANCH  22  23
ENDBRANCH  21  22
ENDBRANCH   7  21
TORSDOF 3
ENDMDL
MODEL 3
REMARK VINA RESULT:     -11.7      1.757      4.175
REMARK  Name = 5326929
REMARK  3 active torsions:
REMARK  status: ('A' for Active; 'I' for Inactive)
REMARK    1  A    between atoms: C_7  and  C_21
REMARK    2  A    between atoms: C_21  and  C_22
REMARK    3  A    between atoms: C_22  and  C_23
REMARK                            x       y       z     vdW  Elec       q    Type
REMARK                         _______ _______ _______ _____ _____    ______ ____
ROOT
ATOM      1  O   UNL     1      28.579 -25.531 -13.658  0.00  0.00    -0.209 OA
ATOM      2  N   UNL     1      29.750 -23.056 -16.581  0.00  0.00    -0.275 N 
ATOM      3  N   UNL     1      33.793 -24.950 -13.367  0.00  0.00    -0.315 N 
ATOM      4  N   UNL     1      34.411 -23.575 -14.999  0.00  0.00    -0.316 N 
ATOM      5  N   UNL     1      28.011 -24.216 -15.445  0.00  0.00    -0.302 NA
ATOM      6  N   UNL     1      27.580 -22.837 -17.289  0.00  0.00    -0.320 N 
ATOM      7  C   UNL     1      32.090 -23.217 -15.912  0.00  0.00    +0.007 C 
ATOM      8  C   UNL     1      30.741 -23.565 -15.736  0.00  0.00    +0.060 C 
ATOM      9  C   UNL     1      33.047 -23.757 -15.035  0.00  0.00    +0.056 C 
ATOM     10  C   UNL     1      32.635 -24.616 -14.022  0.00  0.00    +0.060 C 
ATOM     11  C   UNL     1      30.364 -24.435 -14.701  0.00  0.00    +0.109 C 
ATOM     12  C   UNL     1      31.304 -24.983 -13.816  0.00  0.00    +0.029 C 
ATOM     13  C   UNL     1      28.917 -24.770 -14.560  0.00  0.00    +0.208 C 
ATOM     14  C   UNL     1      34.825 -24.303 -13.988  0.00  0.00    +0.182 C 
ATOM     15  C   UNL     1      28.436 -23.413 -16.385  0.00  0.00    +0.248 C 
ATOM     16  H   UNL     1      29.992 -22.443 -17.312  0.00  0.00    +0.156 HD
ATOM     17  H   UNL     1      33.867 -25.548 -12.589  0.00  0.00    +0.148 HD
ATOM     18  H   UNL     1      34.957 -23.019 -15.600  0.00  0.00    +0.148 HD
ATOM     19  H   UNL     1      27.931 -22.236 -17.986  0.00  0.00    +0.146 HD
ATOM     20  H   UNL     1      26.615 -23.024 -17.242  0.00  0.00    +0.146 HD
ENDROOT
BRANCH   7  21
ATOM     21  C   UNL     1      32.499 -22.290 -17.013  0.00  0.00    +0.034 C 
BRANCH  21  22
ATOM     22  C   UNL     1      33.488 -22.913 -18.016  0.00  0.00    +0.031 C 
BRANCH  22  23
ATOM     23  C   UNL     1      34.138 -21.897 -18.922  0.00  0.00    -0.022 C 
ATOM     24  C   UNL     1      33.341 -21.084 -19.715  0.00  0.00    -0.005 C 
ATOM     25  C   UNL     1      35.519 -21.792 -18.946  0.00  0.00    -0.005 C 
ATOM     26  C   UNL     1      35.332 -20.029 -20.587  0.00  0.00    -0.022 C 
ATOM     27  C   UNL     1      33.943 -20.145 -20.552  0.00  0.00    -0.005 C 
ATOM     28  C   UNL     1      36.121 -20.853 -19.783  0.00  0.00    -0.005 C 
ATOM     29  C   UNL     1      35.975 -19.024 -21.481  0.00  0.00    +0.031 C 
ENDBRANCH  22  23
ENDBRANCH  21  22
ENDBRANCH   7  21
TORSDOF 3
ENDMDL
MODEL 4
REMARK VINA RESULT:     -11.7      1.163      1.575
REMARK  Name = 5326929
REMARK  3 active torsions:
REMARK  status: ('A' for Active; 'I' for Inactive)
REMARK    1  A    between atoms: C_7  and  C_21
REMARK    2  A    between atoms: C_21  and  C_22
REMARK    3  A    between atoms: C_22  and  C_23
REMARK                            x       y       z     vdW  Elec       q    Type
REMARK                         _______ _______ _______ _____ _____    ______ ____
ROOT
ATOM      1  O   UNL     1      34.312 -24.221 -11.636  0.00  0.00    -0.209 OA
ATOM      2  N   UNL     1      35.233 -23.938 -15.524  0.00  0.00    -0.275 N 
ATOM      3  N   UNL     1      29.942 -23.046 -14.307  0.00  0.00    -0.315 N 
ATOM      4  N   UNL     1      30.485 -22.895 -16.456  0.00  0.00    -0.316 N 
ATOM      5  N   UNL     1      35.905 -24.338 -13.276  0.00  0.00    -0.302 NA
ATOM      6  N   UNL     1      37.425 -24.423 -15.057  0.00  0.00    -0.320 N 
ATOM      7  C   UNL     1      32.929 -23.415 -16.130  0.00  0.00    +0.007 C 
ATOM      8  C   UNL     1      33.900 -23.720 -15.163  0.00  0.00    +0.060 C 
ATOM      9  C   UNL     1      31.603 -23.204 -15.715  0.00  0.00    +0.056 C 
ATOM     10  C   UNL     1      31.288 -23.303 -14.364  0.00  0.00    +0.060 C 
ATOM     11  C   UNL     1      33.544 -23.812 -13.808  0.00  0.00    +0.109 C 
ATOM     12  C   UNL     1      32.225 -23.606 -13.374  0.00  0.00    +0.029 C 
ATOM     13  C   UNL     1      34.614 -24.139 -12.823  0.00  0.00    +0.208 C 
ATOM     14  C   UNL     1      29.509 -22.809 -15.582  0.00  0.00    +0.182 C 
ATOM     15  C   UNL     1      36.162 -24.236 -14.554  0.00  0.00    +0.248 C 
ATOM     16  H   UNL     1      35.505 -23.880 -16.468  0.00  0.00    +0.156 HD
ATOM     17  H   UNL     1      29.388 -23.035 -13.495  0.00  0.00    +0.148 HD
ATOM     18  H   UNL     1      30.429 -22.768 -17.431  0.00  0.00    +0.148 HD
ATOM     19  H   UNL     1      37.587 -24.340 -16.026  0.00  0.00    +0.146 HD
ATOM     20  H   UNL     1      38.169 -24.641 -14.452  0.00  0.00    +0.146 HD
ENDROOT
BRANCH   7  21
ATOM     21  C   UNL     1      33.302 -23.315 -17.576  0.00  0.00    +0.034 C 
BRANCH  21  22
ATOM     22  C   UNL     1      34.636 -22.587 -17.826  0.00  0.00    +0.031 C 
BRANCH  22  23
ATOM     23  C   UNL     1      34.577 -21.615 -18.979  0.00  0.00    -0.022 C 
ATOM     24  C   UNL     1      35.758 -21.168 -19.553  0.00  0.00    -0.005 C 
ATOM     25  C   UNL     1      33.345 -21.187 -19.445  0.00  0.00    -0.005 C 
ATOM     26  C   UNL     1      34.469 -19.829 -21.097  0.00  0.00    -0.022 C 
ATOM     27  C   UNL     1      35.702 -20.270 -20.619  0.00  0.00    -0.005 C 
ATOM     28  C   UNL     1      33.289 -20.289 -20.510  0.00  0.00    -0.005 C 
ATOM     29  C   UNL     1      34.410 -18.871 -22.237  0.00  0.00    +0.031 C 
ENDBRANCH  22  23
ENDBRANCH  21  22
ENDBRANCH   7  21
TORSDOF 3
ENDMDL
MODEL 5
REMARK VINA RESULT:     -11.1      1.386      4.037
REMARK  Name = 5326929
REMARK  3 active torsions:
REMARK  status: ('A' for Active; 'I' for Inactive)
REMARK    1  A    between atoms: C_7  and  C_21
REMARK    2  A    between atoms: C_21  and  C_22
REMARK    3  A    between atoms: C_22  and  C_23
REMARK                            x       y       z     vdW  Elec       q    Type
REMARK                         _______ _______ _______ _____ _____    ______ ____
ROOT
ATOM      1  O   UNL     1      31.426 -24.871 -12.621  0.00  0.00    -0.209 OA
ATOM      2  N   UNL     1      32.431 -22.976 -16.003  0.00  0.00    -0.275 N 
ATOM      3  N   UNL     1      36.667 -24.660 -12.924  0.00  0.00    -0.315 N 
ATOM      4  N   UNL     1      37.192 -23.606 -14.809  0.00  0.00    -0.316 N 
ATOM      5  N   UNL     1      30.753 -23.808 -14.534  0.00  0.00    -0.302 NA
ATOM      6  N   UNL     1      30.215 -22.701 -16.528  0.00  0.00    -0.320 N 
ATOM      7  C   UNL     1      34.814 -23.213 -15.543  0.00  0.00    +0.007 C 
ATOM      8  C   UNL     1      33.472 -23.424 -15.185  0.00  0.00    +0.060 C 
ATOM      9  C   UNL     1      35.824 -23.684 -14.685  0.00  0.00    +0.056 C 
ATOM     10  C   UNL     1      35.469 -24.341 -13.512  0.00  0.00    +0.060 C 
ATOM     11  C   UNL     1      33.154 -24.092 -13.992  0.00  0.00    +0.109 C 
ATOM     12  C   UNL     1      34.148 -24.568 -13.123  0.00  0.00    +0.029 C 
ATOM     13  C   UNL     1      31.713 -24.287 -13.661  0.00  0.00    +0.208 C 
ATOM     14  C   UNL     1      37.666 -24.199 -13.737  0.00  0.00    +0.182 C 
ATOM     15  C   UNL     1      31.125 -23.196 -15.627  0.00  0.00    +0.248 C 
ATOM     16  H   UNL     1      32.630 -22.505 -16.844  0.00  0.00    +0.156 HD
ATOM     17  H   UNL     1      36.787 -25.134 -12.071  0.00  0.00    +0.148 HD
ATOM     18  H   UNL     1      37.705 -23.194 -15.541  0.00  0.00    +0.148 HD
ATOM     19  H   UNL     1      30.527 -22.244 -17.343  0.00  0.00    +0.146 HD
ATOM     20  H   UNL     1      29.251 -22.803 -16.359  0.00  0.00    +0.146 HD
ENDROOT
BRANCH   7  21
ATOM     21  C   UNL     1      35.160 -22.503 -16.813  0.00  0.00    +0.034 C 
BRANCH  21  22
ATOM     22  C   UNL     1      34.118 -22.686 -17.933  0.00  0.00    +0.031 C 
BRANCH  22  23
ATOM     23  C   UNL     1      34.246 -21.667 -19.038  0.00  0.00    -0.022 C 
ATOM     24  C   UNL     1      35.508 -21.274 -19.459  0.00  0.00    -0.005 C 
ATOM     25  C   UNL     1      33.100 -21.141 -19.613  0.00  0.00    -0.005 C 
ATOM     26  C   UNL     1      34.480 -19.793 -21.068  0.00  0.00    -0.022 C 
ATOM     27  C   UNL     1      35.624 -20.332 -20.481  0.00  0.00    -0.005 C 
ATOM     28  C   UNL     1      33.217 -20.198 -20.635  0.00  0.00    -0.005 C 
ATOM     29  C   UNL     1      34.605 -18.787 -22.161  0.00  0.00    +0.031 C 
ENDBRANCH  22  23
ENDBRANCH  21  22
ENDBRANCH   7  21
TORSDOF 3
ENDMDL
MODEL 6
REMARK VINA RESULT:     -10.7      3.898      7.281
REMARK  Name = 5326929
REMARK  3 active torsions:
REMARK  status: ('A' for Active; 'I' for Inactive)
REMARK    1  A    between atoms: C_7  and  C_21
REMARK    2  A    between atoms: C_21  and  C_22
REMARK    3  A    between atoms: C_22  and  C_23
REMARK                            x       y       z     vdW  Elec       q    Type
REMARK                         _______ _______ _______ _____ _____    ______ ____
ROOT
ATOM      1  O   UNL     1      33.395 -19.410 -21.897  0.00  0.00    -0.209 OA
ATOM      2  N   UNL     1      36.800 -20.152 -19.924  0.00  0.00    -0.275 N 
ATOM      3  N   UNL     1      32.360 -22.747 -17.972  0.00  0.00    -0.315 N 
ATOM      4  N   UNL     1      34.265 -23.139 -16.900  0.00  0.00    -0.316 N 
ATOM      5  N   UNL     1      35.645 -19.042 -21.683  0.00  0.00    -0.302 NA
ATOM      6  N   UNL     1      37.946 -18.762 -21.344  0.00  0.00    -0.320 N 
ATOM      7  C   UNL     1      35.681 -21.650 -18.359  0.00  0.00    +0.007 C 
ATOM      8  C   UNL     1      35.642 -20.788 -19.466  0.00  0.00    +0.060 C 
ATOM      9  C   UNL     1      34.488 -22.266 -17.939  0.00  0.00    +0.056 C 
ATOM     10  C   UNL     1      33.309 -22.005 -18.628  0.00  0.00    +0.060 C 
ATOM     11  C   UNL     1      34.432 -20.549 -20.136  0.00  0.00    +0.109 C 
ATOM     12  C   UNL     1      33.232 -21.153 -19.731  0.00  0.00    +0.029 C 
ATOM     13  C   UNL     1      34.449 -19.624 -21.305  0.00  0.00    +0.208 C 
ATOM     14  C   UNL     1      32.981 -23.406 -16.948  0.00  0.00    +0.182 C 
ATOM     15  C   UNL     1      36.733 -19.312 -21.011  0.00  0.00    +0.248 C 
ATOM     16  H   UNL     1      37.660 -20.304 -19.469  0.00  0.00    +0.156 HD
ATOM     17  H   UNL     1      31.403 -22.796 -18.198  0.00  0.00    +0.148 HD
ATOM     18  H   UNL     1      34.926 -23.488 -16.258  0.00  0.00    +0.148 HD
ATOM     19  H   UNL     1      38.748 -18.985 -20.817  0.00  0.00    +0.146 HD
ATOM     20  H   UNL     1      38.014 -18.145 -22.107  0.00  0.00    +0.146 HD
ENDROOT
BRANCH   7  21
ATOM     21  C   UNL     1      36.968 -21.910 -17.642  0.00  0.00    +0.034 C 
BRANCH  21  22
ATOM     22  C   UNL     1      36.960 -21.463 -16.168  0.00  0.00    +0.031 C 
BRANCH  22  23
ATOM     23  C   UNL     1      37.183 -22.599 -15.200  0.00  0.00    -0.022 C 
ATOM     24  C   UNL     1      38.234 -23.478 -15.411  0.00  0.00    -0.005 C 
ATOM     25  C   UNL     1      36.332 -22.744 -14.115  0.00  0.00    -0.005 C 
ATOM     26  C   UNL     1      37.590 -24.686 -13.420  0.00  0.00    -0.022 C 
ATOM     27  C   UNL     1      38.439 -24.527 -14.516  0.00  0.00    -0.005 C 
ATOM     28  C   UNL     1      36.537 -23.794 -13.220  0.00  0.00    -0.005 C 
ATOM     29  C   UNL     1      37.810 -25.807 -12.463  0.00  0.00    +0.031 C 
ENDBRANCH  22  23
ENDBRANCH  21  22
ENDBRANCH   7  21
TORSDOF 3
ENDMDL
MODEL 7
REMARK VINA RESULT:     -10.3      2.900      6.003
REMARK  Name = 5326929
REMARK  3 active torsions:
REMARK  status: ('A' for Active; 'I' for Inactive)
REMARK    1  A    between atoms: C_7  and  C_21
REMARK    2  A    between atoms: C_21  and  C_22
REMARK    3  A    between atoms: C_22  and  C_23
REMARK                            x       y       z     vdW  Elec       q    Type
REMARK                         _______ _______ _______ _____ _____    ______ ____
ROOT
ATOM      1  O   UNL     1      37.237 -21.548 -17.089  0.00  0.00    -0.209 OA
ATOM      2  N   UNL     1      33.798 -23.489 -16.423  0.00  0.00    -0.275 N 
ATOM      3  N   UNL     1      37.452 -23.739 -12.319  0.00  0.00    -0.315 N 
ATOM      4  N   UNL     1      35.533 -24.806 -11.979  0.00  0.00    -0.316 N 
ATOM      5  N   UNL     1      35.165 -22.161 -17.848  0.00  0.00    -0.302 NA
ATOM      6  N   UNL     1      33.024 -22.861 -18.489  0.00  0.00    -0.320 N 
ATOM      7  C   UNL     1      34.522 -24.212 -14.210  0.00  0.00    +0.007 C 
ATOM      8  C   UNL     1      34.760 -23.523 -15.410  0.00  0.00    +0.060 C 
ATOM      9  C   UNL     1      35.523 -24.215 -13.222  0.00  0.00    +0.056 C 
ATOM     10  C   UNL     1      36.715 -23.539 -13.458  0.00  0.00    +0.060 C 
ATOM     11  C   UNL     1      35.977 -22.852 -15.612  0.00  0.00    +0.109 C 
ATOM     12  C   UNL     1      36.988 -22.845 -14.638  0.00  0.00    +0.029 C 
ATOM     13  C   UNL     1      36.177 -22.137 -16.905  0.00  0.00    +0.208 C 
ATOM     14  C   UNL     1      36.703 -24.502 -11.466  0.00  0.00    +0.182 C 
ATOM     15  C   UNL     1      34.059 -22.806 -17.589  0.00  0.00    +0.248 C 
ATOM     16  H   UNL     1      32.938 -23.953 -16.304  0.00  0.00    +0.156 HD
ATOM     17  H   UNL     1      38.358 -23.396 -12.146  0.00  0.00    +0.148 HD
ATOM     18  H   UNL     1      34.818 -25.341 -11.565  0.00  0.00    +0.148 HD
ATOM     19  H   UNL     1      32.202 -23.356 -18.264  0.00  0.00    +0.146 HD
ATOM     20  H   UNL     1      33.102 -22.406 -19.358  0.00  0.00    +0.146 HD
ENDROOT
BRANCH   7  21
ATOM     21  C   UNL     1      33.228 -24.928 -13.988  0.00  0.00    +0.034 C 
BRANCH  21  22
ATOM     22  C   UNL     1      32.128 -24.047 -13.365  0.00  0.00    +0.031 C 
BRANCH  22  23
ATOM     23  C   UNL     1      30.930 -23.866 -14.264  0.00  0.00    -0.022 C 
ATOM     24  C   UNL     1      30.911 -22.816 -15.170  0.00  0.00    -0.005 C 
ATOM     25  C   UNL     1      29.869 -24.752 -14.169  0.00  0.00    -0.005 C 
ATOM     26  C   UNL     1      28.727 -23.533 -15.915  0.00  0.00    -0.022 C 
ATOM     27  C   UNL     1      29.803 -22.650 -16.000  0.00  0.00    -0.005 C 
ATOM     28  C   UNL     1      28.761 -24.586 -15.000  0.00  0.00    -0.005 C 
ATOM     29  C   UNL     1      27.544 -23.356 -16.804  0.00  0.00    +0.031 C 
ENDBRANCH  22  23
ENDBRANCH  21  22
ENDBRANCH   7  21
TORSDOF 3
ENDMDL
MODEL 8
REMARK VINA RESULT:     -10.1      2.834      5.719
REMARK  Name = 5326929
REMARK  3 active torsions:
REMARK  status: ('A' for Active; 'I' for Inactive)
REMARK    1  A    between atoms: C_7  and  C_21
REMARK    2  A    between atoms: C_21  and  C_22
REMARK    3  A    between atoms: C_22  and  C_23
REMARK                            x       y       z     vdW  Elec       q    Type
REMARK                         _______ _______ _______ _____ _____    ______ ____
ROOT
ATOM      1  O   UNL     1      33.064 -22.633 -18.937  0.00  0.00    -0.209 OA
ATOM      2  N   UNL     1      35.384 -22.720 -15.673  0.00  0.00    -0.275 N 
ATOM      3  N   UNL     1      30.162 -24.251 -14.866  0.00  0.00    -0.315 N 
ATOM      4  N   UNL     1      31.475 -24.290 -13.074  0.00  0.00    -0.316 N 
ATOM      5  N   UNL     1      35.126 -22.293 -18.000  0.00  0.00    -0.302 NA
ATOM      6  N   UNL     1      37.176 -21.993 -16.906  0.00  0.00    -0.320 N 
ATOM      7  C   UNL     1      33.547 -23.495 -14.269  0.00  0.00    +0.007 C 
ATOM      8  C   UNL     1      34.048 -23.100 -15.520  0.00  0.00    +0.060 C 
ATOM      9  C   UNL     1      32.195 -23.869 -14.169  0.00  0.00    +0.056 C 
ATOM     10  C   UNL     1      31.394 -23.837 -15.306  0.00  0.00    +0.060 C 
ATOM     11  C   UNL     1      33.208 -23.081 -16.645  0.00  0.00    +0.109 C 
ATOM     12  C   UNL     1      31.856 -23.449 -16.564  0.00  0.00    +0.029 C 
ATOM     13  C   UNL     1      33.792 -22.652 -17.948  0.00  0.00    +0.208 C 
ATOM     14  C   UNL     1      30.262 -24.509 -13.527  0.00  0.00    +0.182 C 
ATOM     15  C   UNL     1      35.848 -22.337 -16.911  0.00  0.00    +0.248 C 
ATOM     16  H   UNL     1      35.991 -22.725 -14.898  0.00  0.00    +0.156 HD
ATOM     17  H   UNL     1      29.352 -24.344 -15.416  0.00  0.00    +0.148 HD
ATOM     18  H   UNL     1      31.799 -24.401 -12.152  0.00  0.00    +0.148 HD
ATOM     19  H   UNL     1      37.693 -22.035 -16.068  0.00  0.00    +0.146 HD
ATOM     20  H   UNL     1      37.612 -21.702 -17.739  0.00  0.00    +0.146 HD
ENDROOT
BRANCH   7  21
ATOM     21  C   UNL     1      34.437 -23.519 -13.067  0.00  0.00    +0.034 C 
BRANCH  21  22
ATOM     22  C   UNL     1      34.906 -24.931 -12.667  0.00  0.00    +0.031 C 
BRANCH  22  23
ATOM     23  C   UNL     1      36.334 -25.218 -13.060  0.00  0.00    -0.022 C 
ATOM     24  C   UNL     1      36.592 -25.906 -14.236  0.00  0.00    -0.005 C 
ATOM     25  C   UNL     1      37.364 -24.788 -12.239  0.00  0.00    -0.005 C 
ATOM     26  C   UNL     1      38.959 -25.744 -13.781  0.00  0.00    -0.022 C 
ATOM     27  C   UNL     1      37.913 -26.170 -14.598  0.00  0.00    -0.005 C 
ATOM     28  C   UNL     1      38.685 -25.052 -12.601  0.00  0.00    -0.005 C 
ATOM     29  C   UNL     1      40.371 -26.026 -14.169  0.00  0.00    +0.031 C 
ENDBRANCH  22  23
ENDBRANCH  21  22
ENDBRANCH   7  21
TORSDOF 3
ENDMDL
MODEL 9
REMARK VINA RESULT:      -9.7      8.372     11.660
REMARK  Name = 5326929
REMARK  3 active torsions:
REMARK  status: ('A' for Active; 'I' for Inactive)
REMARK    1  A    between atoms: C_7  and  C_21
REMARK    2  A    between atoms: C_21  and  C_22
REMARK    3  A    between atoms: C_22  and  C_23
REMARK                            x       y       z     vdW  Elec       q    Type
REMARK                         _______ _______ _______ _____ _____    ______ ____
ROOT
ATOM      1  O   UNL     1      34.647 -20.018 -24.350  0.00  0.00    -0.209 OA
ATOM      2  N   UNL     1      35.316 -17.109 -21.679  0.00  0.00    -0.275 N 
ATOM      3  N   UNL     1      32.672 -15.530 -26.237  0.00  0.00    -0.315 N 
ATOM      4  N   UNL     1      33.056 -13.939 -24.735  0.00  0.00    -0.316 N 
ATOM      5  N   UNL     1      35.516 -19.390 -22.327  0.00  0.00    -0.302 NA
ATOM      6  N   UNL     1      36.356 -18.604 -20.286  0.00  0.00    -0.320 N 
ATOM      7  C   UNL     1      34.229 -15.437 -23.083  0.00  0.00    +0.007 C 
ATOM      8  C   UNL     1      34.647 -16.758 -22.856  0.00  0.00    +0.060 C 
ATOM      9  C   UNL     1      33.559 -15.137 -24.283  0.00  0.00    +0.056 C 
ATOM     10  C   UNL     1      33.330 -16.150 -25.206  0.00  0.00    +0.060 C 
ATOM     11  C   UNL     1      34.397 -17.755 -23.813  0.00  0.00    +0.109 C 
ATOM     12  C   UNL     1      33.731 -17.474 -25.015  0.00  0.00    +0.029 C 
ATOM     13  C   UNL     1      34.862 -19.141 -23.519  0.00  0.00    +0.208 C 
ATOM     14  C   UNL     1      32.533 -14.210 -25.908  0.00  0.00    +0.182 C 
ATOM     15  C   UNL     1      35.713 -18.412 -21.483  0.00  0.00    +0.248 C 
ATOM     16  H   UNL     1      35.502 -16.427 -20.995  0.00  0.00    +0.156 HD
ATOM     17  H   UNL     1      32.356 -15.957 -27.066  0.00  0.00    +0.148 HD
ATOM     18  H   UNL     1      33.084 -13.067 -24.279  0.00  0.00    +0.148 HD
ATOM     19  H   UNL     1      36.490 -17.846 -19.671  0.00  0.00    +0.146 HD
ATOM     20  H   UNL     1      36.684 -19.499 -20.041  0.00  0.00    +0.146 HD
ENDROOT
BRANCH   7  21
ATOM     21  C   UNL     1      34.492 -14.371 -22.067  0.00  0.00    +0.034 C 
BRANCH  21  22
ATOM     22  C   UNL     1      33.276 -14.043 -21.181  0.00  0.00    +0.031 C 
BRANCH  22  23
ATOM     23  C   UNL     1      32.750 -12.644 -21.384  0.00  0.00    -0.022 C 
ATOM     24  C   UNL     1      31.847 -12.116 -20.473  0.00  0.00    -0.005 C 
ATOM     25  C   UNL     1      33.178 -11.909 -22.478  0.00  0.00    -0.005 C 
ATOM     26  C   UNL     1      31.783 -10.072 -21.760  0.00  0.00    -0.022 C 
ATOM     27  C   UNL     1      31.361 -10.823 -20.663  0.00  0.00    -0.005 C 
ATOM     28  C   UNL     1      32.693 -10.615 -22.668  0.00  0.00    -0.005 C 
ATOM     29  C   UNL     1      31.265  -8.689 -21.961  0.00  0.00    +0.031 C 
ENDBRANCH  22  23
ENDBRANCH  21  22
ENDBRANCH   7  21
TORSDOF 3
ENDMDL
