MODEL 1
REMARK VINA RESULT:     -12.4      0.000      0.000
REMARK  Name = 25243853
REMARK  6 active torsions:
REMARK  status: ('A' for Active; 'I' for Inactive)
REMARK    1  A    between atoms: N_1  and  C_6
REMARK    2  A    between atoms: N_1  and  C_21
REMARK    3  A    between atoms: C_3  and  C_16
REMARK    4  A    between atoms: C_11  and  C_18
REMARK    5  A    between atoms: C_18  and  O_19
REMARK    6  A    between atoms: C_21  and  C_28
REMARK                            x       y       z     vdW  Elec       q    Type
REMARK                         _______ _______ _______ _____ _____    ______ ____
ROOT
ATOM      1  N   UNL     1      35.326 -19.294 -21.868  0.00  0.00    -0.327 N 
ATOM      2  H   UNL     1      35.533 -19.708 -22.737  0.00  0.00    +0.147 HD
ENDROOT
BRANCH   1   6
ATOM      3  C   UNL     1      33.935 -21.751 -18.758  0.00  0.00    +0.054 C 
ATOM      4  C   UNL     1      35.303 -21.659 -19.015  0.00  0.00    +0.006 C 
ATOM      5  C   UNL     1      33.029 -21.027 -19.534  0.00  0.00    +0.006 C 
ATOM      6  C   UNL     1      34.859 -20.119 -20.823  0.00  0.00    +0.045 C 
ATOM      7  C   UNL     1      35.765 -20.842 -20.048  0.00  0.00    +0.014 C 
ATOM      8  C   UNL     1      33.491 -20.211 -20.566  0.00  0.00    +0.014 C 
BRANCH   3  16
ATOM      9  O   UNL     1      32.240 -22.842 -17.664  0.00  0.00    -0.270 OA
ATOM     10  N   UNL     1      34.378 -23.093 -16.748  0.00  0.00    -0.276 N 
ATOM     11  C   UNL     1      35.776 -22.934 -14.207  0.00  0.00    +0.102 C 
ATOM     12  C   UNL     1      34.292 -23.301 -14.297  0.00  0.00    +0.033 C 
ATOM     13  C   UNL     1      36.256 -22.168 -15.443  0.00  0.00    +0.033 C 
ATOM     14  C   UNL     1      33.926 -23.931 -15.640  0.00  0.00    +0.094 C 
ATOM     15  C   UNL     1      35.818 -22.814 -16.759  0.00  0.00    +0.094 C 
ATOM     16  C   UNL     1      33.448 -22.610 -17.672  0.00  0.00    +0.249 C 
BRANCH  11  18
ATOM     17  O   UNL     1      36.141 -25.250 -13.648  0.00  0.00    -0.250 OA
ATOM     18  C   UNL     1      36.604 -24.167 -13.979  0.00  0.00    +0.317 C 
BRANCH  18  19
ATOM     19  O   UNL     1      37.919 -23.879 -14.196  0.00  0.00    -0.444 OA
ATOM     20  C   UNL     1      38.792 -25.011 -14.258  0.00  0.00    +0.256 C 
ENDBRANCH  18  19
ENDBRANCH  11  18
ENDBRANCH   3  16
ENDBRANCH   1   6
BRANCH   1  21
ATOM     21  C   UNL     1      35.514 -17.885 -21.720  0.00  0.00    +0.145 C 
BRANCH  21  28
ATOM     22  N   UNL     1      34.739 -15.824 -22.770  0.00  0.00    -0.392 NA
ATOM     23  N   UNL     1      34.059 -17.161 -25.097  0.00  0.00    -0.200 NA
ATOM     24  N   UNL     1      33.338 -15.175 -26.044  0.00  0.00    -0.271 NA
ATOM     25  N   UNL     1      33.455 -13.113 -24.825  0.00  0.00    -0.310 NA
ATOM     26  N   UNL     1      34.316 -13.105 -22.625  0.00  0.00    -0.329 N 
ATOM     27  N   UNL     1      32.606 -13.163 -27.006  0.00  0.00    -0.283 N 
ATOM     28  C   UNL     1      34.925 -17.148 -22.891  0.00  0.00    +0.133 C 
ATOM     29  C   UNL     1      34.588 -17.808 -24.042  0.00  0.00    +0.193 C 
ATOM     30  C   UNL     1      34.210 -15.179 -23.827  0.00  0.00    +0.248 C 
ATOM     31  C   UNL     1      33.862 -15.840 -25.008  0.00  0.00    +0.131 C 
ATOM     32  C   UNL     1      33.980 -13.817 -23.805  0.00  0.00    +0.231 C 
ATOM     33  C   UNL     1      33.160 -13.847 -25.903  0.00  0.00    +0.207 C 
ATOM     34  H   UNL     1      34.164 -12.133 -22.575  0.00  0.00    +0.145 HD
ATOM     35  H   UNL     1      34.700 -13.582 -21.854  0.00  0.00    +0.145 HD
ATOM     36  H   UNL     1      32.370 -13.657 -27.824  0.00  0.00    +0.156 HD
ATOM     37  H   UNL     1      32.454 -12.191 -26.958  0.00  0.00    +0.156 HD
ENDBRANCH  21  28
ENDBRANCH   1  21
TORSDOF 6
ENDMDL
MODEL 2
REMARK VINA RESULT:     -11.8      0.713      1.705
REMARK  Name = 25243853
REMARK  6 active torsions:
REMARK  status: ('A' for Active; 'I' for Inactive)
REMARK    1  A    between atoms: N_1  and  C_6
REMARK    2  A    between atoms: N_1  and  C_21
REMARK    3  A    between atoms: C_3  and  C_16
REMARK    4  A    between atoms: C_11  and  C_18
REMARK    5  A    between atoms: C_18  and  O_19
REMARK    6  A    between atoms: C_21  and  C_28
REMARK                            x       y       z     vdW  Elec       q    Type
REMARK                         _______ _______ _______ _____ _____    ______ ____
ROOT
ATOM      1  N   UNL     1      35.488 -19.299 -21.922  0.00  0.00    -0.327 N 
ATOM      2  H   UNL     1      36.443 -19.062 -21.918  0.00  0.00    +0.147 HD
ENDROOT
BRANCH   1   6
ATOM      3  C   UNL     1      34.008 -21.718 -18.823  0.00  0.00    +0.054 C 
ATOM      4  C   UNL     1      35.379 -21.666 -19.073  0.00  0.00    +0.006 C 
ATOM      5  C   UNL     1      33.128 -20.966 -19.603  0.00  0.00    +0.006 C 
ATOM      6  C   UNL     1      34.991 -20.111 -20.880  0.00  0.00    +0.045 C 
ATOM      7  C   UNL     1      35.871 -20.862 -20.101  0.00  0.00    +0.014 C 
ATOM      8  C   UNL     1      33.619 -20.163 -20.631  0.00  0.00    +0.014 C 
BRANCH   3  16
ATOM      9  O   UNL     1      32.280 -22.784 -17.756  0.00  0.00    -0.270 OA
ATOM     10  N   UNL     1      34.395 -23.050 -16.794  0.00  0.00    -0.276 N 
ATOM     11  C   UNL     1      35.743 -22.886 -14.227  0.00  0.00    +0.102 C 
ATOM     12  C   UNL     1      34.257 -23.239 -14.344  0.00  0.00    +0.033 C 
ATOM     13  C   UNL     1      36.256 -22.133 -15.458  0.00  0.00    +0.033 C 
ATOM     14  C   UNL     1      33.913 -23.875 -15.690  0.00  0.00    +0.094 C 
ATOM     15  C   UNL     1      35.839 -22.785 -16.777  0.00  0.00    +0.094 C 
ATOM     16  C   UNL     1      33.490 -22.564 -17.741  0.00  0.00    +0.249 C 
BRANCH  11  18
ATOM     17  O   UNL     1      36.073 -25.199 -13.635  0.00  0.00    -0.250 OA
ATOM     18  C   UNL     1      36.553 -24.125 -13.972  0.00  0.00    +0.317 C 
BRANCH  18  19
ATOM     19  O   UNL     1      37.874 -23.854 -14.174  0.00  0.00    -0.444 OA
ATOM     20  C   UNL     1      38.730 -24.999 -14.248  0.00  0.00    +0.256 C 
ENDBRANCH  18  19
ENDBRANCH  11  18
ENDBRANCH   3  16
ENDBRANCH   1   6
BRANCH   1  21
ATOM     21  C   UNL     1      34.664 -18.804 -22.981  0.00  0.00    +0.145 C 
BRANCH  21  28
ATOM     22  N   UNL     1      34.043 -16.665 -23.972  0.00  0.00    -0.392 NA
ATOM     23  N   UNL     1      34.908 -15.277 -21.739  0.00  0.00    -0.200 NA
ATOM     24  N   UNL     1      34.299 -13.275 -22.729  0.00  0.00    -0.271 NA
ATOM     25  N   UNL     1      33.328 -13.228 -24.922  0.00  0.00    -0.310 NA
ATOM     26  N   UNL     1      32.990 -15.252 -26.092  0.00  0.00    -0.329 N 
ATOM     27  N   UNL     1      33.683 -11.244 -23.731  0.00  0.00    -0.283 N 
ATOM     28  C   UNL     1      34.564 -17.306 -22.915  0.00  0.00    +0.133 C 
ATOM     29  C   UNL     1      34.991 -16.619 -21.810  0.00  0.00    +0.193 C 
ATOM     30  C   UNL     1      33.960 -15.322 -23.898  0.00  0.00    +0.248 C 
ATOM     31  C   UNL     1      34.392 -14.609 -22.778  0.00  0.00    +0.131 C 
ATOM     32  C   UNL     1      33.439 -14.569 -24.932  0.00  0.00    +0.231 C 
ATOM     33  C   UNL     1      33.773 -12.650 -23.800  0.00  0.00    +0.207 C 
ATOM     34  H   UNL     1      32.614 -14.745 -26.847  0.00  0.00    +0.145 HD
ATOM     35  H   UNL     1      33.055 -16.233 -26.142  0.00  0.00    +0.145 HD
ATOM     36  H   UNL     1      33.997 -10.769 -22.927  0.00  0.00    +0.156 HD
ATOM     37  H   UNL     1      33.306 -10.736 -24.486  0.00  0.00    +0.156 HD
ENDBRANCH  21  28
ENDBRANCH   1  21
TORSDOF 6
ENDMDL
MODEL 3
REMARK VINA RESULT:     -11.7      1.380      1.843
REMARK  Name = 25243853
REMARK  6 active torsions:
REMARK  status: ('A' for Active; 'I' for Inactive)
REMARK    1  A    between atoms: N_1  and  C_6
REMARK    2  A    between atoms: N_1  and  C_21
REMARK    3  A    between atoms: C_3  and  C_16
REMARK    4  A    between atoms: C_11  and  C_18
REMARK    5  A    between atoms: C_18  and  O_19
REMARK    6  A    between atoms: C_21  and  C_28
REMARK                            x       y       z     vdW  Elec       q    Type
REMARK                         _______ _______ _______ _____ _____    ______ ____
ROOT
ATOM      1  N   UNL     1      35.304 -20.664 -20.651  0.00  0.00    -0.327 N 
ATOM      2  H   UNL     1      35.195 -21.135 -21.508  0.00  0.00    +0.147 HD
ENDROOT
BRANCH   1   6
ATOM      3  C   UNL     1      34.308 -22.692 -17.109  0.00  0.00    +0.054 C 
ATOM      4  C   UNL     1      35.626 -22.295 -17.339  0.00  0.00    +0.006 C 
ATOM      5  C   UNL     1      33.322 -22.414 -18.056  0.00  0.00    +0.006 C 
ATOM      6  C   UNL     1      34.969 -21.345 -19.461  0.00  0.00    +0.045 C 
ATOM      7  C   UNL     1      35.956 -21.621 -18.515  0.00  0.00    +0.014 C 
ATOM      8  C   UNL     1      33.652 -21.741 -19.231  0.00  0.00    +0.014 C 
BRANCH   3  16
ATOM      9  O   UNL     1      32.759 -23.552 -15.653  0.00  0.00    -0.270 OA
ATOM     10  N   UNL     1      35.001 -23.845 -15.053  0.00  0.00    -0.276 N 
ATOM     11  C   UNL     1      36.791 -23.516 -12.790  0.00  0.00    +0.102 C 
ATOM     12  C   UNL     1      35.295 -23.794 -12.610  0.00  0.00    +0.033 C 
ATOM     13  C   UNL     1      37.105 -22.914 -14.163  0.00  0.00    +0.033 C 
ATOM     14  C   UNL     1      34.692 -24.534 -13.802  0.00  0.00    +0.094 C 
ATOM     15  C   UNL     1      36.433 -23.663 -15.315  0.00  0.00    +0.094 C 
ATOM     16  C   UNL     1      33.960 -23.401 -15.872  0.00  0.00    +0.249 C 
BRANCH  11  18
ATOM     17  O   UNL     1      37.125 -25.787 -12.054  0.00  0.00    -0.250 OA
ATOM     18  C   UNL     1      37.585 -24.769 -12.554  0.00  0.00    +0.317 C 
BRANCH  18  19
ATOM     19  O   UNL     1      38.867 -24.583 -12.979  0.00  0.00    -0.444 OA
ATOM     20  C   UNL     1      39.464 -25.704 -13.639  0.00  0.00    +0.256 C 
ENDBRANCH  18  19
ENDBRANCH  11  18
ENDBRANCH   3  16
ENDBRANCH   1   6
BRANCH   1  21
ATOM     21  C   UNL     1      35.794 -19.321 -20.665  0.00  0.00    +0.145 C 
BRANCH  21  28
ATOM     22  N   UNL     1      35.055 -17.246 -21.712  0.00  0.00    -0.392 NA
ATOM     23  N   UNL     1      34.427 -18.554 -24.069  0.00  0.00    -0.200 NA
ATOM     24  N   UNL     1      33.739 -16.554 -25.012  0.00  0.00    -0.271 NA
ATOM     25  N   UNL     1      33.834 -14.506 -23.768  0.00  0.00    -0.310 NA
ATOM     26  N   UNL     1      34.640 -14.526 -21.547  0.00  0.00    -0.329 N 
ATOM     27  N   UNL     1      33.040 -14.529 -25.970  0.00  0.00    -0.283 N 
ATOM     28  C   UNL     1      35.238 -18.569 -21.842  0.00  0.00    +0.133 C 
ATOM     29  C   UNL     1      34.928 -19.215 -23.008  0.00  0.00    +0.193 C 
ATOM     30  C   UNL     1      34.555 -16.586 -22.775  0.00  0.00    +0.248 C 
ATOM     31  C   UNL     1      34.234 -17.233 -23.971  0.00  0.00    +0.131 C 
ATOM     32  C   UNL     1      34.330 -15.224 -22.743  0.00  0.00    +0.231 C 
ATOM     33  C   UNL     1      33.563 -15.228 -24.861  0.00  0.00    +0.207 C 
ATOM     34  H   UNL     1      34.491 -13.555 -21.491  0.00  0.00    +0.145 HD
ATOM     35  H   UNL     1      35.002 -15.013 -20.772  0.00  0.00    +0.145 HD
ATOM     36  H   UNL     1      32.823 -15.013 -26.799  0.00  0.00    +0.156 HD
ATOM     37  H   UNL     1      32.891 -13.557 -25.915  0.00  0.00    +0.156 HD
ENDBRANCH  21  28
ENDBRANCH   1  21
TORSDOF 6
ENDMDL
MODEL 4
REMARK VINA RESULT:     -11.3      5.111      8.570
REMARK  Name = 25243853
REMARK  6 active torsions:
REMARK  status: ('A' for Active; 'I' for Inactive)
REMARK    1  A    between atoms: N_1  and  C_6
REMARK    2  A    between atoms: N_1  and  C_21
REMARK    3  A    between atoms: C_3  and  C_16
REMARK    4  A    between atoms: C_11  and  C_18
REMARK    5  A    between atoms: C_18  and  O_19
REMARK    6  A    between atoms: C_21  and  C_28
REMARK                            x       y       z     vdW  Elec       q    Type
REMARK                         _______ _______ _______ _____ _____    ______ ____
ROOT
ATOM      1  N   UNL     1      33.474 -11.345 -24.491  0.00  0.00    -0.327 N 
ATOM      2  H   UNL     1      32.925 -10.925 -25.192  0.00  0.00    +0.147 HD
ENDROOT
BRANCH   1   6
ATOM      3  C   UNL     1      33.761 -15.535 -24.409  0.00  0.00    +0.054 C 
ATOM      4  C   UNL     1      33.435 -14.881 -25.598  0.00  0.00    +0.006 C 
ATOM      5  C   UNL     1      33.992 -14.796 -23.248  0.00  0.00    +0.006 C 
ATOM      6  C   UNL     1      33.571 -12.752 -24.464  0.00  0.00    +0.045 C 
ATOM      7  C   UNL     1      33.340 -13.490 -25.625  0.00  0.00    +0.014 C 
ATOM      8  C   UNL     1      33.897 -13.406 -23.275  0.00  0.00    +0.014 C 
BRANCH   3  16
ATOM      9  O   UNL     1      33.201 -17.604 -25.223  0.00  0.00    -0.270 OA
ATOM     10  N   UNL     1      34.686 -17.583 -23.416  0.00  0.00    -0.276 N 
ATOM     11  C   UNL     1      35.106 -18.830 -20.826  0.00  0.00    +0.102 C 
ATOM     12  C   UNL     1      34.370 -19.545 -21.964  0.00  0.00    +0.033 C 
ATOM     13  C   UNL     1      35.092 -17.308 -20.998  0.00  0.00    +0.033 C 
ATOM     14  C   UNL     1      34.792 -19.038 -23.341  0.00  0.00    +0.094 C 
ATOM     15  C   UNL     1      35.472 -16.859 -22.410  0.00  0.00    +0.094 C 
ATOM     16  C   UNL     1      33.860 -16.999 -24.380  0.00  0.00    +0.249 C 
BRANCH  11  18
ATOM     17  O   UNL     1      37.384 -19.156 -21.543  0.00  0.00    -0.250 OA
ATOM     18  C   UNL     1      36.511 -19.349 -20.709  0.00  0.00    +0.317 C 
BRANCH  18  19
ATOM     19  O   UNL     1      36.641 -20.051 -19.547  0.00  0.00    -0.444 OA
ATOM     20  C   UNL     1      35.996 -21.329 -19.528  0.00  0.00    +0.256 C 
ENDBRANCH  18  19
ENDBRANCH  11  18
ENDBRANCH   3  16
ENDBRANCH   1   6
BRANCH   1  21
ATOM     21  C   UNL     1      34.139 -10.503 -23.546  0.00  0.00    +0.145 C 
BRANCH  21  28
ATOM     22  N   UNL     1      33.471  -8.157 -23.550  0.00  0.00    -0.392 NA
ATOM     23  N   UNL     1      31.362  -8.661 -21.830  0.00  0.00    -0.200 NA
ATOM     24  N   UNL     1      30.774  -6.423 -21.872  0.00  0.00    -0.271 NA
ATOM     25  N   UNL     1      32.024  -4.842 -23.172  0.00  0.00    -0.310 NA
ATOM     26  N   UNL     1      33.885  -5.577 -24.428  0.00  0.00    -0.329 N 
ATOM     27  N   UNL     1      30.175  -4.153 -21.911  0.00  0.00    -0.283 N 
ATOM     28  C   UNL     1      33.228  -9.395 -23.094  0.00  0.00    +0.133 C 
ATOM     29  C   UNL     1      32.184  -9.644 -22.244  0.00  0.00    +0.193 C 
ATOM     30  C   UNL     1      32.647  -7.175 -23.136  0.00  0.00    +0.248 C 
ATOM     31  C   UNL     1      31.578  -7.415 -22.268  0.00  0.00    +0.131 C 
ATOM     32  C   UNL     1      32.811  -5.867 -23.548  0.00  0.00    +0.231 C 
ATOM     33  C   UNL     1      31.034  -5.188 -22.341  0.00  0.00    +0.207 C 
ATOM     34  H   UNL     1      34.031  -4.655 -24.740  0.00  0.00    +0.145 HD
ATOM     35  H   UNL     1      34.486  -6.298 -24.726  0.00  0.00    +0.145 HD
ATOM     36  H   UNL     1      29.431  -4.354 -21.299  0.00  0.00    +0.156 HD
ATOM     37  H   UNL     1      30.320  -3.231 -22.224  0.00  0.00    +0.156 HD
ENDBRANCH  21  28
ENDBRANCH   1  21
TORSDOF 6
ENDMDL
MODEL 5
REMARK VINA RESULT:     -11.1      5.710     11.864
REMARK  Name = 25243853
REMARK  6 active torsions:
REMARK  status: ('A' for Active; 'I' for Inactive)
REMARK    1  A    between atoms: N_1  and  C_6
REMARK    2  A    between atoms: N_1  and  C_21
REMARK    3  A    between atoms: C_3  and  C_16
REMARK    4  A    between atoms: C_11  and  C_18
REMARK    5  A    between atoms: C_18  and  O_19
REMARK    6  A    between atoms: C_21  and  C_28
REMARK                            x       y       z     vdW  Elec       q    Type
REMARK                         _______ _______ _______ _____ _____    ______ ____
ROOT
ATOM      1  N   UNL     1      35.102 -16.218 -23.643  0.00  0.00    -0.327 N 
ATOM      2  H   UNL     1      36.005 -16.012 -23.975  0.00  0.00    +0.147 HD
ENDROOT
BRANCH   1   6
ATOM      3  C   UNL     1      32.808 -13.102 -22.007  0.00  0.00    +0.054 C 
ATOM      4  C   UNL     1      33.636 -13.865 -21.183  0.00  0.00    +0.006 C 
ATOM      5  C   UNL     1      32.742 -13.374 -23.373  0.00  0.00    +0.006 C 
ATOM      6  C   UNL     1      34.332 -15.171 -23.093  0.00  0.00    +0.045 C 
ATOM      7  C   UNL     1      34.398 -14.899 -21.727  0.00  0.00    +0.014 C 
ATOM      8  C   UNL     1      33.504 -14.408 -23.917  0.00  0.00    +0.014 C 
BRANCH   3  16
ATOM      9  O   UNL     1      31.047 -12.352 -20.743  0.00  0.00    -0.270 OA
ATOM     10  N   UNL     1      32.387 -10.699 -21.714  0.00  0.00    -0.276 N 
ATOM     11  C   UNL     1      32.182  -8.251 -23.264  0.00  0.00    +0.102 C 
ATOM     12  C   UNL     1      31.073  -8.706 -22.310  0.00  0.00    +0.033 C 
ATOM     13  C   UNL     1      33.075  -9.415 -23.704  0.00  0.00    +0.033 C 
ATOM     14  C   UNL     1      31.599  -9.590 -21.182  0.00  0.00    +0.094 C 
ATOM     15  C   UNL     1      33.531 -10.297 -22.541  0.00  0.00    +0.094 C 
ATOM     16  C   UNL     1      32.005 -12.014 -21.436  0.00  0.00    +0.249 C 
BRANCH  11  18
ATOM     17  O   UNL     1      34.214  -7.098 -22.672  0.00  0.00    -0.250 OA
ATOM     18  C   UNL     1      32.992  -7.154 -22.634  0.00  0.00    +0.317 C 
BRANCH  18  19
ATOM     19  O   UNL     1      32.158  -6.261 -22.031  0.00  0.00    -0.444 OA
ATOM     20  C   UNL     1      31.880  -5.076 -22.783  0.00  0.00    +0.256 C 
ENDBRANCH  18  19
ENDBRANCH  11  18
ENDBRANCH   3  16
ENDBRANCH   1   6
BRANCH   1  21
ATOM     21  C   UNL     1      34.627 -17.563 -23.739  0.00  0.00    +0.145 C 
BRANCH  21  28
ATOM     22  N   UNL     1      34.253 -19.124 -21.903  0.00  0.00    -0.392 NA
ATOM     23  N   UNL     1      36.938 -19.114 -21.229  0.00  0.00    -0.200 NA
ATOM     24  N   UNL     1      36.525 -20.597 -19.501  0.00  0.00    -0.271 NA
ATOM     25  N   UNL     1      34.307 -21.403 -19.070  0.00  0.00    -0.310 NA
ATOM     26  N   UNL     1      32.516 -20.673 -20.427  0.00  0.00    -0.329 N 
ATOM     27  N   UNL     1      36.108 -22.100 -17.747  0.00  0.00    -0.283 N 
ATOM     28  C   UNL     1      35.139 -18.386 -22.590  0.00  0.00    +0.133 C 
ATOM     29  C   UNL     1      36.466 -18.382 -22.257  0.00  0.00    +0.193 C 
ATOM     30  C   UNL     1      34.727 -19.856 -20.876  0.00  0.00    +0.248 C 
ATOM     31  C   UNL     1      36.079 -19.861 -20.525  0.00  0.00    +0.131 C 
ATOM     32  C   UNL     1      33.898 -20.649 -20.107  0.00  0.00    +0.231 C 
ATOM     33  C   UNL     1      35.620 -21.330 -18.824  0.00  0.00    +0.207 C 
ATOM     34  H   UNL     1      31.898 -21.227 -19.898  0.00  0.00    +0.145 HD
ATOM     35  H   UNL     1      32.175 -20.135 -21.176  0.00  0.00    +0.145 HD
ATOM     36  H   UNL     1      37.067 -22.082 -17.523  0.00  0.00    +0.156 HD
ATOM     37  H   UNL     1      35.491 -22.655 -17.217  0.00  0.00    +0.156 HD
ENDBRANCH  21  28
ENDBRANCH   1  21
TORSDOF 6
ENDMDL
MODEL 6
REMARK VINA RESULT:     -11.0      4.193     10.988
REMARK  Name = 25243853
REMARK  6 active torsions:
REMARK  status: ('A' for Active; 'I' for Inactive)
REMARK    1  A    between atoms: N_1  and  C_6
REMARK    2  A    between atoms: N_1  and  C_21
REMARK    3  A    between atoms: C_3  and  C_16
REMARK    4  A    between atoms: C_11  and  C_18
REMARK    5  A    between atoms: C_18  and  O_19
REMARK    6  A    between atoms: C_21  and  C_28
REMARK                            x       y       z     vdW  Elec       q    Type
REMARK                         _______ _______ _______ _____ _____    ______ ____
ROOT
ATOM      1  N   UNL     1      36.249 -20.516 -19.617  0.00  0.00    -0.327 N 
ATOM      2  H   UNL     1      36.772 -20.140 -18.872  0.00  0.00    +0.147 HD
ENDROOT
BRANCH   1   6
ATOM      3  C   UNL     1      34.934 -17.927 -22.652  0.00  0.00    +0.054 C 
ATOM      4  C   UNL     1      34.127 -18.989 -22.244  0.00  0.00    +0.006 C 
ATOM      5  C   UNL     1      36.177 -17.724 -22.052  0.00  0.00    +0.006 C 
ATOM      6  C   UNL     1      35.807 -19.646 -20.636  0.00  0.00    +0.045 C 
ATOM      7  C   UNL     1      34.564 -19.849 -21.235  0.00  0.00    +0.014 C 
ATOM      8  C   UNL     1      36.614 -18.584 -21.044  0.00  0.00    +0.014 C 
BRANCH   3  16
ATOM      9  O   UNL     1      34.594 -17.434 -24.866  0.00  0.00    -0.270 OA
ATOM     10  N   UNL     1      33.944 -15.785 -23.339  0.00  0.00    -0.276 N 
ATOM     11  C   UNL     1      34.204 -12.934 -22.851  0.00  0.00    +0.102 C 
ATOM     12  C   UNL     1      34.254 -13.525 -24.264  0.00  0.00    +0.033 C 
ATOM     13  C   UNL     1      34.549 -13.972 -21.779  0.00  0.00    +0.033 C 
ATOM     14  C   UNL     1      33.499 -14.849 -24.368  0.00  0.00    +0.094 C 
ATOM     15  C   UNL     1      33.804 -15.295 -21.963  0.00  0.00    +0.094 C 
ATOM     16  C   UNL     1      34.475 -17.022 -23.713  0.00  0.00    +0.249 C 
BRANCH  11  18
ATOM     17  O   UNL     1      31.931 -12.897 -22.051  0.00  0.00    -0.250 OA
ATOM     18  C   UNL     1      32.861 -12.314 -22.594  0.00  0.00    +0.317 C 
BRANCH  18  19
ATOM     19  O   UNL     1      32.855 -11.031 -23.054  0.00  0.00    -0.444 OA
ATOM     20  C   UNL     1      32.295 -10.062 -22.162  0.00  0.00    +0.256 C 
ENDBRANCH  18  19
ENDBRANCH  11  18
ENDBRANCH   3  16
ENDBRANCH   1   6
BRANCH   1  21
ATOM     21  C   UNL     1      35.972 -21.919 -19.619  0.00  0.00    +0.145 C 
BRANCH  21  28
ATOM     22  N   UNL     1      35.187 -22.686 -17.441  0.00  0.00    -0.392 NA
ATOM     23  N   UNL     1      32.540 -22.359 -18.181  0.00  0.00    -0.200 NA
ATOM     24  N   UNL     1      31.852 -23.095 -16.096  0.00  0.00    -0.271 NA
ATOM     25  N   UNL     1      33.449 -23.735 -14.425  0.00  0.00    -0.310 NA
ATOM     26  N   UNL     1      35.758 -23.616 -14.910  0.00  0.00    -0.329 N 
ATOM     27  N   UNL     1      31.152 -23.842 -13.984  0.00  0.00    -0.283 N 
ATOM     28  C   UNL     1      34.857 -22.238 -18.662  0.00  0.00    +0.133 C 
ATOM     29  C   UNL     1      33.548 -22.076 -19.027  0.00  0.00    +0.193 C 
ATOM     30  C   UNL     1      34.177 -22.969 -16.596  0.00  0.00    +0.248 C 
ATOM     31  C   UNL     1      32.837 -22.808 -16.955  0.00  0.00    +0.131 C 
ATOM     32  C   UNL     1      34.410 -23.435 -15.317  0.00  0.00    +0.231 C 
ATOM     33  C   UNL     1      32.204 -23.544 -14.876  0.00  0.00    +0.207 C 
ATOM     34  H   UNL     1      35.959 -23.947 -14.005  0.00  0.00    +0.145 HD
ATOM     35  H   UNL     1      36.492 -23.410 -15.533  0.00  0.00    +0.145 HD
ATOM     36  H   UNL     1      30.217 -23.719 -14.266  0.00  0.00    +0.156 HD
ATOM     37  H   UNL     1      31.352 -24.173 -13.078  0.00  0.00    +0.156 HD
ENDBRANCH  21  28
ENDBRANCH   1  21
TORSDOF 6
ENDMDL
MODEL 7
REMARK VINA RESULT:     -11.0      4.498      8.188
REMARK  Name = 25243853
REMARK  6 active torsions:
REMARK  status: ('A' for Active; 'I' for Inactive)
REMARK    1  A    between atoms: N_1  and  C_6
REMARK    2  A    between atoms: N_1  and  C_21
REMARK    3  A    between atoms: C_3  and  C_16
REMARK    4  A    between atoms: C_11  and  C_18
REMARK    5  A    between atoms: C_18  and  O_19
REMARK    6  A    between atoms: C_21  and  C_28
REMARK                            x       y       z     vdW  Elec       q    Type
REMARK                         _______ _______ _______ _____ _____    ______ ____
ROOT
ATOM      1  N   UNL     1      33.788 -11.652 -24.992  0.00  0.00    -0.327 N 
ATOM      2  H   UNL     1      33.007 -11.212 -25.398  0.00  0.00    +0.147 HD
ENDROOT
BRANCH   1   6
ATOM      3  C   UNL     1      33.733 -15.828 -24.546  0.00  0.00    +0.054 C 
ATOM      4  C   UNL     1      34.066 -15.016 -23.462  0.00  0.00    +0.006 C 
ATOM      5  C   UNL     1      33.417 -15.254 -25.777  0.00  0.00    +0.006 C 
ATOM      6  C   UNL     1      33.769 -13.055 -24.841  0.00  0.00    +0.045 C 
ATOM      7  C   UNL     1      34.083 -13.629 -23.610  0.00  0.00    +0.014 C 
ATOM      8  C   UNL     1      33.436 -13.868 -25.925  0.00  0.00    +0.014 C 
BRANCH   3  16
ATOM      9  O   UNL     1      32.959 -17.904 -25.142  0.00  0.00    -0.270 OA
ATOM     10  N   UNL     1      34.542 -17.858 -23.420  0.00  0.00    -0.276 N 
ATOM     11  C   UNL     1      35.007 -18.911 -20.754  0.00  0.00    +0.102 C 
ATOM     12  C   UNL     1      34.150 -19.654 -21.784  0.00  0.00    +0.033 C 
ATOM     13  C   UNL     1      35.108 -17.414 -21.060  0.00  0.00    +0.033 C 
ATOM     14  C   UNL     1      34.533 -19.305 -23.221  0.00  0.00    +0.094 C 
ATOM     15  C   UNL     1      35.441 -17.121 -22.524  0.00  0.00    +0.094 C 
ATOM     16  C   UNL     1      33.714 -17.288 -24.390  0.00  0.00    +0.249 C 
BRANCH  11  18
ATOM     17  O   UNL     1      37.417 -18.916 -20.762  0.00  0.00    -0.250 OA
ATOM     18  C   UNL     1      36.368 -19.538 -20.660  0.00  0.00    +0.317 C 
BRANCH  18  19
ATOM     19  O   UNL     1      36.239 -20.879 -20.449  0.00  0.00    -0.444 OA
ATOM     20  C   UNL     1      36.340 -21.298 -19.085  0.00  0.00    +0.256 C 
ENDBRANCH  18  19
ENDBRANCH  11  18
ENDBRANCH   3  16
ENDBRANCH   1   6
BRANCH   1  21
ATOM     21  C   UNL     1      34.892 -10.842 -24.581  0.00  0.00    +0.145 C 
BRANCH  21  28
ATOM     22  N   UNL     1      33.277  -9.726 -23.133  0.00  0.00    -0.392 NA
ATOM     23  N   UNL     1      34.673  -7.339 -23.267  0.00  0.00    -0.200 NA
ATOM     24  N   UNL     1      33.110  -6.331 -21.889  0.00  0.00    -0.271 NA
ATOM     25  N   UNL     1      31.230  -7.561 -21.049  0.00  0.00    -0.310 NA
ATOM     26  N   UNL     1      30.966  -9.834 -21.635  0.00  0.00    -0.329 N 
ATOM     27  N   UNL     1      31.525  -5.306 -20.493  0.00  0.00    -0.283 N 
ATOM     28  C   UNL     1      34.407  -9.621 -23.850  0.00  0.00    +0.133 C 
ATOM     29  C   UNL     1      35.097  -8.441 -23.915  0.00  0.00    +0.193 C 
ATOM     30  C   UNL     1      32.855  -8.623 -22.485  0.00  0.00    +0.248 C 
ATOM     31  C   UNL     1      33.550  -7.412 -22.543  0.00  0.00    +0.131 C 
ATOM     32  C   UNL     1      31.705  -8.626 -21.720  0.00  0.00    +0.231 C 
ATOM     33  C   UNL     1      31.974  -6.457 -21.176  0.00  0.00    +0.207 C 
ATOM     34  H   UNL     1      30.141  -9.871 -21.099  0.00  0.00    +0.145 HD
ATOM     35  H   UNL     1      31.278 -10.637 -22.113  0.00  0.00    +0.145 HD
ATOM     36  H   UNL     1      32.036  -4.467 -20.554  0.00  0.00    +0.156 HD
ATOM     37  H   UNL     1      30.700  -5.341 -19.957  0.00  0.00    +0.156 HD
ENDBRANCH  21  28
ENDBRANCH   1  21
TORSDOF 6
ENDMDL
MODEL 8
REMARK VINA RESULT:     -10.8      9.245     15.388
REMARK  Name = 25243853
REMARK  6 active torsions:
REMARK  status: ('A' for Active; 'I' for Inactive)
REMARK    1  A    between atoms: N_1  and  C_6
REMARK    2  A    between atoms: N_1  and  C_21
REMARK    3  A    between atoms: C_3  and  C_16
REMARK    4  A    between atoms: C_11  and  C_18
REMARK    5  A    between atoms: C_18  and  O_19
REMARK    6  A    between atoms: C_21  and  C_28
REMARK                            x       y       z     vdW  Elec       q    Type
REMARK                         _______ _______ _______ _____ _____    ______ ____
ROOT
ATOM      1  N   UNL     1      31.875 -10.108 -20.730  0.00  0.00    -0.327 N 
ATOM      2  H   UNL     1      32.519 -10.241 -19.998  0.00  0.00    +0.147 HD
ENDROOT
BRANCH   1   6
ATOM      3  C   UNL     1      31.324  -6.224 -22.234  0.00  0.00    +0.054 C 
ATOM      4  C   UNL     1      31.879  -6.409 -20.968  0.00  0.00    +0.006 C 
ATOM      5  C   UNL     1      30.952  -7.329 -23.000  0.00  0.00    +0.006 C 
ATOM      6  C   UNL     1      31.690  -8.803 -21.235  0.00  0.00    +0.045 C 
ATOM      7  C   UNL     1      32.063  -7.699 -20.469  0.00  0.00    +0.014 C 
ATOM      8  C   UNL     1      31.134  -8.618 -22.501  0.00  0.00    +0.014 C 
BRANCH   3  16
ATOM      9  O   UNL     1      30.153  -4.254 -22.332  0.00  0.00    -0.270 OA
ATOM     10  N   UNL     1      32.057  -4.382 -23.686  0.00  0.00    -0.276 N 
ATOM     11  C   UNL     1      32.924  -3.883 -26.412  0.00  0.00    +0.102 C 
ATOM     12  C   UNL     1      31.771  -3.105 -25.770  0.00  0.00    +0.033 C 
ATOM     13  C   UNL     1      33.169  -5.227 -25.719  0.00  0.00    +0.033 C 
ATOM     14  C   UNL     1      31.884  -3.045 -24.248  0.00  0.00    +0.094 C 
ATOM     15  C   UNL     1      33.222  -5.116 -24.195  0.00  0.00    +0.094 C 
ATOM     16  C   UNL     1      31.130  -4.867 -22.759  0.00  0.00    +0.249 C 
BRANCH  11  18
ATOM     17  O   UNL     1      34.181  -1.831 -26.287  0.00  0.00    -0.250 OA
ATOM     18  C   UNL     1      34.171  -3.046 -26.429  0.00  0.00    +0.317 C 
BRANCH  18  19
ATOM     19  O   UNL     1      35.255  -3.848 -26.623  0.00  0.00    -0.444 OA
ATOM     20  C   UNL     1      35.838  -3.786 -27.929  0.00  0.00    +0.256 C 
ENDBRANCH  18  19
ENDBRANCH  11  18
ENDBRANCH   3  16
ENDBRANCH   1   6
BRANCH   1  21
ATOM     21  C   UNL     1      31.168 -11.243 -21.236  0.00  0.00    +0.145 C 
BRANCH  21  28
ATOM     22  N   UNL     1      32.369 -12.852 -22.620  0.00  0.00    -0.392 NA
ATOM     23  N   UNL     1      33.466 -14.082 -20.396  0.00  0.00    -0.200 NA
ATOM     24  N   UNL     1      34.582 -15.583 -21.760  0.00  0.00    -0.271 NA
ATOM     25  N   UNL     1      34.368 -15.478 -24.146  0.00  0.00    -0.310 NA
ATOM     26  N   UNL     1      32.997 -13.821 -25.123  0.00  0.00    -0.329 N 
ATOM     27  N   UNL     1      35.715 -17.107 -23.139  0.00  0.00    -0.283 N 
ATOM     28  C   UNL     1      32.094 -12.419 -21.380  0.00  0.00    +0.133 C 
ATOM     29  C   UNL     1      32.637 -13.027 -20.281  0.00  0.00    +0.193 C 
ATOM     30  C   UNL     1      33.199 -13.907 -22.733  0.00  0.00    +0.248 C 
ATOM     31  C   UNL     1      33.760 -14.537 -21.620  0.00  0.00    +0.131 C 
ATOM     32  C   UNL     1      33.546 -14.429 -23.964  0.00  0.00    +0.231 C 
ATOM     33  C   UNL     1      34.846 -16.003 -23.012  0.00  0.00    +0.207 C 
ATOM     34  H   UNL     1      33.223 -14.169 -26.016  0.00  0.00    +0.145 HD
ATOM     35  H   UNL     1      32.389 -13.052 -25.035  0.00  0.00    +0.145 HD
ATOM     36  H   UNL     1      36.094 -17.531 -22.335  0.00  0.00    +0.156 HD
ATOM     37  H   UNL     1      35.942 -17.456 -24.032  0.00  0.00    +0.156 HD
ENDBRANCH  21  28
ENDBRANCH   1  21
TORSDOF 6
ENDMDL
MODEL 9
REMARK VINA RESULT:     -10.7      1.385      2.590
REMARK  Name = 25243853
REMARK  6 active torsions:
REMARK  status: ('A' for Active; 'I' for Inactive)
REMARK    1  A    between atoms: N_1  and  C_6
REMARK    2  A    between atoms: N_1  and  C_21
REMARK    3  A    between atoms: C_3  and  C_16
REMARK    4  A    between atoms: C_11  and  C_18
REMARK    5  A    between atoms: C_18  and  O_19
REMARK    6  A    between atoms: C_21  and  C_28
REMARK                            x       y       z     vdW  Elec       q    Type
REMARK                         _______ _______ _______ _____ _____    ______ ____
ROOT
ATOM      1  N   UNL     1      34.484 -20.380 -20.770  0.00  0.00    -0.327 N 
ATOM      2  H   UNL     1      33.782 -20.422 -21.459  0.00  0.00    +0.147 HD
ENDROOT
BRANCH   1   6
ATOM      3  C   UNL     1      34.008 -22.663 -17.276  0.00  0.00    +0.054 C 
ATOM      4  C   UNL     1      32.889 -22.271 -18.011  0.00  0.00    +0.006 C 
ATOM      5  C   UNL     1      35.285 -22.297 -17.703  0.00  0.00    +0.006 C 
ATOM      6  C   UNL     1      34.324 -21.147 -19.597  0.00  0.00    +0.045 C 
ATOM      7  C   UNL     1      33.047 -21.513 -19.171  0.00  0.00    +0.014 C 
ATOM      8  C   UNL     1      35.443 -21.540 -18.862  0.00  0.00    +0.014 C 
BRANCH   3  16
ATOM      9  O   UNL     1      32.695 -23.813 -15.789  0.00  0.00    -0.270 OA
ATOM     10  N   UNL     1      34.982 -23.757 -15.303  0.00  0.00    -0.276 N 
ATOM     11  C   UNL     1      36.811 -23.218 -13.112  0.00  0.00    +0.102 C 
ATOM     12  C   UNL     1      35.390 -23.741 -12.876  0.00  0.00    +0.033 C 
ATOM     13  C   UNL     1      36.952 -22.527 -14.471  0.00  0.00    +0.033 C 
ATOM     14  C   UNL     1      34.853 -24.529 -14.069  0.00  0.00    +0.094 C 
ATOM     15  C   UNL     1      36.351 -23.336 -15.622  0.00  0.00    +0.094 C 
ATOM     16  C   UNL     1      33.843 -23.461 -16.055  0.00  0.00    +0.249 C 
BRANCH  11  18
ATOM     17  O   UNL     1      38.774 -24.487 -13.698  0.00  0.00    -0.250 OA
ATOM     18  C   UNL     1      37.807 -24.333 -12.964  0.00  0.00    +0.317 C 
BRANCH  18  19
ATOM     19  O   UNL     1      37.458 -25.118 -11.906  0.00  0.00    -0.444 OA
ATOM     20  C   UNL     1      37.318 -26.513 -12.197  0.00  0.00    +0.256 C 
ENDBRANCH  18  19
ENDBRANCH  11  18
ENDBRANCH   3  16
ENDBRANCH   1   6
BRANCH   1  21
ATOM     21  C   UNL     1      35.621 -19.546 -21.003  0.00  0.00    +0.145 C 
BRANCH  21  28
ATOM     22  N   UNL     1      34.454 -18.566 -22.907  0.00  0.00    -0.392 NA
ATOM     23  N   UNL     1      35.351 -16.027 -22.265  0.00  0.00    -0.200 NA
ATOM     24  N   UNL     1      34.223 -15.152 -24.087  0.00  0.00    -0.271 NA
ATOM     25  N   UNL     1      32.950 -16.567 -25.546  0.00  0.00    -0.310 NA
ATOM     26  N   UNL     1      32.845 -18.889 -25.122  0.00  0.00    -0.329 N 
ATOM     27  N   UNL     1      33.081 -14.262 -25.935  0.00  0.00    -0.283 N 
ATOM     28  C   UNL     1      35.240 -18.356 -21.840  0.00  0.00    +0.133 C 
ATOM     29  C   UNL     1      35.683 -17.101 -21.523  0.00  0.00    +0.193 C 
ATOM     30  C   UNL     1      34.122 -17.491 -23.648  0.00  0.00    +0.248 C 
ATOM     31  C   UNL     1      34.567 -16.204 -23.335  0.00  0.00    +0.131 C 
ATOM     32  C   UNL     1      33.318 -17.599 -24.765  0.00  0.00    +0.231 C 
ATOM     33  C   UNL     1      33.433 -15.383 -25.153  0.00  0.00    +0.207 C 
ATOM     34  H   UNL     1      32.270 -19.001 -25.912  0.00  0.00    +0.145 HD
ATOM     35  H   UNL     1      33.092 -19.672 -24.578  0.00  0.00    +0.145 HD
ATOM     36  H   UNL     1      33.411 -13.367 -25.689  0.00  0.00    +0.156 HD
ATOM     37  H   UNL     1      32.505 -14.374 -26.726  0.00  0.00    +0.156 HD
ENDBRANCH  21  28
ENDBRANCH   1  21
TORSDOF 6
ENDMDL
