MODEL 1
REMARK VINA RESULT:     -11.9      0.000      0.000
REMARK  Name = 10267580
REMARK  2 active torsions:
REMARK  status: ('A' for Active; 'I' for Inactive)
REMARK    1  A    between atoms: N_1  and  C_21
REMARK    2  A    between atoms: C_7  and  C_14
REMARK                            x       y       z     vdW  Elec       q    Type
REMARK                         _______ _______ _______ _____ _____    ______ ____
ROOT
ATOM      1  N   UNL     1      32.629 -22.409 -18.166  0.00  0.00    -0.290 N 
ATOM      2  N   UNL     1      34.144 -23.220 -16.559  0.00  0.00    -0.327 NA
ATOM      3  N   UNL     1      33.363 -24.013 -14.422  0.00  0.00    -0.342 NA
ATOM      4  C   UNL     1      31.786 -23.194 -16.032  0.00  0.00    +0.143 C 
ATOM      5  C   UNL     1      32.863 -22.958 -16.881  0.00  0.00    +0.184 C 
ATOM      6  C   UNL     1      32.095 -23.740 -14.775  0.00  0.00    +0.133 C 
ATOM      7  C   UNL     1      34.318 -23.739 -15.332  0.00  0.00    +0.165 C 
ATOM      8  C   UNL     1      30.456 -22.911 -16.391  0.00  0.00    -0.011 C 
ATOM      9  C   UNL     1      31.042 -23.990 -13.899  0.00  0.00    +0.029 C 
ATOM     10  C   UNL     1      29.423 -23.171 -15.494  0.00  0.00    -0.004 C 
ATOM     11  C   UNL     1      29.717 -23.711 -14.248  0.00  0.00    +0.002 C 
ATOM     12  H   UNL     1      31.724 -22.542 -18.533  0.00  0.00    +0.154 HD
ENDROOT
BRANCH   7  14
ATOM     13  N   UNL     1      35.816 -25.090 -14.111  0.00  0.00    -0.398 NA
ATOM     14  C   UNL     1      35.674 -24.035 -14.947  0.00  0.00    +0.197 C 
ATOM     15  C   UNL     1      36.736 -23.273 -15.417  0.00  0.00    +0.098 C 
ATOM     16  C   UNL     1      37.078 -25.392 -13.730  0.00  0.00    +0.110 C 
ATOM     17  C   UNL     1      38.019 -23.616 -15.002  0.00  0.00    -0.016 C 
ATOM     18  C   UNL     1      38.201 -24.694 -14.144  0.00  0.00    +0.023 C 
ATOM     19  C   UNL     1      37.236 -26.555 -12.809  0.00  0.00    +0.066 C 
ENDBRANCH   7  14
BRANCH   1  21
ATOM     20  N   UNL     1      35.304 -20.277 -20.611  0.00  0.00    -0.242 NA
ATOM     21  C   UNL     1      33.509 -21.708 -18.969  0.00  0.00    +0.053 C 
ATOM     22  C   UNL     1      33.048 -20.732 -19.868  0.00  0.00    +0.035 C 
ATOM     23  C   UNL     1      34.891 -21.949 -18.915  0.00  0.00    +0.035 C 
ATOM     24  C   UNL     1      33.970 -20.057 -20.652  0.00  0.00    +0.100 C 
ATOM     25  C   UNL     1      35.730 -21.220 -19.742  0.00  0.00    +0.100 C 
ENDBRANCH   1  21
TORSDOF 2
ENDMDL
MODEL 2
REMARK VINA RESULT:     -11.9      1.532      6.754
REMARK  Name = 10267580
REMARK  2 active torsions:
REMARK  status: ('A' for Active; 'I' for Inactive)
REMARK    1  A    between atoms: N_1  and  C_21
REMARK    2  A    between atoms: C_7  and  C_14
REMARK                            x       y       z     vdW  Elec       q    Type
REMARK                         _______ _______ _______ _____ _____    ______ ____
ROOT
ATOM      1  N   UNL     1      35.756 -23.484 -16.055  0.00  0.00    -0.290 N 
ATOM      2  N   UNL     1      33.403 -23.461 -16.031  0.00  0.00    -0.327 NA
ATOM      3  N   UNL     1      32.168 -22.304 -17.746  0.00  0.00    -0.342 NA
ATOM      4  C   UNL     1      34.565 -22.304 -17.807  0.00  0.00    +0.143 C 
ATOM      5  C   UNL     1      34.536 -23.072 -16.647  0.00  0.00    +0.184 C 
ATOM      6  C   UNL     1      33.318 -21.933 -18.336  0.00  0.00    +0.133 C 
ATOM      7  C   UNL     1      32.272 -23.047 -16.627  0.00  0.00    +0.165 C 
ATOM      8  C   UNL     1      35.762 -21.910 -18.431  0.00  0.00    -0.011 C 
ATOM      9  C   UNL     1      33.307 -21.164 -19.497  0.00  0.00    +0.029 C 
ATOM     10  C   UNL     1      35.721 -21.141 -19.591  0.00  0.00    -0.004 C 
ATOM     11  C   UNL     1      34.492 -20.768 -20.123  0.00  0.00    +0.002 C 
ATOM     12  H   UNL     1      36.536 -23.515 -16.655  0.00  0.00    +0.154 HD
ENDROOT
BRANCH   7  14
ATOM     13  N   UNL     1      29.927 -22.845 -16.497  0.00  0.00    -0.398 NA
ATOM     14  C   UNL     1      31.037 -23.441 -16.001  0.00  0.00    +0.197 C 
ATOM     15  C   UNL     1      31.019 -24.367 -14.967  0.00  0.00    +0.098 C 
ATOM     16  C   UNL     1      28.750 -23.193 -15.929  0.00  0.00    +0.110 C 
ATOM     17  C   UNL     1      29.789 -24.699 -14.409  0.00  0.00    -0.016 C 
ATOM     18  C   UNL     1      28.629 -24.106 -14.894  0.00  0.00    +0.023 C 
ATOM     19  C   UNL     1      27.526 -22.538 -16.474  0.00  0.00    +0.066 C 
ENDBRANCH   7  14
BRANCH   1  21
ATOM     20  N   UNL     1      36.465 -24.584 -12.059  0.00  0.00    -0.242 NA
ATOM     21  C   UNL     1      35.989 -23.846 -14.742  0.00  0.00    +0.053 C 
ATOM     22  C   UNL     1      36.133 -22.875 -13.737  0.00  0.00    +0.035 C 
ATOM     23  C   UNL     1      36.089 -25.196 -14.368  0.00  0.00    +0.035 C 
ATOM     24  C   UNL     1      36.367 -23.289 -12.436  0.00  0.00    +0.100 C 
ATOM     25  C   UNL     1      36.324 -25.506 -13.038  0.00  0.00    +0.100 C 
ENDBRANCH   1  21
TORSDOF 2
ENDMDL
MODEL 3
REMARK VINA RESULT:     -11.3      1.482      5.772
REMARK  Name = 10267580
REMARK  2 active torsions:
REMARK  status: ('A' for Active; 'I' for Inactive)
REMARK    1  A    between atoms: N_1  and  C_21
REMARK    2  A    between atoms: C_7  and  C_14
REMARK                            x       y       z     vdW  Elec       q    Type
REMARK                         _______ _______ _______ _____ _____    ______ ____
ROOT
ATOM      1  N   UNL     1      34.185 -24.082 -13.173  0.00  0.00    -0.290 N 
ATOM      2  N   UNL     1      34.025 -23.225 -15.358  0.00  0.00    -0.327 NA
ATOM      3  N   UNL     1      31.944 -23.323 -16.568  0.00  0.00    -0.342 NA
ATOM      4  C   UNL     1      32.065 -24.207 -14.342  0.00  0.00    +0.143 C 
ATOM      5  C   UNL     1      33.404 -23.829 -14.328  0.00  0.00    +0.184 C 
ATOM      6  C   UNL     1      31.353 -23.924 -15.520  0.00  0.00    +0.133 C 
ATOM      7  C   UNL     1      33.246 -23.005 -16.430  0.00  0.00    +0.165 C 
ATOM      8  C   UNL     1      31.438 -24.838 -13.253  0.00  0.00    -0.011 C 
ATOM      9  C   UNL     1      30.011 -24.289 -15.572  0.00  0.00    +0.029 C 
ATOM     10  C   UNL     1      30.094 -25.191 -13.333  0.00  0.00    -0.004 C 
ATOM     11  C   UNL     1      29.381 -24.916 -14.493  0.00  0.00    +0.002 C 
ATOM     12  H   UNL     1      33.687 -24.186 -12.330  0.00  0.00    +0.154 HD
ENDROOT
BRANCH   7  14
ATOM     13  N   UNL     1      33.018 -21.774 -18.428  0.00  0.00    -0.398 NA
ATOM     14  C   UNL     1      33.871 -22.361 -17.556  0.00  0.00    +0.197 C 
ATOM     15  C   UNL     1      35.251 -22.359 -17.707  0.00  0.00    +0.098 C 
ATOM     16  C   UNL     1      33.574 -21.161 -19.497  0.00  0.00    +0.110 C 
ATOM     17  C   UNL     1      35.786 -21.718 -18.820  0.00  0.00    -0.016 C 
ATOM     18  C   UNL     1      34.938 -21.106 -19.736  0.00  0.00    +0.023 C 
ATOM     19  C   UNL     1      32.635 -20.514 -20.459  0.00  0.00    +0.066 C 
ENDBRANCH   7  14
BRANCH   1  21
ATOM     20  N   UNL     1      38.364 -24.448 -12.890  0.00  0.00    -0.242 NA
ATOM     21  C   UNL     1      35.559 -24.203 -13.081  0.00  0.00    +0.053 C 
ATOM     22  C   UNL     1      36.293 -23.438 -12.159  0.00  0.00    +0.035 C 
ATOM     23  C   UNL     1      36.267 -25.094 -13.903  0.00  0.00    +0.035 C 
ATOM     24  C   UNL     1      37.669 -23.595 -12.105  0.00  0.00    +0.100 C 
ATOM     25  C   UNL     1      37.644 -25.177 -13.771  0.00  0.00    +0.100 C 
ENDBRANCH   1  21
TORSDOF 2
ENDMDL
MODEL 4
REMARK VINA RESULT:     -11.0      1.953      6.102
REMARK  Name = 10267580
REMARK  2 active torsions:
REMARK  status: ('A' for Active; 'I' for Inactive)
REMARK    1  A    between atoms: N_1  and  C_21
REMARK    2  A    between atoms: C_7  and  C_14
REMARK                            x       y       z     vdW  Elec       q    Type
REMARK                         _______ _______ _______ _____ _____    ______ ____
ROOT
ATOM      1  N   UNL     1      32.741 -24.637 -13.452  0.00  0.00    -0.290 N 
ATOM      2  N   UNL     1      34.075 -23.567 -15.067  0.00  0.00    -0.327 NA
ATOM      3  N   UNL     1      36.372 -23.013 -14.594  0.00  0.00    -0.342 NA
ATOM      4  C   UNL     1      35.046 -24.103 -12.920  0.00  0.00    +0.143 C 
ATOM      5  C   UNL     1      33.991 -24.085 -13.827  0.00  0.00    +0.184 C 
ATOM      6  C   UNL     1      36.254 -23.539 -13.362  0.00  0.00    +0.133 C 
ATOM      7  C   UNL     1      35.277 -23.055 -15.379  0.00  0.00    +0.165 C 
ATOM      8  C   UNL     1      34.933 -24.650 -11.629  0.00  0.00    -0.011 C 
ATOM      9  C   UNL     1      37.332 -23.539 -12.481  0.00  0.00    +0.029 C 
ATOM     10  C   UNL     1      36.028 -24.636 -10.770  0.00  0.00    -0.004 C 
ATOM     11  C   UNL     1      37.228 -24.080 -11.197  0.00  0.00    +0.002 C 
ATOM     12  H   UNL     1      32.765 -25.304 -12.727  0.00  0.00    +0.154 HD
ENDROOT
BRANCH   7  14
ATOM     13  N   UNL     1      34.270 -22.448 -17.423  0.00  0.00    -0.398 NA
ATOM     14  C   UNL     1      35.412 -22.490 -16.697  0.00  0.00    +0.197 C 
ATOM     15  C   UNL     1      36.638 -22.032 -17.159  0.00  0.00    +0.098 C 
ATOM     16  C   UNL     1      34.364 -21.924 -18.666  0.00  0.00    +0.110 C 
ATOM     17  C   UNL     1      36.694 -21.499 -18.443  0.00  0.00    -0.016 C 
ATOM     18  C   UNL     1      35.540 -21.440 -19.216  0.00  0.00    +0.023 C 
ATOM     19  C   UNL     1      33.106 -21.876 -19.467  0.00  0.00    +0.066 C 
ENDBRANCH   7  14
BRANCH   1  21
ATOM     20  N   UNL     1      28.940 -23.784 -15.034  0.00  0.00    -0.242 NA
ATOM     21  C   UNL     1      31.492 -24.356 -13.972  0.00  0.00    +0.053 C 
ATOM     22  C   UNL     1      30.580 -25.384 -14.262  0.00  0.00    +0.035 C 
ATOM     23  C   UNL     1      31.092 -23.035 -14.227  0.00  0.00    +0.035 C 
ATOM     24  C   UNL     1      29.340 -25.051 -14.783  0.00  0.00    +0.100 C 
ATOM     25  C   UNL     1      29.829 -22.807 -14.749  0.00  0.00    +0.100 C 
ENDBRANCH   1  21
TORSDOF 2
ENDMDL
MODEL 5
REMARK VINA RESULT:     -10.9      1.515      4.982
REMARK  Name = 10267580
REMARK  2 active torsions:
REMARK  status: ('A' for Active; 'I' for Inactive)
REMARK    1  A    between atoms: N_1  and  C_21
REMARK    2  A    between atoms: C_7  and  C_14
REMARK                            x       y       z     vdW  Elec       q    Type
REMARK                         _______ _______ _______ _____ _____    ______ ____
ROOT
ATOM      1  N   UNL     1      31.425 -22.633 -16.692  0.00  0.00    -0.290 N 
ATOM      2  N   UNL     1      33.423 -23.345 -15.674  0.00  0.00    -0.327 NA
ATOM      3  N   UNL     1      35.552 -22.934 -16.722  0.00  0.00    -0.342 NA
ATOM      4  C   UNL     1      33.540 -22.191 -17.794  0.00  0.00    +0.143 C 
ATOM      5  C   UNL     1      32.839 -22.728 -16.718  0.00  0.00    +0.184 C 
ATOM      6  C   UNL     1      34.938 -22.322 -17.750  0.00  0.00    +0.133 C 
ATOM      7  C   UNL     1      34.762 -23.411 -15.740  0.00  0.00    +0.165 C 
ATOM      8  C   UNL     1      32.907 -21.550 -18.874  0.00  0.00    -0.011 C 
ATOM      9  C   UNL     1      35.673 -21.797 -18.810  0.00  0.00    +0.029 C 
ATOM     10  C   UNL     1      33.667 -21.036 -19.920  0.00  0.00    -0.004 C 
ATOM     11  C   UNL     1      35.051 -21.159 -19.887  0.00  0.00    +0.002 C 
ATOM     12  H   UNL     1      31.032 -21.910 -17.234  0.00  0.00    +0.154 HD
ENDROOT
BRANCH   7  14
ATOM     13  N   UNL     1      36.592 -24.678 -14.961  0.00  0.00    -0.398 NA
ATOM     14  C   UNL     1      35.428 -24.064 -14.643  0.00  0.00    +0.197 C 
ATOM     15  C   UNL     1      34.889 -24.048 -13.364  0.00  0.00    +0.098 C 
ATOM     16  C   UNL     1      37.241 -25.302 -13.952  0.00  0.00    +0.110 C 
ATOM     17  C   UNL     1      35.585 -24.701 -12.353  0.00  0.00    -0.016 C 
ATOM     18  C   UNL     1      36.784 -25.341 -12.644  0.00  0.00    +0.023 C 
ATOM     19  C   UNL     1      38.524 -25.978 -14.300  0.00  0.00    +0.066 C 
ENDBRANCH   7  14
BRANCH   1  21
ATOM     20  N   UNL     1      28.693 -25.051 -14.602  0.00  0.00    -0.242 NA
ATOM     21  C   UNL     1      30.527 -23.428 -16.005  0.00  0.00    +0.053 C 
ATOM     22  C   UNL     1      29.148 -23.352 -16.261  0.00  0.00    +0.035 C 
ATOM     23  C   UNL     1      30.963 -24.338 -15.029  0.00  0.00    +0.035 C 
ATOM     24  C   UNL     1      28.289 -24.169 -15.545  0.00  0.00    +0.100 C 
ATOM     25  C   UNL     1      30.023 -25.112 -14.368  0.00  0.00    +0.100 C 
ENDBRANCH   1  21
TORSDOF 2
ENDMDL
MODEL 6
REMARK VINA RESULT:     -10.7      1.541      6.343
REMARK  Name = 10267580
REMARK  2 active torsions:
REMARK  status: ('A' for Active; 'I' for Inactive)
REMARK    1  A    between atoms: N_1  and  C_21
REMARK    2  A    between atoms: C_7  and  C_14
REMARK                            x       y       z     vdW  Elec       q    Type
REMARK                         _______ _______ _______ _____ _____    ______ ____
ROOT
ATOM      1  N   UNL     1      32.600 -24.480 -14.650  0.00  0.00    -0.290 N 
ATOM      2  N   UNL     1      33.516 -23.204 -16.402  0.00  0.00    -0.327 NA
ATOM      3  N   UNL     1      35.878 -22.740 -16.479  0.00  0.00    -0.342 NA
ATOM      4  C   UNL     1      34.985 -24.044 -14.676  0.00  0.00    +0.143 C 
ATOM      5  C   UNL     1      33.733 -23.890 -15.263  0.00  0.00    +0.184 C 
ATOM      6  C   UNL     1      36.061 -23.432 -15.341  0.00  0.00    +0.133 C 
ATOM      7  C   UNL     1      34.617 -22.663 -16.947  0.00  0.00    +0.165 C 
ATOM      8  C   UNL     1      35.186 -24.765 -13.485  0.00  0.00    -0.011 C 
ATOM      9  C   UNL     1      37.329 -23.564 -14.782  0.00  0.00    +0.029 C 
ATOM     10  C   UNL     1      36.465 -24.880 -12.950  0.00  0.00    -0.004 C 
ATOM     11  C   UNL     1      37.537 -24.279 -13.599  0.00  0.00    +0.002 C 
ATOM     12  H   UNL     1      32.781 -25.242 -14.053  0.00  0.00    +0.154 HD
ENDROOT
BRANCH   7  14
ATOM     13  N   UNL     1      35.559 -21.391 -18.695  0.00  0.00    -0.398 NA
ATOM     14  C   UNL     1      34.431 -21.921 -18.167  0.00  0.00    +0.197 C 
ATOM     15  C   UNL     1      33.172 -21.777 -18.734  0.00  0.00    +0.098 C 
ATOM     16  C   UNL     1      35.417 -20.686 -19.840  0.00  0.00    +0.110 C 
ATOM     17  C   UNL     1      33.066 -21.045 -19.912  0.00  0.00    -0.016 C 
ATOM     18  C   UNL     1      34.205 -20.487 -20.481  0.00  0.00    +0.023 C 
ATOM     19  C   UNL     1      36.659 -20.102 -20.423  0.00  0.00    +0.066 C 
ENDBRANCH   7  14
BRANCH   1  21
ATOM     20  N   UNL     1      28.561 -23.381 -15.049  0.00  0.00    -0.242 NA
ATOM     21  C   UNL     1      31.272 -24.119 -14.781  0.00  0.00    +0.053 C 
ATOM     22  C   UNL     1      30.847 -22.808 -14.511  0.00  0.00    +0.035 C 
ATOM     23  C   UNL     1      30.303 -25.050 -15.189  0.00  0.00    +0.035 C 
ATOM     24  C   UNL     1      29.506 -22.496 -14.657  0.00  0.00    +0.100 C 
ATOM     25  C   UNL     1      28.985 -24.638 -15.305  0.00  0.00    +0.100 C 
ENDBRANCH   1  21
TORSDOF 2
ENDMDL
MODEL 7
REMARK VINA RESULT:     -10.2      1.289      5.405
REMARK  Name = 10267580
REMARK  2 active torsions:
REMARK  status: ('A' for Active; 'I' for Inactive)
REMARK    1  A    between atoms: N_1  and  C_21
REMARK    2  A    between atoms: C_7  and  C_14
REMARK                            x       y       z     vdW  Elec       q    Type
REMARK                         _______ _______ _______ _____ _____    ______ ____
ROOT
ATOM      1  N   UNL     1      36.297 -22.540 -16.517  0.00  0.00    -0.290 N 
ATOM      2  N   UNL     1      34.407 -23.379 -15.396  0.00  0.00    -0.327 NA
ATOM      3  N   UNL     1      34.647 -24.950 -13.586  0.00  0.00    -0.342 NA
ATOM      4  C   UNL     1      36.600 -24.119 -14.702  0.00  0.00    +0.143 C 
ATOM      5  C   UNL     1      35.748 -23.370 -15.509  0.00  0.00    +0.184 C 
ATOM      6  C   UNL     1      35.984 -24.918 -13.724  0.00  0.00    +0.133 C 
ATOM      7  C   UNL     1      33.931 -24.179 -14.428  0.00  0.00    +0.165 C 
ATOM      8  C   UNL     1      37.999 -24.093 -14.839  0.00  0.00    -0.011 C 
ATOM      9  C   UNL     1      36.805 -25.681 -12.898  0.00  0.00    +0.029 C 
ATOM     10  C   UNL     1      38.795 -24.868 -13.999  0.00  0.00    -0.004 C 
ATOM     11  C   UNL     1      38.196 -25.662 -13.028  0.00  0.00    +0.002 C 
ATOM     12  H   UNL     1      37.232 -22.260 -16.383  0.00  0.00    +0.154 HD
ENDROOT
BRANCH   7  14
ATOM     13  N   UNL     1      31.802 -23.545 -15.217  0.00  0.00    -0.398 NA
ATOM     14  C   UNL     1      32.500 -24.219 -14.273  0.00  0.00    +0.197 C 
ATOM     15  C   UNL     1      31.911 -24.906 -13.220  0.00  0.00    +0.098 C 
ATOM     16  C   UNL     1      30.455 -23.563 -15.098  0.00  0.00    +0.110 C 
ATOM     17  C   UNL     1      30.523 -24.901 -13.132  0.00  0.00    -0.016 C 
ATOM     18  C   UNL     1      29.775 -24.219 -14.084  0.00  0.00    +0.023 C 
ATOM     19  C   UNL     1      29.683 -22.822 -16.137  0.00  0.00    +0.066 C 
ENDBRANCH   7  14
BRANCH   1  21
ATOM     20  N   UNL     1      34.444 -21.124 -20.016  0.00  0.00    -0.242 NA
ATOM     21  C   UNL     1      35.687 -22.075 -17.667  0.00  0.00    +0.053 C 
ATOM     22  C   UNL     1      36.416 -21.369 -18.639  0.00  0.00    +0.035 C 
ATOM     23  C   UNL     1      34.321 -22.291 -17.903  0.00  0.00    +0.035 C 
ATOM     24  C   UNL     1      35.759 -20.923 -19.774  0.00  0.00    +0.100 C 
ATOM     25  C   UNL     1      33.757 -21.804 -19.071  0.00  0.00    +0.100 C 
ENDBRANCH   1  21
TORSDOF 2
ENDMDL
