MODEL 1
REMARK VINA RESULT:     -12.5      0.000      0.000
REMARK  Name = 11740318
REMARK  5 active torsions:
REMARK  status: ('A' for Active; 'I' for Inactive)
REMARK    1  A    between atoms: N_1  and  C_20
REMARK    2  A    between atoms: C_2  and  O_8
REMARK    3  A    between atoms: O_8  and  C_9
REMARK    4  A    between atoms: C_14  and  N_15
REMARK    5  A    between atoms: C_20  and  C_23
REMARK                            x       y       z     vdW  Elec       q    Type
REMARK                         _______ _______ _______ _____ _____    ______ ____
ROOT
ATOM      1  N   UNL     1      33.938 -23.338 -14.009  0.00  0.00    +0.392 N 
ATOM      2  C   UNL     1      33.884 -22.883 -16.442  0.00  0.00    +0.145 C 
ATOM      3  C   UNL     1      34.627 -23.560 -15.286  0.00  0.00    -0.032 C 
ATOM      4  C   UNL     1      32.434 -23.353 -16.514  0.00  0.00    +0.039 C 
ATOM      5  C   UNL     1      31.753 -23.191 -15.162  0.00  0.00    -0.019 C 
ATOM      6  C   UNL     1      32.564 -23.858 -14.049  0.00  0.00    -0.077 C 
ATOM      7  H   UNL     1      33.888 -22.332 -13.850  0.00  0.00    -0.079 HD
ENDROOT
BRANCH   2   8
ATOM      8  O   UNL     1      34.524 -23.197 -17.674  0.00  0.00    -0.481 OA
BRANCH   8   9
ATOM      9  C   UNL     1      34.609 -22.190 -18.598  0.00  0.00    +0.138 C 
ATOM     10  C   UNL     1      35.858 -21.714 -18.984  0.00  0.00    +0.038 C 
ATOM     11  C   UNL     1      33.448 -21.653 -19.142  0.00  0.00    +0.038 C 
ATOM     12  C   UNL     1      35.945 -20.687 -19.926  0.00  0.00    +0.018 C 
ATOM     13  C   UNL     1      33.535 -20.627 -20.083  0.00  0.00    +0.018 C 
ATOM     14  C   UNL     1      34.784 -20.144 -20.475  0.00  0.00    +0.057 C 
BRANCH  14  15
ATOM     15  N   UNL     1      34.870 -19.128 -21.408  0.00  0.00    -0.246 N 
ATOM     16  N   UNL     1      35.292 -17.119 -22.278  0.00  0.00    -0.224 NA
ATOM     17  C   UNL     1      34.515 -19.200 -22.731  0.00  0.00    +0.092 C 
ATOM     18  C   UNL     1      35.332 -17.853 -21.189  0.00  0.00    +0.172 C 
ATOM     19  C   UNL     1      34.784 -17.953 -23.243  0.00  0.00    +0.117 C 
ENDBRANCH  14  15
ENDBRANCH   8   9
ENDBRANCH   2   8
BRANCH   1  20
ATOM     20  C   UNL     1      34.685 -23.950 -12.911  0.00  0.00    -0.050 C 
BRANCH  20  23
ATOM     21  O   UNL     1      39.554 -24.689 -13.262  0.00  0.00    -0.435 OA
ATOM     22  O   UNL     1      39.276 -26.621 -14.674  0.00  0.00    -0.435 OA
ATOM     23  C   UNL     1      35.899 -24.693 -13.403  0.00  0.00    -0.040 C 
ATOM     24  C   UNL     1      37.164 -24.250 -13.033  0.00  0.00    +0.034 C 
ATOM     25  C   UNL     1      35.726 -25.814 -14.224  0.00  0.00    -0.003 C 
ATOM     26  C   UNL     1      38.244 -24.963 -13.509  0.00  0.00    +0.176 C 
ATOM     27  C   UNL     1      36.837 -26.518 -14.692  0.00  0.00    +0.040 C 
ATOM     28  C   UNL     1      38.086 -26.067 -14.316  0.00  0.00    +0.176 C 
ATOM     29  C   UNL     1      40.202 -25.743 -14.002  0.00  0.00    +0.429 C 
ENDBRANCH  20  23
ENDBRANCH   1  20
TORSDOF 5
ENDMDL
MODEL 2
REMARK VINA RESULT:     -12.3      0.671      1.711
REMARK  Name = 11740318
REMARK  5 active torsions:
REMARK  status: ('A' for Active; 'I' for Inactive)
REMARK    1  A    between atoms: N_1  and  C_20
REMARK    2  A    between atoms: C_2  and  O_8
REMARK    3  A    between atoms: O_8  and  C_9
REMARK    4  A    between atoms: C_14  and  N_15
REMARK    5  A    between atoms: C_20  and  C_23
REMARK                            x       y       z     vdW  Elec       q    Type
REMARK                         _______ _______ _______ _____ _____    ______ ____
ROOT
ATOM      1  N   UNL     1      33.548 -23.688 -14.032  0.00  0.00    +0.392 N 
ATOM      2  C   UNL     1      33.610 -22.994 -16.407  0.00  0.00    +0.145 C 
ATOM      3  C   UNL     1      34.154 -23.951 -15.343  0.00  0.00    -0.032 C 
ATOM      4  C   UNL     1      32.087 -23.064 -16.484  0.00  0.00    +0.039 C 
ATOM      5  C   UNL     1      31.474 -22.867 -15.104  0.00  0.00    -0.019 C 
ATOM      6  C   UNL     1      32.086 -23.828 -14.083  0.00  0.00    -0.077 C 
ATOM      7  H   UNL     1      33.762 -22.724 -13.775  0.00  0.00    -0.079 HD
ENDROOT
BRANCH   2   8
ATOM      8  O   UNL     1      34.143 -23.337 -17.681  0.00  0.00    -0.481 OA
BRANCH   8   9
ATOM      9  C   UNL     1      34.305 -22.315 -18.578  0.00  0.00    +0.138 C 
ATOM     10  C   UNL     1      33.187 -21.695 -19.125  0.00  0.00    +0.038 C 
ATOM     11  C   UNL     1      35.586 -21.904 -18.932  0.00  0.00    +0.038 C 
ATOM     12  C   UNL     1      33.352 -20.653 -20.039  0.00  0.00    +0.018 C 
ATOM     13  C   UNL     1      35.751 -20.863 -19.844  0.00  0.00    +0.018 C 
ATOM     14  C   UNL     1      34.633 -20.237 -20.398  0.00  0.00    +0.057 C 
BRANCH  14  15
ATOM     15  N   UNL     1      34.797 -19.204 -21.302  0.00  0.00    -0.246 N 
ATOM     16  N   UNL     1      34.756 -18.089 -23.233  0.00  0.00    -0.224 NA
ATOM     17  C   UNL     1      35.296 -17.955 -21.036  0.00  0.00    +0.092 C 
ATOM     18  C   UNL     1      34.487 -19.231 -22.640  0.00  0.00    +0.172 C 
ATOM     19  C   UNL     1      35.260 -17.289 -22.238  0.00  0.00    +0.117 C 
ENDBRANCH  14  15
ENDBRANCH   8   9
ENDBRANCH   2   8
BRANCH   1  20
ATOM     20  C   UNL     1      34.113 -24.579 -13.018  0.00  0.00    -0.050 C 
BRANCH  20  23
ATOM     21  O   UNL     1      38.449 -26.556 -14.311  0.00  0.00    -0.435 OA
ATOM     22  O   UNL     1      39.700 -24.779 -13.271  0.00  0.00    -0.435 OA
ATOM     23  C   UNL     1      35.618 -24.601 -13.067  0.00  0.00    -0.040 C 
ATOM     24  C   UNL     1      36.262 -25.649 -13.715  0.00  0.00    +0.034 C 
ATOM     25  C   UNL     1      36.335 -23.563 -12.460  0.00  0.00    -0.003 C 
ATOM     26  C   UNL     1      37.641 -25.625 -13.733  0.00  0.00    +0.176 C 
ATOM     27  C   UNL     1      37.731 -23.563 -12.494  0.00  0.00    +0.040 C 
ATOM     28  C   UNL     1      38.356 -24.610 -13.139  0.00  0.00    +0.176 C 
ATOM     29  C   UNL     1      39.751 -26.013 -14.016  0.00  0.00    +0.429 C 
ENDBRANCH  20  23
ENDBRANCH   1  20
TORSDOF 5
ENDMDL
MODEL 3
REMARK VINA RESULT:     -11.8      4.616      8.683
REMARK  Name = 11740318
REMARK  5 active torsions:
REMARK  status: ('A' for Active; 'I' for Inactive)
REMARK    1  A    between atoms: N_1  and  C_20
REMARK    2  A    between atoms: C_2  and  O_8
REMARK    3  A    between atoms: O_8  and  C_9
REMARK    4  A    between atoms: C_14  and  N_15
REMARK    5  A    between atoms: C_20  and  C_23
REMARK                            x       y       z     vdW  Elec       q    Type
REMARK                         _______ _______ _______ _____ _____    ______ ____
ROOT
ATOM      1  N   UNL     1      34.891 -19.000 -22.089  0.00  0.00    +0.392 N 
ATOM      2  C   UNL     1      34.573 -16.794 -23.167  0.00  0.00    +0.145 C 
ATOM      3  C   UNL     1      35.408 -17.630 -22.192  0.00  0.00    -0.032 C 
ATOM      4  C   UNL     1      34.501 -17.457 -24.539  0.00  0.00    +0.039 C 
ATOM      5  C   UNL     1      34.038 -18.902 -24.410  0.00  0.00    -0.019 C 
ATOM      6  C   UNL     1      34.891 -19.669 -23.397  0.00  0.00    -0.077 C 
ATOM      7  H   UNL     1      33.925 -18.947 -21.763  0.00  0.00    -0.079 HD
ENDROOT
BRANCH   2   8
ATOM      8  O   UNL     1      35.157 -15.505 -23.317  0.00  0.00    -0.481 OA
BRANCH   8   9
ATOM      9  C   UNL     1      34.424 -14.441 -22.864  0.00  0.00    +0.138 C 
ATOM     10  C   UNL     1      33.906 -14.460 -21.574  0.00  0.00    +0.038 C 
ATOM     11  C   UNL     1      34.205 -13.349 -23.698  0.00  0.00    +0.038 C 
ATOM     12  C   UNL     1      33.159 -13.375 -21.112  0.00  0.00    +0.018 C 
ATOM     13  C   UNL     1      33.459 -12.265 -23.237  0.00  0.00    +0.018 C 
ATOM     14  C   UNL     1      32.936 -12.278 -21.943  0.00  0.00    +0.057 C 
BRANCH  14  15
ATOM     15  N   UNL     1      32.197 -11.202 -21.486  0.00  0.00    -0.246 N 
ATOM     16  N   UNL     1      30.902  -9.972 -20.152  0.00  0.00    -0.224 NA
ATOM     17  C   UNL     1      32.019 -10.002 -22.124  0.00  0.00    +0.092 C 
ATOM     18  C   UNL     1      31.504 -11.131 -20.303  0.00  0.00    +0.172 C 
ATOM     19  C   UNL     1      31.220  -9.263 -21.284  0.00  0.00    +0.117 C 
ENDBRANCH  14  15
ENDBRANCH   8   9
ENDBRANCH   2   8
BRANCH   1  20
ATOM     20  C   UNL     1      35.670 -19.770 -21.120  0.00  0.00    -0.050 C 
BRANCH  20  23
ATOM     21  O   UNL     1      34.895 -23.005 -17.471  0.00  0.00    -0.435 OA
ATOM     22  O   UNL     1      32.501 -22.780 -17.624  0.00  0.00    -0.435 OA
ATOM     23  C   UNL     1      34.787 -20.565 -20.195  0.00  0.00    -0.040 C 
ATOM     24  C   UNL     1      35.370 -21.417 -19.263  0.00  0.00    +0.034 C 
ATOM     25  C   UNL     1      33.397 -20.427 -20.292  0.00  0.00    -0.003 C 
ATOM     26  C   UNL     1      34.520 -22.124 -18.438  0.00  0.00    +0.176 C 
ATOM     27  C   UNL     1      32.559 -21.154 -19.444  0.00  0.00    +0.040 C 
ATOM     28  C   UNL     1      33.152 -21.996 -18.526  0.00  0.00    +0.176 C 
ATOM     29  C   UNL     1      33.611 -23.415 -16.958  0.00  0.00    +0.429 C 
ENDBRANCH  20  23
ENDBRANCH   1  20
TORSDOF 5
ENDMDL
MODEL 4
REMARK VINA RESULT:     -11.2      3.709      7.172
REMARK  Name = 11740318
REMARK  5 active torsions:
REMARK  status: ('A' for Active; 'I' for Inactive)
REMARK    1  A    between atoms: N_1  and  C_20
REMARK    2  A    between atoms: C_2  and  O_8
REMARK    3  A    between atoms: O_8  and  C_9
REMARK    4  A    between atoms: C_14  and  N_15
REMARK    5  A    between atoms: C_20  and  C_23
REMARK                            x       y       z     vdW  Elec       q    Type
REMARK                         _______ _______ _______ _____ _____    ______ ____
ROOT
ATOM      1  N   UNL     1      36.334 -23.133 -13.730  0.00  0.00    +0.392 N 
ATOM      2  C   UNL     1      34.333 -23.860 -12.466  0.00  0.00    +0.145 C 
ATOM      3  C   UNL     1      35.154 -24.006 -13.751  0.00  0.00    -0.032 C 
ATOM      4  C   UNL     1      35.191 -24.128 -11.232  0.00  0.00    +0.039 C 
ATOM      5  C   UNL     1      36.450 -23.274 -11.262  0.00  0.00    -0.019 C 
ATOM      6  C   UNL     1      37.202 -23.439 -12.584  0.00  0.00    -0.077 C 
ATOM      7  H   UNL     1      36.011 -22.171 -13.630  0.00  0.00    -0.079 HD
ENDROOT
BRANCH   2   8
ATOM      8  O   UNL     1      33.253 -24.787 -12.477  0.00  0.00    -0.481 OA
BRANCH   8   9
ATOM      9  C   UNL     1      32.154 -24.443 -13.217  0.00  0.00    +0.138 C 
ATOM     10  C   UNL     1      32.047 -23.157 -13.735  0.00  0.00    +0.038 C 
ATOM     11  C   UNL     1      31.155 -25.383 -13.446  0.00  0.00    +0.038 C 
ATOM     12  C   UNL     1      30.926 -22.806 -14.490  0.00  0.00    +0.018 C 
ATOM     13  C   UNL     1      30.036 -25.033 -14.200  0.00  0.00    +0.018 C 
ATOM     14  C   UNL     1      29.922 -23.744 -14.722  0.00  0.00    +0.057 C 
BRANCH  14  15
ATOM     15  N   UNL     1      28.812 -23.398 -15.471  0.00  0.00    -0.246 N 
ATOM     16  N   UNL     1      27.288 -23.451 -17.097  0.00  0.00    -0.224 NA
ATOM     17  C   UNL     1      27.933 -22.379 -15.208  0.00  0.00    +0.092 C 
ATOM     18  C   UNL     1      28.377 -24.011 -16.620  0.00  0.00    +0.172 C 
ATOM     19  C   UNL     1      27.006 -22.433 -16.221  0.00  0.00    +0.117 C 
ENDBRANCH  14  15
ENDBRANCH   8   9
ENDBRANCH   2   8
BRANCH   1  20
ATOM     20  C   UNL     1      37.080 -23.250 -14.983  0.00  0.00    -0.050 C 
BRANCH  20  23
ATOM     21  O   UNL     1      36.512 -20.846 -19.258  0.00  0.00    -0.435 OA
ATOM     22  O   UNL     1      34.184 -21.443 -19.418  0.00  0.00    -0.435 OA
ATOM     23  C   UNL     1      36.270 -22.781 -16.163  0.00  0.00    -0.040 C 
ATOM     24  C   UNL     1      36.883 -22.010 -17.144  0.00  0.00    +0.034 C 
ATOM     25  C   UNL     1      34.918 -23.133 -16.246  0.00  0.00    -0.003 C 
ATOM     26  C   UNL     1      36.100 -21.604 -18.205  0.00  0.00    +0.176 C 
ATOM     27  C   UNL     1      34.149 -22.710 -17.331  0.00  0.00    +0.040 C 
ATOM     28  C   UNL     1      34.770 -21.945 -18.297  0.00  0.00    +0.176 C 
ATOM     29  C   UNL     1      35.293 -20.750 -20.023  0.00  0.00    +0.429 C 
ENDBRANCH  20  23
ENDBRANCH   1  20
TORSDOF 5
ENDMDL
MODEL 5
REMARK VINA RESULT:     -11.0      5.261      9.732
REMARK  Name = 11740318
REMARK  5 active torsions:
REMARK  status: ('A' for Active; 'I' for Inactive)
REMARK    1  A    between atoms: N_1  and  C_20
REMARK    2  A    between atoms: C_2  and  O_8
REMARK    3  A    between atoms: O_8  and  C_9
REMARK    4  A    between atoms: C_14  and  N_15
REMARK    5  A    between atoms: C_20  and  C_23
REMARK                            x       y       z     vdW  Elec       q    Type
REMARK                         _______ _______ _______ _____ _____    ______ ____
ROOT
ATOM      1  N   UNL     1      34.816 -17.847 -22.876  0.00  0.00    +0.392 N 
ATOM      2  C   UNL     1      33.818 -15.894 -24.026  0.00  0.00    +0.145 C 
ATOM      3  C   UNL     1      35.051 -16.467 -23.322  0.00  0.00    -0.032 C 
ATOM      4  C   UNL     1      33.388 -16.781 -25.192  0.00  0.00    +0.039 C 
ATOM      5  C   UNL     1      33.223 -18.223 -24.733  0.00  0.00    -0.019 C 
ATOM      6  C   UNL     1      34.475 -18.720 -24.007  0.00  0.00    -0.077 C 
ATOM      7  H   UNL     1      34.022 -17.838 -22.236  0.00  0.00    -0.079 HD
ENDROOT
BRANCH   2   8
ATOM      8  O   UNL     1      34.111 -14.596 -24.529  0.00  0.00    -0.481 OA
BRANCH   8   9
ATOM      9  C   UNL     1      33.652 -13.533 -23.797  0.00  0.00    +0.138 C 
ATOM     10  C   UNL     1      32.911 -13.761 -22.642  0.00  0.00    +0.038 C 
ATOM     11  C   UNL     1      33.931 -12.236 -24.215  0.00  0.00    +0.038 C 
ATOM     12  C   UNL     1      32.443 -12.678 -21.896  0.00  0.00    +0.018 C 
ATOM     13  C   UNL     1      33.464 -11.155 -23.469  0.00  0.00    +0.018 C 
ATOM     14  C   UNL     1      32.720 -11.376 -22.310  0.00  0.00    +0.057 C 
BRANCH  14  15
ATOM     15  N   UNL     1      32.257 -10.302 -21.570  0.00  0.00    -0.246 N 
ATOM     16  N   UNL     1      31.668  -8.214 -21.061  0.00  0.00    -0.224 NA
ATOM     17  C   UNL     1      31.820 -10.332 -20.271  0.00  0.00    +0.092 C 
ATOM     18  C   UNL     1      32.145  -9.003 -21.998  0.00  0.00    +0.172 C 
ATOM     19  C   UNL     1      31.463  -9.037 -19.982  0.00  0.00    +0.117 C 
ENDBRANCH  14  15
ENDBRANCH   8   9
ENDBRANCH   2   8
BRANCH   1  20
ATOM     20  C   UNL     1      35.986 -18.361 -22.165  0.00  0.00    -0.050 C 
BRANCH  20  23
ATOM     21  O   UNL     1      32.721 -21.030 -19.595  0.00  0.00    -0.435 OA
ATOM     22  O   UNL     1      34.451 -22.209 -18.402  0.00  0.00    -0.435 OA
ATOM     23  C   UNL     1      35.609 -19.403 -21.145  0.00  0.00    -0.040 C 
ATOM     24  C   UNL     1      34.264 -19.669 -20.910  0.00  0.00    +0.034 C 
ATOM     25  C   UNL     1      36.621 -20.082 -20.457  0.00  0.00    -0.003 C 
ATOM     26  C   UNL     1      33.969 -20.632 -19.967  0.00  0.00    +0.176 C 
ATOM     27  C   UNL     1      36.294 -21.053 -19.508  0.00  0.00    +0.040 C 
ATOM     28  C   UNL     1      34.956 -21.305 -19.284  0.00  0.00    +0.176 C 
ATOM     29  C   UNL     1      33.035 -22.030 -18.605  0.00  0.00    +0.429 C 
ENDBRANCH  20  23
ENDBRANCH   1  20
TORSDOF 5
ENDMDL
MODEL 6
REMARK VINA RESULT:     -11.0      1.241      1.999
REMARK  Name = 11740318
REMARK  5 active torsions:
REMARK  status: ('A' for Active; 'I' for Inactive)
REMARK    1  A    between atoms: N_1  and  C_20
REMARK    2  A    between atoms: C_2  and  O_8
REMARK    3  A    between atoms: O_8  and  C_9
REMARK    4  A    between atoms: C_14  and  N_15
REMARK    5  A    between atoms: C_20  and  C_23
REMARK                            x       y       z     vdW  Elec       q    Type
REMARK                         _______ _______ _______ _____ _____    ______ ____
ROOT
ATOM      1  N   UNL     1      34.562 -22.663 -15.459  0.00  0.00    +0.392 N 
ATOM      2  C   UNL     1      34.864 -22.094 -17.850  0.00  0.00    +0.145 C 
ATOM      3  C   UNL     1      35.548 -22.381 -16.510  0.00  0.00    -0.032 C 
ATOM      4  C   UNL     1      33.945 -23.243 -18.255  0.00  0.00    +0.039 C 
ATOM      5  C   UNL     1      32.978 -23.576 -17.127  0.00  0.00    -0.019 C 
ATOM      6  C   UNL     1      33.723 -23.816 -15.812  0.00  0.00    -0.077 C 
ATOM      7  H   UNL     1      33.955 -21.848 -15.372  0.00  0.00    -0.079 HD
ENDROOT
BRANCH   2   8
ATOM      8  O   UNL     1      35.847 -21.922 -18.864  0.00  0.00    -0.481 OA
BRANCH   8   9
ATOM      9  C   UNL     1      35.651 -20.890 -19.743  0.00  0.00    +0.138 C 
ATOM     10  C   UNL     1      34.380 -20.655 -20.256  0.00  0.00    +0.038 C 
ATOM     11  C   UNL     1      36.724 -20.087 -20.115  0.00  0.00    +0.038 C 
ATOM     12  C   UNL     1      34.179 -19.604 -21.152  0.00  0.00    +0.018 C 
ATOM     13  C   UNL     1      36.524 -19.036 -21.010  0.00  0.00    +0.018 C 
ATOM     14  C   UNL     1      35.251 -18.795 -21.528  0.00  0.00    +0.057 C 
BRANCH  14  15
ATOM     15  N   UNL     1      35.053 -17.752 -22.415  0.00  0.00    -0.246 N 
ATOM     16  N   UNL     1      34.607 -16.686 -24.321  0.00  0.00    -0.224 NA
ATOM     17  C   UNL     1      35.134 -16.412 -22.134  0.00  0.00    +0.092 C 
ATOM     18  C   UNL     1      34.732 -17.861 -23.746  0.00  0.00    +0.172 C 
ATOM     19  C   UNL     1      34.856 -15.779 -23.322  0.00  0.00    +0.117 C 
ENDBRANCH  14  15
ENDBRANCH   8   9
ENDBRANCH   2   8
BRANCH   1  20
ATOM     20  C   UNL     1      35.230 -22.888 -14.177  0.00  0.00    -0.050 C 
BRANCH  20  23
ATOM     21  O   UNL     1      39.852 -24.618 -14.344  0.00  0.00    -0.435 OA
ATOM     22  O   UNL     1      39.113 -26.907 -14.486  0.00  0.00    -0.435 OA
ATOM     23  C   UNL     1      36.247 -23.995 -14.262  0.00  0.00    -0.040 C 
ATOM     24  C   UNL     1      37.601 -23.676 -14.255  0.00  0.00    +0.034 C 
ATOM     25  C   UNL     1      35.808 -25.321 -14.344  0.00  0.00    -0.003 C 
ATOM     26  C   UNL     1      38.495 -24.724 -14.334  0.00  0.00    +0.176 C 
ATOM     27  C   UNL     1      36.734 -26.364 -14.423  0.00  0.00    +0.040 C 
ATOM     28  C   UNL     1      38.073 -26.032 -14.416  0.00  0.00    +0.176 C 
ATOM     29  C   UNL     1      40.236 -26.004 -14.439  0.00  0.00    +0.429 C 
ENDBRANCH  20  23
ENDBRANCH   1  20
TORSDOF 5
ENDMDL
MODEL 7
REMARK VINA RESULT:     -10.9      3.850     10.904
REMARK  Name = 11740318
REMARK  5 active torsions:
REMARK  status: ('A' for Active; 'I' for Inactive)
REMARK    1  A    between atoms: N_1  and  C_20
REMARK    2  A    between atoms: C_2  and  O_8
REMARK    3  A    between atoms: O_8  and  C_9
REMARK    4  A    between atoms: C_14  and  N_15
REMARK    5  A    between atoms: C_20  and  C_23
REMARK                            x       y       z     vdW  Elec       q    Type
REMARK                         _______ _______ _______ _____ _____    ______ ____
ROOT
ATOM      1  N   UNL     1      35.115 -18.602 -21.929  0.00  0.00    +0.392 N 
ATOM      2  C   UNL     1      35.062 -20.380 -20.208  0.00  0.00    +0.145 C 
ATOM      3  C   UNL     1      34.575 -19.923 -21.586  0.00  0.00    -0.032 C 
ATOM      4  C   UNL     1      36.586 -20.375 -20.133  0.00  0.00    +0.039 C 
ATOM      5  C   UNL     1      37.137 -19.024 -20.566  0.00  0.00    -0.019 C 
ATOM      6  C   UNL     1      36.584 -18.612 -21.932  0.00  0.00    -0.077 C 
ATOM      7  H   UNL     1      34.807 -17.942 -21.215  0.00  0.00    -0.079 HD
ENDROOT
BRANCH   2   8
ATOM      8  O   UNL     1      34.600 -21.701 -19.948  0.00  0.00    -0.481 OA
BRANCH   8   9
ATOM      9  C   UNL     1      34.618 -22.114 -18.643  0.00  0.00    +0.138 C 
ATOM     10  C   UNL     1      33.472 -22.663 -18.077  0.00  0.00    +0.038 C 
ATOM     11  C   UNL     1      35.783 -21.983 -17.894  0.00  0.00    +0.038 C 
ATOM     12  C   UNL     1      33.491 -23.084 -16.746  0.00  0.00    +0.018 C 
ATOM     13  C   UNL     1      35.802 -22.404 -16.565  0.00  0.00    +0.018 C 
ATOM     14  C   UNL     1      34.656 -22.955 -15.991  0.00  0.00    +0.057 C 
BRANCH  14  15
ATOM     15  N   UNL     1      34.675 -23.373 -14.673  0.00  0.00    -0.246 N 
ATOM     16  N   UNL     1      33.945 -24.155 -12.717  0.00  0.00    -0.224 NA
ATOM     17  C   UNL     1      35.767 -23.417 -13.845  0.00  0.00    +0.092 C 
ATOM     18  C   UNL     1      33.605 -23.829 -13.944  0.00  0.00    +0.172 C 
ATOM     19  C   UNL     1      35.292 -23.901 -12.649  0.00  0.00    +0.117 C 
ENDBRANCH  14  15
ENDBRANCH   8   9
ENDBRANCH   2   8
BRANCH   1  20
ATOM     20  C   UNL     1      34.603 -18.161 -23.227  0.00  0.00    -0.050 C 
BRANCH  20  23
ATOM     21  O   UNL     1      33.450 -13.942 -25.519  0.00  0.00    -0.435 OA
ATOM     22  O   UNL     1      33.889 -12.619 -23.553  0.00  0.00    -0.435 OA
ATOM     23  C   UNL     1      34.421 -16.667 -23.279  0.00  0.00    -0.040 C 
ATOM     24  C   UNL     1      34.000 -16.074 -24.464  0.00  0.00    +0.034 C 
ATOM     25  C   UNL     1      34.679 -15.907 -22.132  0.00  0.00    -0.003 C 
ATOM     26  C   UNL     1      33.848 -14.703 -24.463  0.00  0.00    +0.176 C 
ATOM     27  C   UNL     1      34.516 -14.521 -22.157  0.00  0.00    +0.040 C 
ATOM     28  C   UNL     1      34.099 -13.947 -23.341  0.00  0.00    +0.176 C 
ATOM     29  C   UNL     1      33.476 -12.624 -24.935  0.00  0.00    +0.429 C 
ENDBRANCH  20  23
ENDBRANCH   1  20
TORSDOF 5
ENDMDL
MODEL 8
REMARK VINA RESULT:     -10.9      3.233     10.130
REMARK  Name = 11740318
REMARK  5 active torsions:
REMARK  status: ('A' for Active; 'I' for Inactive)
REMARK    1  A    between atoms: N_1  and  C_20
REMARK    2  A    between atoms: C_2  and  O_8
REMARK    3  A    between atoms: O_8  and  C_9
REMARK    4  A    between atoms: C_14  and  N_15
REMARK    5  A    between atoms: C_20  and  C_23
REMARK                            x       y       z     vdW  Elec       q    Type
REMARK                         _______ _______ _______ _____ _____    ______ ____
ROOT
ATOM      1  N   UNL     1      35.028 -20.120 -21.045  0.00  0.00    +0.392 N 
ATOM      2  C   UNL     1      34.835 -21.886 -19.321  0.00  0.00    +0.145 C 
ATOM      3  C   UNL     1      35.668 -20.723 -19.869  0.00  0.00    -0.032 C 
ATOM      4  C   UNL     1      33.411 -21.442 -19.001  0.00  0.00    +0.039 C 
ATOM      5  C   UNL     1      32.786 -20.748 -20.204  0.00  0.00    -0.019 C 
ATOM      6  C   UNL     1      33.684 -19.622 -20.722  0.00  0.00    -0.077 C 
ATOM      7  H   UNL     1      34.932 -20.844 -21.756  0.00  0.00    -0.079 HD
ENDROOT
BRANCH   2   8
ATOM      8  O   UNL     1      35.432 -22.385 -18.129  0.00  0.00    -0.481 OA
BRANCH   8   9
ATOM      9  C   UNL     1      34.580 -22.769 -17.128  0.00  0.00    +0.138 C 
ATOM     10  C   UNL     1      35.017 -22.754 -15.807  0.00  0.00    +0.038 C 
ATOM     11  C   UNL     1      33.286 -23.172 -17.440  0.00  0.00    +0.038 C 
ATOM     12  C   UNL     1      34.149 -23.146 -14.787  0.00  0.00    +0.018 C 
ATOM     13  C   UNL     1      32.419 -23.564 -16.421  0.00  0.00    +0.018 C 
ATOM     14  C   UNL     1      32.850 -23.550 -15.094  0.00  0.00    +0.057 C 
BRANCH  14  15
ATOM     15  N   UNL     1      31.990 -23.938 -14.083  0.00  0.00    -0.246 N 
ATOM     16  N   UNL     1      30.772 -23.830 -12.219  0.00  0.00    -0.224 NA
ATOM     17  C   UNL     1      31.357 -25.149 -13.968  0.00  0.00    +0.092 C 
ATOM     18  C   UNL     1      31.602 -23.182 -13.005  0.00  0.00    +0.172 C 
ATOM     19  C   UNL     1      30.614 -25.057 -12.815  0.00  0.00    +0.117 C 
ENDBRANCH  14  15
ENDBRANCH   8   9
ENDBRANCH   2   8
BRANCH   1  20
ATOM     20  C   UNL     1      35.858 -19.042 -21.583  0.00  0.00    -0.050 C 
BRANCH  20  23
ATOM     21  O   UNL     1      34.453 -14.911 -23.892  0.00  0.00    -0.435 OA
ATOM     22  O   UNL     1      33.294 -16.131 -25.617  0.00  0.00    -0.435 OA
ATOM     23  C   UNL     1      35.157 -18.291 -22.683  0.00  0.00    -0.040 C 
ATOM     24  C   UNL     1      35.192 -16.901 -22.687  0.00  0.00    +0.034 C 
ATOM     25  C   UNL     1      34.487 -19.010 -23.681  0.00  0.00    -0.003 C 
ATOM     26  C   UNL     1      34.535 -16.258 -23.716  0.00  0.00    +0.176 C 
ATOM     27  C   UNL     1      33.831 -18.334 -24.712  0.00  0.00    +0.040 C 
ATOM     28  C   UNL     1      33.873 -16.955 -24.701  0.00  0.00    +0.176 C 
ATOM     29  C   UNL     1      33.666 -14.838 -25.099  0.00  0.00    +0.429 C 
ENDBRANCH  20  23
ENDBRANCH   1  20
TORSDOF 5
ENDMDL
MODEL 9
REMARK VINA RESULT:     -10.8      3.813     10.844
REMARK  Name = 11740318
REMARK  5 active torsions:
REMARK  status: ('A' for Active; 'I' for Inactive)
REMARK    1  A    between atoms: N_1  and  C_20
REMARK    2  A    between atoms: C_2  and  O_8
REMARK    3  A    between atoms: O_8  and  C_9
REMARK    4  A    between atoms: C_14  and  N_15
REMARK    5  A    between atoms: C_20  and  C_23
REMARK                            x       y       z     vdW  Elec       q    Type
REMARK                         _______ _______ _______ _____ _____    ______ ____
ROOT
ATOM      1  N   UNL     1      35.076 -18.562 -22.383  0.00  0.00    +0.392 N 
ATOM      2  C   UNL     1      35.050 -20.131 -20.467  0.00  0.00    +0.145 C 
ATOM      3  C   UNL     1      34.601 -19.868 -21.908  0.00  0.00    -0.032 C 
ATOM      4  C   UNL     1      36.566 -20.018 -20.334  0.00  0.00    +0.039 C 
ATOM      5  C   UNL     1      37.054 -18.692 -20.902  0.00  0.00    -0.019 C 
ATOM      6  C   UNL     1      36.541 -18.477 -22.327  0.00  0.00    -0.077 C 
ATOM      7  H   UNL     1      34.696 -17.847 -21.763  0.00  0.00    -0.079 HD
ENDROOT
BRANCH   2   8
ATOM      8  O   UNL     1      34.658 -21.441 -20.073  0.00  0.00    -0.481 OA
BRANCH   8   9
ATOM      9  C   UNL     1      35.002 -21.832 -18.806  0.00  0.00    +0.138 C 
ATOM     10  C   UNL     1      34.053 -22.437 -17.989  0.00  0.00    +0.038 C 
ATOM     11  C   UNL     1      36.299 -21.622 -18.349  0.00  0.00    +0.038 C 
ATOM     12  C   UNL     1      34.404 -22.835 -16.699  0.00  0.00    +0.018 C 
ATOM     13  C   UNL     1      36.650 -22.020 -17.059  0.00  0.00    +0.018 C 
ATOM     14  C   UNL     1      35.703 -22.627 -16.234  0.00  0.00    +0.057 C 
BRANCH  14  15
ATOM     15  N   UNL     1      36.051 -23.023 -14.956  0.00  0.00    -0.246 N 
ATOM     16  N   UNL     1      37.300 -23.362 -13.141  0.00  0.00    -0.224 NA
ATOM     17  C   UNL     1      35.231 -23.617 -14.031  0.00  0.00    +0.092 C 
ATOM     18  C   UNL     1      37.285 -22.893 -14.368  0.00  0.00    +0.172 C 
ATOM     19  C   UNL     1      36.022 -23.815 -12.925  0.00  0.00    +0.117 C 
ENDBRANCH  14  15
ENDBRANCH   8   9
ENDBRANCH   2   8
BRANCH   1  20
ATOM     20  C   UNL     1      34.598 -18.307 -23.741  0.00  0.00    -0.050 C 
BRANCH  20  23
ATOM     21  O   UNL     1      34.450 -13.572 -22.352  0.00  0.00    -0.435 OA
ATOM     22  O   UNL     1      33.403 -12.881 -24.409  0.00  0.00    -0.435 OA
ATOM     23  C   UNL     1      34.263 -16.855 -23.954  0.00  0.00    -0.040 C 
ATOM     24  C   UNL     1      34.565 -15.934 -22.958  0.00  0.00    +0.034 C 
ATOM     25  C   UNL     1      33.654 -16.464 -25.153  0.00  0.00    -0.003 C 
ATOM     26  C   UNL     1      34.239 -14.615 -23.200  0.00  0.00    +0.176 C 
ATOM     27  C   UNL     1      33.335 -15.123 -25.373  0.00  0.00    +0.040 C 
ATOM     28  C   UNL     1      33.640 -14.221 -24.374  0.00  0.00    +0.176 C 
ATOM     29  C   UNL     1      33.920 -12.476 -23.125  0.00  0.00    +0.429 C 
ENDBRANCH  20  23
ENDBRANCH   1  20
TORSDOF 5
ENDMDL
