MODEL 1
REMARK VINA RESULT:     -11.8      0.000      0.000
REMARK  Name = 12136798
REMARK  7 active torsions:
REMARK  status: ('A' for Active; 'I' for Inactive)
REMARK    1  A    between atoms: C_1  and  C_21
REMARK    2  A    between atoms: C_2  and  C_9
REMARK    3  A    between atoms: N_8  and  C_12
REMARK    4  A    between atoms: C_13  and  N_18
REMARK    5  A    between atoms: C_21  and  N_23
REMARK    6  A    between atoms: C_24  and  C_26
REMARK    7  A    between atoms: C_27  and  C_29
REMARK                            x       y       z     vdW  Elec       q    Type
REMARK                         _______ _______ _______ _____ _____    ______ ____
ROOT
ATOM      1  C   UNL     1      34.127 -14.121 -22.830  0.00  0.00    -0.003 C 
ATOM      2  C   UNL     1      32.613 -11.911 -22.089  0.00  0.00    +0.054 C 
ATOM      3  C   UNL     1      34.093 -13.003 -23.654  0.00  0.00    -0.002 C 
ATOM      4  C   UNL     1      33.410 -14.147 -21.640  0.00  0.00    -0.002 C 
ATOM      5  C   UNL     1      33.334 -11.893 -23.282  0.00  0.00    +0.004 C 
ATOM      6  C   UNL     1      32.650 -13.038 -21.267  0.00  0.00    +0.004 C 
ENDROOT
BRANCH   2   9
ATOM      7  O   UNL     1      30.798 -10.927 -21.017  0.00  0.00    -0.270 OA
ATOM      8  N   UNL     1      32.304  -9.511 -22.127  0.00  0.00    -0.279 N 
ATOM      9  C   UNL     1      31.819 -10.755 -21.702  0.00  0.00    +0.250 C 
ATOM     10  H   UNL     1      33.129  -9.534 -22.665  0.00  0.00    +0.155 HD
BRANCH   8  12
ATOM     11  F   UNL     1      30.162  -4.492 -21.249  0.00  0.00    -0.204 F 
ATOM     12  C   UNL     1      31.764  -8.224 -21.884  0.00  0.00    +0.064 C 
ATOM     13  C   UNL     1      32.027  -7.567 -20.694  0.00  0.00    +0.057 C 
ATOM     14  C   UNL     1      30.970  -7.650 -22.864  0.00  0.00    +0.018 C 
ATOM     15  C   UNL     1      31.484  -6.300 -20.478  0.00  0.00    +0.045 C 
ATOM     16  C   UNL     1      30.427  -6.384 -22.648  0.00  0.00    +0.031 C 
ATOM     17  C   UNL     1      30.683  -5.709 -21.455  0.00  0.00    +0.141 C 
BRANCH  13  18
ATOM     18  N   UNL     1      32.835  -8.146 -19.691  0.00  0.00    -0.356 N 
ATOM     19  H   UNL     1      32.419  -8.647 -18.952  0.00  0.00    +0.142 HD
ATOM     20  H   UNL     1      33.814  -8.051 -19.729  0.00  0.00    +0.142 HD
ENDBRANCH  13  18
ENDBRANCH   8  12
ENDBRANCH   2   9
BRANCH   1  21
ATOM     21  C   UNL     1      34.944 -15.316 -23.229  0.00  0.00    +0.117 C 
BRANCH  21  23
ATOM     22  O   UNL     1      34.935 -18.181 -23.657  0.00  0.00    -0.270 OA
ATOM     23  N   UNL     1      34.917 -16.353 -22.222  0.00  0.00    -0.297 N 
ATOM     24  C   UNL     1      34.915 -17.703 -22.528  0.00  0.00    +0.246 C 
ATOM     25  H   UNL     1      34.898 -16.086 -21.274  0.00  0.00    +0.150 HD
BRANCH  24  26
ATOM     26  C   UNL     1      34.883 -18.549 -21.301  0.00  0.00    +0.058 C 
ATOM     27  C   UNL     1      34.304 -19.758 -21.336  0.00  0.00    +0.006 C 
BRANCH  27  29
ATOM     28  N   UNL     1      32.860 -21.919 -18.654  0.00  0.00    -0.242 NA
ATOM     29  C   UNL     1      34.225 -20.680 -20.189  0.00  0.00    +0.019 C 
ATOM     30  C   UNL     1      35.377 -21.154 -19.597  0.00  0.00    +0.003 C 
ATOM     31  C   UNL     1      33.003 -21.075 -19.702  0.00  0.00    +0.099 C 
ATOM     32  C   UNL     1      35.271 -22.023 -18.517  0.00  0.00    +0.021 C 
ATOM     33  C   UNL     1      34.001 -22.372 -18.088  0.00  0.00    +0.099 C 
ENDBRANCH  27  29
ENDBRANCH  24  26
ENDBRANCH  21  23
ENDBRANCH   1  21
TORSDOF 7
ENDMDL
MODEL 2
REMARK VINA RESULT:     -11.8      5.000     12.414
REMARK  Name = 12136798
REMARK  7 active torsions:
REMARK  status: ('A' for Active; 'I' for Inactive)
REMARK    1  A    between atoms: C_1  and  C_21
REMARK    2  A    between atoms: C_2  and  C_9
REMARK    3  A    between atoms: N_8  and  C_12
REMARK    4  A    between atoms: C_13  and  N_18
REMARK    5  A    between atoms: C_21  and  N_23
REMARK    6  A    between atoms: C_24  and  C_26
REMARK    7  A    between atoms: C_27  and  C_29
REMARK                            x       y       z     vdW  Elec       q    Type
REMARK                         _______ _______ _______ _____ _____    ______ ____
ROOT
ATOM      1  C   UNL     1      35.230 -19.897 -20.661  0.00  0.00    -0.003 C 
ATOM      2  C   UNL     1      34.166 -21.852 -18.997  0.00  0.00    +0.054 C 
ATOM      3  C   UNL     1      33.854 -20.079 -20.606  0.00  0.00    -0.002 C 
ATOM      4  C   UNL     1      36.081 -20.683 -19.893  0.00  0.00    -0.002 C 
ATOM      5  C   UNL     1      33.319 -21.060 -19.771  0.00  0.00    +0.004 C 
ATOM      6  C   UNL     1      35.547 -21.664 -19.057  0.00  0.00    +0.004 C 
ENDROOT
BRANCH   2   9
ATOM      7  O   UNL     1      33.555 -24.049 -18.534  0.00  0.00    -0.270 OA
ATOM      8  N   UNL     1      33.197 -22.444 -16.860  0.00  0.00    -0.279 N 
ATOM      9  C   UNL     1      33.610 -22.877 -18.127  0.00  0.00    +0.250 C 
ATOM     10  H   UNL     1      33.304 -21.482 -16.680  0.00  0.00    +0.155 HD
BRANCH   8  12
ATOM     11  F   UNL     1      31.116 -25.443 -12.709  0.00  0.00    -0.204 F 
ATOM     12  C   UNL     1      32.645 -23.209 -15.802  0.00  0.00    +0.064 C 
ATOM     13  C   UNL     1      31.273 -23.355 -15.685  0.00  0.00    +0.057 C 
ATOM     14  C   UNL     1      33.513 -23.800 -14.897  0.00  0.00    +0.018 C 
ATOM     15  C   UNL     1      30.754 -24.113 -14.636  0.00  0.00    +0.045 C 
ATOM     16  C   UNL     1      32.993 -24.558 -13.849  0.00  0.00    +0.031 C 
ATOM     17  C   UNL     1      31.614 -24.714 -13.717  0.00  0.00    +0.141 C 
BRANCH  13  18
ATOM     18  N   UNL     1      30.383 -22.756 -16.604  0.00  0.00    -0.356 N 
ATOM     19  H   UNL     1      29.449 -22.584 -16.343  0.00  0.00    +0.142 HD
ATOM     20  H   UNL     1      30.696 -22.508 -17.504  0.00  0.00    +0.142 HD
ENDBRANCH  13  18
ENDBRANCH   8  12
ENDBRANCH   2   9
BRANCH   1  21
ATOM     21  C   UNL     1      35.806 -18.840 -21.560  0.00  0.00    +0.117 C 
BRANCH  21  23
ATOM     22  O   UNL     1      35.275 -16.738 -23.481  0.00  0.00    -0.270 OA
ATOM     23  N   UNL     1      35.235 -17.538 -21.299  0.00  0.00    -0.297 N 
ATOM     24  C   UNL     1      35.018 -16.596 -22.290  0.00  0.00    +0.246 C 
ATOM     25  H   UNL     1      34.989 -17.310 -20.373  0.00  0.00    +0.150 HD
BRANCH  24  26
ATOM     26  C   UNL     1      34.422 -15.344 -21.743  0.00  0.00    +0.058 C 
ATOM     27  C   UNL     1      33.685 -14.552 -22.536  0.00  0.00    +0.006 C 
BRANCH  27  29
ATOM     28  N   UNL     1      32.622 -10.972 -22.496  0.00  0.00    -0.242 NA
ATOM     29  C   UNL     1      33.040 -13.300 -22.100  0.00  0.00    +0.019 C 
ATOM     30  C   UNL     1      32.283 -13.274 -20.948  0.00  0.00    +0.003 C 
ATOM     31  C   UNL     1      33.187 -12.152 -22.839  0.00  0.00    +0.099 C 
ATOM     32  C   UNL     1      31.687 -12.078 -20.561  0.00  0.00    +0.021 C 
ATOM     33  C   UNL     1      31.885 -10.967 -21.363  0.00  0.00    +0.099 C 
ENDBRANCH  27  29
ENDBRANCH  24  26
ENDBRANCH  21  23
ENDBRANCH   1  21
TORSDOF 7
ENDMDL
MODEL 3
REMARK VINA RESULT:     -11.6      5.006     12.367
REMARK  Name = 12136798
REMARK  7 active torsions:
REMARK  status: ('A' for Active; 'I' for Inactive)
REMARK    1  A    between atoms: C_1  and  C_21
REMARK    2  A    between atoms: C_2  and  C_9
REMARK    3  A    between atoms: N_8  and  C_12
REMARK    4  A    between atoms: C_13  and  N_18
REMARK    5  A    between atoms: C_21  and  N_23
REMARK    6  A    between atoms: C_24  and  C_26
REMARK    7  A    between atoms: C_27  and  C_29
REMARK                            x       y       z     vdW  Elec       q    Type
REMARK                         _______ _______ _______ _____ _____    ______ ____
ROOT
ATOM      1  C   UNL     1      35.254 -19.878 -20.645  0.00  0.00    -0.003 C 
ATOM      2  C   UNL     1      34.160 -21.827 -18.992  0.00  0.00    +0.054 C 
ATOM      3  C   UNL     1      36.092 -20.680 -19.880  0.00  0.00    -0.002 C 
ATOM      4  C   UNL     1      33.874 -20.039 -20.592  0.00  0.00    -0.002 C 
ATOM      5  C   UNL     1      35.543 -21.659 -19.051  0.00  0.00    +0.004 C 
ATOM      6  C   UNL     1      33.325 -21.017 -19.762  0.00  0.00    +0.004 C 
ENDROOT
BRANCH   2   9
ATOM      7  O   UNL     1      33.625 -24.033 -18.485  0.00  0.00    -0.270 OA
ATOM      8  N   UNL     1      33.050 -22.387 -16.916  0.00  0.00    -0.279 N 
ATOM      9  C   UNL     1      33.587 -22.846 -18.126  0.00  0.00    +0.250 C 
ATOM     10  H   UNL     1      33.092 -21.414 -16.770  0.00  0.00    +0.155 HD
BRANCH   8  12
ATOM     11  F   UNL     1      30.656 -25.325 -12.892  0.00  0.00    -0.204 F 
ATOM     12  C   UNL     1      32.453 -23.139 -15.874  0.00  0.00    +0.064 C 
ATOM     13  C   UNL     1      33.188 -23.489 -14.753  0.00  0.00    +0.057 C 
ATOM     14  C   UNL     1      31.125 -23.512 -16.011  0.00  0.00    +0.018 C 
ATOM     15  C   UNL     1      32.578 -24.231 -13.741  0.00  0.00    +0.045 C 
ATOM     16  C   UNL     1      30.516 -24.253 -14.999  0.00  0.00    +0.031 C 
ATOM     17  C   UNL     1      31.242 -24.613 -13.864  0.00  0.00    +0.141 C 
BRANCH  13  18
ATOM     18  N   UNL     1      34.541 -23.113 -14.607  0.00  0.00    -0.356 N 
ATOM     19  H   UNL     1      35.235 -23.804 -14.502  0.00  0.00    +0.142 HD
ATOM     20  H   UNL     1      34.792 -22.161 -14.612  0.00  0.00    +0.142 HD
ENDBRANCH  13  18
ENDBRANCH   8  12
ENDBRANCH   2   9
BRANCH   1  21
ATOM     21  C   UNL     1      35.844 -18.825 -21.538  0.00  0.00    +0.117 C 
BRANCH  21  23
ATOM     22  O   UNL     1      35.242 -16.770 -23.489  0.00  0.00    -0.270 OA
ATOM     23  N   UNL     1      35.271 -17.521 -21.290  0.00  0.00    -0.297 N 
ATOM     24  C   UNL     1      35.019 -16.603 -22.295  0.00  0.00    +0.246 C 
ATOM     25  H   UNL     1      35.050 -17.275 -20.362  0.00  0.00    +0.150 HD
BRANCH  24  26
ATOM     26  C   UNL     1      34.429 -15.343 -21.759  0.00  0.00    +0.058 C 
ATOM     27  C   UNL     1      33.678 -14.565 -22.552  0.00  0.00    +0.006 C 
BRANCH  27  29
ATOM     28  N   UNL     1      32.622 -10.983 -22.544  0.00  0.00    -0.242 NA
ATOM     29  C   UNL     1      33.038 -13.308 -22.126  0.00  0.00    +0.019 C 
ATOM     30  C   UNL     1      32.287 -13.267 -20.970  0.00  0.00    +0.003 C 
ATOM     31  C   UNL     1      33.183 -12.167 -22.878  0.00  0.00    +0.099 C 
ATOM     32  C   UNL     1      31.695 -12.067 -20.593  0.00  0.00    +0.021 C 
ATOM     33  C   UNL     1      31.891 -10.964 -21.407  0.00  0.00    +0.099 C 
ENDBRANCH  27  29
ENDBRANCH  24  26
ENDBRANCH  21  23
ENDBRANCH   1  21
TORSDOF 7
ENDMDL
MODEL 4
REMARK VINA RESULT:     -11.4      4.623      7.690
REMARK  Name = 12136798
REMARK  7 active torsions:
REMARK  status: ('A' for Active; 'I' for Inactive)
REMARK    1  A    between atoms: C_1  and  C_21
REMARK    2  A    between atoms: C_2  and  C_9
REMARK    3  A    between atoms: N_8  and  C_12
REMARK    4  A    between atoms: C_13  and  N_18
REMARK    5  A    between atoms: C_21  and  N_23
REMARK    6  A    between atoms: C_24  and  C_26
REMARK    7  A    between atoms: C_27  and  C_29
REMARK                            x       y       z     vdW  Elec       q    Type
REMARK                         _______ _______ _______ _____ _____    ______ ____
ROOT
ATOM      1  C   UNL     1      35.964 -20.495 -19.899  0.00  0.00    -0.003 C 
ATOM      2  C   UNL     1      35.061 -18.880 -21.973  0.00  0.00    +0.054 C 
ATOM      3  C   UNL     1      36.851 -19.638 -20.539  0.00  0.00    -0.002 C 
ATOM      4  C   UNL     1      34.630 -20.554 -20.286  0.00  0.00    -0.002 C 
ATOM      5  C   UNL     1      36.398 -18.827 -21.580  0.00  0.00    +0.004 C 
ATOM      6  C   UNL     1      34.177 -19.744 -21.327  0.00  0.00    +0.004 C 
ENDROOT
BRANCH   2   9
ATOM      7  O   UNL     1      34.159 -18.570 -24.095  0.00  0.00    -0.270 OA
ATOM      8  N   UNL     1      34.639 -16.655 -22.827  0.00  0.00    -0.279 N 
ATOM      9  C   UNL     1      34.589 -18.036 -23.060  0.00  0.00    +0.250 C 
ATOM     10  H   UNL     1      35.007 -16.381 -21.955  0.00  0.00    +0.155 HD
BRANCH   8  12
ATOM     11  F   UNL     1      33.041 -12.592 -26.217  0.00  0.00    -0.204 F 
ATOM     12  C   UNL     1      34.230 -15.601 -23.681  0.00  0.00    +0.064 C 
ATOM     13  C   UNL     1      34.065 -14.320 -23.182  0.00  0.00    +0.057 C 
ATOM     14  C   UNL     1      34.002 -15.890 -25.017  0.00  0.00    +0.018 C 
ATOM     15  C   UNL     1      33.662 -13.298 -24.042  0.00  0.00    +0.045 C 
ATOM     16  C   UNL     1      33.599 -14.869 -25.877  0.00  0.00    +0.031 C 
ATOM     17  C   UNL     1      33.428 -13.573 -25.390  0.00  0.00    +0.141 C 
BRANCH  13  18
ATOM     18  N   UNL     1      34.296 -14.019 -21.821  0.00  0.00    -0.356 N 
ATOM     19  H   UNL     1      33.564 -14.105 -21.168  0.00  0.00    +0.142 HD
ATOM     20  H   UNL     1      35.187 -13.724 -21.526  0.00  0.00    +0.142 HD
ENDBRANCH  13  18
ENDBRANCH   8  12
ENDBRANCH   2   9
BRANCH   1  21
ATOM     21  C   UNL     1      36.450 -21.368 -18.778  0.00  0.00    +0.117 C 
BRANCH  21  23
ATOM     22  O   UNL     1      36.530 -22.582 -16.149  0.00  0.00    -0.270 OA
ATOM     23  N   UNL     1      35.359 -22.000 -18.070  0.00  0.00    -0.297 N 
ATOM     24  C   UNL     1      35.497 -22.554 -16.809  0.00  0.00    +0.246 C 
ATOM     25  H   UNL     1      34.477 -22.037 -18.506  0.00  0.00    +0.150 HD
BRANCH  24  26
ATOM     26  C   UNL     1      34.216 -23.137 -16.318  0.00  0.00    +0.058 C 
ATOM     27  C   UNL     1      33.920 -23.096 -15.010  0.00  0.00    +0.006 C 
BRANCH  27  29
ATOM     28  N   UNL     1      31.644 -25.096 -12.826  0.00  0.00    -0.242 NA
ATOM     29  C   UNL     1      32.681 -23.630 -14.416  0.00  0.00    +0.019 C 
ATOM     30  C   UNL     1      31.452 -23.192 -14.863  0.00  0.00    +0.003 C 
ATOM     31  C   UNL     1      32.742 -24.566 -13.413  0.00  0.00    +0.099 C 
ATOM     32  C   UNL     1      30.300 -23.714 -14.284  0.00  0.00    +0.021 C 
ATOM     33  C   UNL     1      30.449 -24.654 -13.278  0.00  0.00    +0.099 C 
ENDBRANCH  27  29
ENDBRANCH  24  26
ENDBRANCH  21  23
ENDBRANCH   1  21
TORSDOF 7
ENDMDL
MODEL 5
REMARK VINA RESULT:     -11.2      5.071     12.539
REMARK  Name = 12136798
REMARK  7 active torsions:
REMARK  status: ('A' for Active; 'I' for Inactive)
REMARK    1  A    between atoms: C_1  and  C_21
REMARK    2  A    between atoms: C_2  and  C_9
REMARK    3  A    between atoms: N_8  and  C_12
REMARK    4  A    between atoms: C_13  and  N_18
REMARK    5  A    between atoms: C_21  and  N_23
REMARK    6  A    between atoms: C_24  and  C_26
REMARK    7  A    between atoms: C_27  and  C_29
REMARK                            x       y       z     vdW  Elec       q    Type
REMARK                         _______ _______ _______ _____ _____    ______ ____
ROOT
ATOM      1  C   UNL     1      35.561 -19.289 -21.304  0.00  0.00    -0.003 C 
ATOM      2  C   UNL     1      35.145 -21.223 -19.351  0.00  0.00    +0.054 C 
ATOM      3  C   UNL     1      36.642 -19.782 -20.583  0.00  0.00    -0.002 C 
ATOM      4  C   UNL     1      34.274 -19.752 -21.058  0.00  0.00    -0.002 C 
ATOM      5  C   UNL     1      36.434 -20.753 -19.604  0.00  0.00    +0.004 C 
ATOM      6  C   UNL     1      34.065 -20.723 -20.079  0.00  0.00    +0.004 C 
ENDROOT
BRANCH   2   9
ATOM      7  O   UNL     1      34.199 -23.206 -18.586  0.00  0.00    -0.270 OA
ATOM      8  N   UNL     1      35.599 -22.030 -17.115  0.00  0.00    -0.279 N 
ATOM      9  C   UNL     1      34.928 -22.234 -18.328  0.00  0.00    +0.250 C 
ATOM     10  H   UNL     1      36.142 -21.211 -17.059  0.00  0.00    +0.155 HD
BRANCH   8  12
ATOM     11  F   UNL     1      35.518 -25.220 -12.602  0.00  0.00    -0.204 F 
ATOM     12  C   UNL     1      35.598 -22.848 -15.958  0.00  0.00    +0.064 C 
ATOM     13  C   UNL     1      36.792 -23.273 -15.400  0.00  0.00    +0.057 C 
ATOM     14  C   UNL     1      34.377 -23.207 -15.409  0.00  0.00    +0.018 C 
ATOM     15  C   UNL     1      36.765 -24.078 -14.261  0.00  0.00    +0.045 C 
ATOM     16  C   UNL     1      34.351 -24.011 -14.270  0.00  0.00    +0.031 C 
ATOM     17  C   UNL     1      35.544 -24.448 -13.696  0.00  0.00    +0.141 C 
BRANCH  13  18
ATOM     18  N   UNL     1      38.039 -22.912 -15.955  0.00  0.00    -0.356 N 
ATOM     19  H   UNL     1      38.191 -23.000 -16.924  0.00  0.00    +0.142 HD
ATOM     20  H   UNL     1      38.757 -22.570 -15.374  0.00  0.00    +0.142 HD
ENDBRANCH  13  18
ENDBRANCH   8  12
ENDBRANCH   2   9
BRANCH   1  21
ATOM     21  C   UNL     1      35.784 -18.244 -22.359  0.00  0.00    +0.117 C 
BRANCH  21  23
ATOM     22  O   UNL     1      35.141 -16.061 -24.151  0.00  0.00    -0.270 OA
ATOM     23  N   UNL     1      35.153 -16.988 -22.020  0.00  0.00    -0.297 N 
ATOM     24  C   UNL     1      34.885 -16.001 -22.953  0.00  0.00    +0.246 C 
ATOM     25  H   UNL     1      34.903 -16.828 -21.081  0.00  0.00    +0.150 HD
BRANCH  24  26
ATOM     26  C   UNL     1      34.233 -14.814 -22.331  0.00  0.00    +0.058 C 
ATOM     27  C   UNL     1      33.722 -13.847 -23.108  0.00  0.00    +0.006 C 
BRANCH  27  29
ATOM     28  N   UNL     1      32.761 -10.259 -22.717  0.00  0.00    -0.242 NA
ATOM     29  C   UNL     1      33.047 -12.638 -22.603  0.00  0.00    +0.019 C 
ATOM     30  C   UNL     1      32.112 -12.735 -21.594  0.00  0.00    +0.003 C 
ATOM     31  C   UNL     1      33.344 -11.407 -23.134  0.00  0.00    +0.099 C 
ATOM     32  C   UNL     1      31.492 -11.577 -21.137  0.00  0.00    +0.021 C 
ATOM     33  C   UNL     1      31.848 -10.376 -21.727  0.00  0.00    +0.099 C 
ENDBRANCH  27  29
ENDBRANCH  24  26
ENDBRANCH  21  23
ENDBRANCH   1  21
TORSDOF 7
ENDMDL
MODEL 6
REMARK VINA RESULT:     -11.1      1.920      2.635
REMARK  Name = 12136798
REMARK  7 active torsions:
REMARK  status: ('A' for Active; 'I' for Inactive)
REMARK    1  A    between atoms: C_1  and  C_21
REMARK    2  A    between atoms: C_2  and  C_9
REMARK    3  A    between atoms: N_8  and  C_12
REMARK    4  A    between atoms: C_13  and  N_18
REMARK    5  A    between atoms: C_21  and  N_23
REMARK    6  A    between atoms: C_24  and  C_26
REMARK    7  A    between atoms: C_27  and  C_29
REMARK                            x       y       z     vdW  Elec       q    Type
REMARK                         _______ _______ _______ _____ _____    ______ ____
ROOT
ATOM      1  C   UNL     1      34.155 -16.407 -24.182  0.00  0.00    -0.003 C 
ATOM      2  C   UNL     1      33.820 -13.676 -23.785  0.00  0.00    +0.054 C 
ATOM      3  C   UNL     1      33.473 -15.653 -25.129  0.00  0.00    -0.002 C 
ATOM      4  C   UNL     1      34.671 -15.810 -23.038  0.00  0.00    -0.002 C 
ATOM      5  C   UNL     1      33.305 -14.282 -24.931  0.00  0.00    +0.004 C 
ATOM      6  C   UNL     1      34.503 -14.440 -22.839  0.00  0.00    +0.004 C 
ENDROOT
BRANCH   2   9
ATOM      7  O   UNL     1      34.199 -11.452 -24.352  0.00  0.00    -0.270 OA
ATOM      8  N   UNL     1      32.820 -11.883 -22.504  0.00  0.00    -0.279 N 
ATOM      9  C   UNL     1      33.644 -12.247 -23.577  0.00  0.00    +0.250 C 
ATOM     10  H   UNL     1      32.449 -12.628 -21.977  0.00  0.00    +0.155 HD
BRANCH   8  12
ATOM     11  F   UNL     1      31.396  -6.787 -20.907  0.00  0.00    -0.204 F 
ATOM     12  C   UNL     1      32.449 -10.584 -22.077  0.00  0.00    +0.064 C 
ATOM     13  C   UNL     1      31.903 -10.389 -20.819  0.00  0.00    +0.057 C 
ATOM     14  C   UNL     1      32.646  -9.525 -22.950  0.00  0.00    +0.018 C 
ATOM     15  C   UNL     1      31.546  -9.101 -20.422  0.00  0.00    +0.045 C 
ATOM     16  C   UNL     1      32.289  -8.238 -22.552  0.00  0.00    +0.031 C 
ATOM     17  C   UNL     1      31.738  -8.025 -21.289  0.00  0.00    +0.141 C 
BRANCH  13  18
ATOM     18  N   UNL     1      31.699 -11.463 -19.925  0.00  0.00    -0.356 N 
ATOM     19  H   UNL     1      30.802 -11.632 -19.556  0.00  0.00    +0.142 HD
ATOM     20  H   UNL     1      32.452 -12.045 -19.673  0.00  0.00    +0.142 HD
ENDBRANCH  13  18
ENDBRANCH   8  12
ENDBRANCH   2   9
BRANCH   1  21
ATOM     21  C   UNL     1      34.336 -17.882 -24.395  0.00  0.00    +0.117 C 
BRANCH  21  23
ATOM     22  O   UNL     1      36.213 -18.832 -22.403  0.00  0.00    -0.270 OA
ATOM     23  N   UNL     1      34.038 -18.643 -23.202  0.00  0.00    -0.297 N 
ATOM     24  C   UNL     1      35.010 -19.053 -22.305  0.00  0.00    +0.246 C 
ATOM     25  H   UNL     1      33.100 -18.879 -23.019  0.00  0.00    +0.150 HD
BRANCH  24  26
ATOM     26  C   UNL     1      34.426 -19.819 -21.168  0.00  0.00    +0.058 C 
ATOM     27  C   UNL     1      35.212 -20.607 -20.419  0.00  0.00    +0.006 C 
BRANCH  27  29
ATOM     28  N   UNL     1      35.286 -22.645 -17.289  0.00  0.00    -0.242 NA
ATOM     29  C   UNL     1      34.745 -21.399 -19.267  0.00  0.00    +0.019 C 
ATOM     30  C   UNL     1      33.398 -21.631 -19.083  0.00  0.00    +0.003 C 
ATOM     31  C   UNL     1      35.648 -21.911 -18.367  0.00  0.00    +0.099 C 
ATOM     32  C   UNL     1      32.987 -22.382 -17.987  0.00  0.00    +0.021 C 
ATOM     33  C   UNL     1      33.961 -22.861 -17.128  0.00  0.00    +0.099 C 
ENDBRANCH  27  29
ENDBRANCH  24  26
ENDBRANCH  21  23
ENDBRANCH   1  21
TORSDOF 7
ENDMDL
MODEL 7
REMARK VINA RESULT:     -11.0      1.563      1.949
REMARK  Name = 12136798
REMARK  7 active torsions:
REMARK  status: ('A' for Active; 'I' for Inactive)
REMARK    1  A    between atoms: C_1  and  C_21
REMARK    2  A    between atoms: C_2  and  C_9
REMARK    3  A    between atoms: N_8  and  C_12
REMARK    4  A    between atoms: C_13  and  N_18
REMARK    5  A    between atoms: C_21  and  N_23
REMARK    6  A    between atoms: C_24  and  C_26
REMARK    7  A    between atoms: C_27  and  C_29
REMARK                            x       y       z     vdW  Elec       q    Type
REMARK                         _______ _______ _______ _____ _____    ______ ____
ROOT
ATOM      1  C   UNL     1      34.299 -15.089 -24.038  0.00  0.00    -0.003 C 
ATOM      2  C   UNL     1      33.323 -12.691 -23.025  0.00  0.00    +0.054 C 
ATOM      3  C   UNL     1      33.812 -14.121 -24.909  0.00  0.00    -0.002 C 
ATOM      4  C   UNL     1      34.302 -14.871 -22.666  0.00  0.00    -0.002 C 
ATOM      5  C   UNL     1      33.323 -12.918 -24.402  0.00  0.00    +0.004 C 
ATOM      6  C   UNL     1      33.812 -13.667 -22.157  0.00  0.00    +0.004 C 
ENDROOT
BRANCH   2   9
ATOM      7  O   UNL     1      32.134 -11.454 -21.454  0.00  0.00    -0.270 OA
ATOM      8  N   UNL     1      33.158 -10.284 -23.212  0.00  0.00    -0.279 N 
ATOM      9  C   UNL     1      32.811 -11.437 -22.495  0.00  0.00    +0.250 C 
ATOM     10  H   UNL     1      33.702 -10.429 -24.020  0.00  0.00    +0.155 HD
BRANCH   8  12
ATOM     11  F   UNL     1      31.804  -5.046 -22.079  0.00  0.00    -0.204 F 
ATOM     12  C   UNL     1      32.830  -8.935 -22.926  0.00  0.00    +0.064 C 
ATOM     13  C   UNL     1      33.783  -7.939 -23.057  0.00  0.00    +0.057 C 
ATOM     14  C   UNL     1      31.538  -8.648 -22.514  0.00  0.00    +0.018 C 
ATOM     15  C   UNL     1      33.435  -6.619 -22.770  0.00  0.00    +0.045 C 
ATOM     16  C   UNL     1      31.190  -7.328 -22.227  0.00  0.00    +0.031 C 
ATOM     17  C   UNL     1      32.139  -6.314 -22.354  0.00  0.00    +0.141 C 
BRANCH  13  18
ATOM     18  N   UNL     1      35.101  -8.225 -23.476  0.00  0.00    -0.356 N 
ATOM     19  H   UNL     1      35.407  -7.936 -24.366  0.00  0.00    +0.142 HD
ATOM     20  H   UNL     1      35.714  -8.712 -22.878  0.00  0.00    +0.142 HD
ENDBRANCH  13  18
ENDBRANCH   8  12
ENDBRANCH   2   9
BRANCH   1  21
ATOM     21  C   UNL     1      34.826 -16.384 -24.585  0.00  0.00    +0.117 C 
BRANCH  21  23
ATOM     22  O   UNL     1      33.515 -18.913 -24.056  0.00  0.00    -0.270 OA
ATOM     23  N   UNL     1      35.134 -17.329 -23.535  0.00  0.00    -0.297 N 
ATOM     24  C   UNL     1      34.447 -18.519 -23.363  0.00  0.00    +0.246 C 
ATOM     25  H   UNL     1      35.868 -17.117 -22.914  0.00  0.00    +0.150 HD
BRANCH  24  26
ATOM     26  C   UNL     1      34.971 -19.299 -22.207  0.00  0.00    +0.058 C 
ATOM     27  C   UNL     1      34.119 -19.856 -21.334  0.00  0.00    +0.006 C 
BRANCH  27  29
ATOM     28  N   UNL     1      36.277 -21.389 -18.698  0.00  0.00    -0.242 NA
ATOM     29  C   UNL     1      34.525 -20.656 -20.164  0.00  0.00    +0.019 C 
ATOM     30  C   UNL     1      33.589 -21.387 -19.463  0.00  0.00    +0.003 C 
ATOM     31  C   UNL     1      35.839 -20.677 -19.762  0.00  0.00    +0.099 C 
ATOM     32  C   UNL     1      34.001 -22.132 -18.364  0.00  0.00    +0.021 C 
ATOM     33  C   UNL     1      35.344 -22.099 -18.026  0.00  0.00    +0.099 C 
ENDBRANCH  27  29
ENDBRANCH  24  26
ENDBRANCH  21  23
ENDBRANCH   1  21
TORSDOF 7
ENDMDL
MODEL 8
REMARK VINA RESULT:     -11.0      1.913      2.651
REMARK  Name = 12136798
REMARK  7 active torsions:
REMARK  status: ('A' for Active; 'I' for Inactive)
REMARK    1  A    between atoms: C_1  and  C_21
REMARK    2  A    between atoms: C_2  and  C_9
REMARK    3  A    between atoms: N_8  and  C_12
REMARK    4  A    between atoms: C_13  and  N_18
REMARK    5  A    between atoms: C_21  and  N_23
REMARK    6  A    between atoms: C_24  and  C_26
REMARK    7  A    between atoms: C_27  and  C_29
REMARK                            x       y       z     vdW  Elec       q    Type
REMARK                         _______ _______ _______ _____ _____    ______ ____
ROOT
ATOM      1  C   UNL     1      34.395 -16.333 -23.517  0.00  0.00    -0.003 C 
ATOM      2  C   UNL     1      33.515 -13.762 -22.932  0.00  0.00    +0.054 C 
ATOM      3  C   UNL     1      34.628 -15.797 -22.256  0.00  0.00    -0.002 C 
ATOM      4  C   UNL     1      33.728 -15.597 -24.489  0.00  0.00    -0.002 C 
ATOM      5  C   UNL     1      34.185 -14.507 -21.962  0.00  0.00    +0.004 C 
ATOM      6  C   UNL     1      33.286 -14.307 -24.195  0.00  0.00    +0.004 C 
ENDROOT
BRANCH   2   9
ATOM      7  O   UNL     1      32.136 -12.264 -21.807  0.00  0.00    -0.270 OA
ATOM      8  N   UNL     1      33.728 -11.377 -23.285  0.00  0.00    -0.279 N 
ATOM      9  C   UNL     1      33.055 -12.416 -22.627  0.00  0.00    +0.250 C 
ATOM     10  H   UNL     1      34.438 -11.654 -23.908  0.00  0.00    +0.155 HD
BRANCH   8  12
ATOM     11  F   UNL     1      32.847  -5.942 -22.806  0.00  0.00    -0.204 F 
ATOM     12  C   UNL     1      33.519  -9.980 -23.171  0.00  0.00    +0.064 C 
ATOM     13  C   UNL     1      34.480  -9.090 -23.620  0.00  0.00    +0.057 C 
ATOM     14  C   UNL     1      32.337  -9.538 -22.599  0.00  0.00    +0.018 C 
ATOM     15  C   UNL     1      34.252  -7.719 -23.497  0.00  0.00    +0.045 C 
ATOM     16  C   UNL     1      32.109  -8.167 -22.476  0.00  0.00    +0.031 C 
ATOM     17  C   UNL     1      33.067  -7.258 -22.924  0.00  0.00    +0.141 C 
BRANCH  13  18
ATOM     18  N   UNL     1      35.687  -9.534 -24.203  0.00  0.00    -0.356 N 
ATOM     19  H   UNL     1      36.534  -9.083 -23.985  0.00  0.00    +0.142 HD
ATOM     20  H   UNL     1      35.683 -10.296 -24.827  0.00  0.00    +0.142 HD
ENDBRANCH  13  18
ENDBRANCH   8  12
ENDBRANCH   2   9
BRANCH   1  21
ATOM     21  C   UNL     1      34.870 -17.722 -23.834  0.00  0.00    +0.117 C 
BRANCH  21  23
ATOM     22  O   UNL     1      37.148 -18.387 -22.172  0.00  0.00    -0.270 OA
ATOM     23  N   UNL     1      34.884 -18.570 -22.663  0.00  0.00    -0.297 N 
ATOM     24  C   UNL     1      36.030 -18.829 -21.930  0.00  0.00    +0.246 C 
ATOM     25  H   UNL     1      34.038 -18.983 -22.373  0.00  0.00    +0.150 HD
BRANCH  24  26
ATOM     26  C   UNL     1      35.758 -19.733 -20.777  0.00  0.00    +0.058 C 
ATOM     27  C   UNL     1      34.523 -20.220 -20.586  0.00  0.00    +0.006 C 
BRANCH  27  29
ATOM     28  N   UNL     1      32.404 -22.156 -18.195  0.00  0.00    -0.242 NA
ATOM     29  C   UNL     1      34.143 -21.128 -19.488  0.00  0.00    +0.019 C 
ATOM     30  C   UNL     1      35.115 -21.777 -18.757  0.00  0.00    +0.003 C 
ATOM     31  C   UNL     1      32.819 -21.336 -19.188  0.00  0.00    +0.099 C 
ATOM     32  C   UNL     1      34.728 -22.628 -17.727  0.00  0.00    +0.021 C 
ATOM     33  C   UNL     1      33.372 -22.782 -17.490  0.00  0.00    +0.099 C 
ENDBRANCH  27  29
ENDBRANCH  24  26
ENDBRANCH  21  23
ENDBRANCH   1  21
TORSDOF 7
ENDMDL
MODEL 9
REMARK VINA RESULT:     -10.9      6.067     12.462
REMARK  Name = 12136798
REMARK  7 active torsions:
REMARK  status: ('A' for Active; 'I' for Inactive)
REMARK    1  A    between atoms: C_1  and  C_21
REMARK    2  A    between atoms: C_2  and  C_9
REMARK    3  A    between atoms: N_8  and  C_12
REMARK    4  A    between atoms: C_13  and  N_18
REMARK    5  A    between atoms: C_21  and  N_23
REMARK    6  A    between atoms: C_24  and  C_26
REMARK    7  A    between atoms: C_27  and  C_29
REMARK                            x       y       z     vdW  Elec       q    Type
REMARK                         _______ _______ _______ _____ _____    ______ ____
ROOT
ATOM      1  C   UNL     1      35.848 -20.448 -19.980  0.00  0.00    -0.003 C 
ATOM      2  C   UNL     1      34.343 -22.208 -18.442  0.00  0.00    +0.054 C 
ATOM      3  C   UNL     1      34.475 -20.533 -20.178  0.00  0.00    -0.002 C 
ATOM      4  C   UNL     1      36.476 -21.234 -19.021  0.00  0.00    -0.002 C 
ATOM      5  C   UNL     1      33.719 -21.416 -19.406  0.00  0.00    +0.004 C 
ATOM      6  C   UNL     1      35.721 -22.117 -18.249  0.00  0.00    +0.004 C 
ENDROOT
BRANCH   2   9
ATOM      7  O   UNL     1      33.302 -24.258 -18.090  0.00  0.00    -0.270 OA
ATOM      8  N   UNL     1      33.162 -22.659 -16.378  0.00  0.00    -0.279 N 
ATOM      9  C   UNL     1      33.555 -23.130 -17.638  0.00  0.00    +0.250 C 
ATOM     10  H   UNL     1      33.438 -21.740 -16.159  0.00  0.00    +0.155 HD
BRANCH   8  12
ATOM     11  F   UNL     1      30.324 -25.305 -12.441  0.00  0.00    -0.204 F 
ATOM     12  C   UNL     1      32.417 -23.333 -15.378  0.00  0.00    +0.064 C 
ATOM     13  C   UNL     1      31.034 -23.356 -15.432  0.00  0.00    +0.057 C 
ATOM     14  C   UNL     1      33.111 -23.959 -14.354  0.00  0.00    +0.018 C 
ATOM     15  C   UNL     1      30.323 -24.026 -14.435  0.00  0.00    +0.045 C 
ATOM     16  C   UNL     1      32.400 -24.628 -13.359  0.00  0.00    +0.031 C 
ATOM     17  C   UNL     1      31.006 -24.661 -13.398  0.00  0.00    +0.141 C 
BRANCH  13  18
ATOM     18  N   UNL     1      30.321 -22.720 -16.472  0.00  0.00    -0.356 N 
ATOM     19  H   UNL     1      30.475 -21.766 -16.661  0.00  0.00    +0.142 HD
ATOM     20  H   UNL     1      29.671 -23.229 -17.008  0.00  0.00    +0.142 HD
ENDBRANCH  13  18
ENDBRANCH   8  12
ENDBRANCH   2   9
BRANCH   1  21
ATOM     21  C   UNL     1      36.661 -19.498 -20.809  0.00  0.00    +0.117 C 
BRANCH  21  23
ATOM     22  O   UNL     1      35.344 -19.832 -23.368  0.00  0.00    -0.270 OA
ATOM     23  N   UNL     1      35.832 -18.536 -21.501  0.00  0.00    -0.297 N 
ATOM     24  C   UNL     1      35.243 -18.790 -22.728  0.00  0.00    +0.246 C 
ATOM     25  H   UNL     1      35.681 -17.659 -21.080  0.00  0.00    +0.150 HD
BRANCH  24  26
ATOM     26  C   UNL     1      34.444 -17.628 -23.210  0.00  0.00    +0.058 C 
ATOM     27  C   UNL     1      35.056 -16.469 -23.498  0.00  0.00    +0.006 C 
BRANCH  27  29
ATOM     28  N   UNL     1      33.135 -14.185 -25.743  0.00  0.00    -0.242 NA
ATOM     29  C   UNL     1      34.370 -15.262 -23.991  0.00  0.00    +0.019 C 
ATOM     30  C   UNL     1      34.313 -14.127 -23.209  0.00  0.00    +0.003 C 
ATOM     31  C   UNL     1      33.780 -15.258 -25.232  0.00  0.00    +0.099 C 
ATOM     32  C   UNL     1      33.659 -13.002 -23.701  0.00  0.00    +0.021 C 
ATOM     33  C   UNL     1      33.091 -13.082 -24.962  0.00  0.00    +0.099 C 
ENDBRANCH  27  29
ENDBRANCH  24  26
ENDBRANCH  21  23
ENDBRANCH   1  21
TORSDOF 7
ENDMDL
