MODEL 1
REMARK VINA RESULT:     -12.0      0.000      0.000
REMARK  Name = 6102777
REMARK  2 active torsions:
REMARK  status: ('A' for Active; 'I' for Inactive)
REMARK    1  A    between atoms: C_4  and  S_16
REMARK    2  A    between atoms: S_16  and  N_19
REMARK                            x       y       z     vdW  Elec       q    Type
REMARK                         _______ _______ _______ _____ _____    ______ ____
ROOT
ATOM      1  O   UNL     1      36.694 -20.825 -18.885  0.00  0.00    -0.453 OA
ATOM      2  O   UNL     1      32.774 -21.990 -18.731  0.00  0.00    -0.286 OA
ATOM      3  C   UNL     1      34.913 -22.049 -17.747  0.00  0.00    +0.075 A 
ATOM      4  C   UNL     1      35.460 -23.225 -15.712  0.00  0.00    +0.126 C 
ATOM      5  C   UNL     1      36.234 -21.616 -17.861  0.00  0.00    +0.148 A 
ATOM      6  C   UNL     1      34.521 -22.853 -16.674  0.00  0.00    +0.026 C 
ATOM      7  C   UNL     1      34.457 -20.794 -19.864  0.00  0.00    +0.074 A 
ATOM      8  C   UNL     1      33.945 -21.642 -18.776  0.00  0.00    +0.201 A 
ATOM      9  C   UNL     1      35.804 -20.434 -19.855  0.00  0.00    +0.148 A 
ATOM     10  C   UNL     1      36.783 -22.796 -15.822  0.00  0.00    +0.023 C 
ATOM     11  C   UNL     1      37.170 -21.992 -16.895  0.00  0.00    +0.039 C 
ATOM     12  C   UNL     1      33.612 -20.356 -20.886  0.00  0.00    +0.006 C 
ATOM     13  C   UNL     1      36.312 -19.630 -20.878  0.00  0.00    +0.038 C 
ATOM     14  C   UNL     1      34.125 -19.553 -21.906  0.00  0.00    +0.000 C 
ATOM     15  C   UNL     1      35.471 -19.191 -21.902  0.00  0.00    +0.003 C 
ENDROOT
BRANCH   4  16
ATOM     16  S   UNL     1      34.980 -24.231 -14.367  0.00  0.00    +0.081 S 
ATOM     17  O   UNL     1      33.549 -24.051 -14.154  0.00  0.00    -0.149 OA
ATOM     18  O   UNL     1      35.510 -25.569 -14.591  0.00  0.00    -0.149 OA
BRANCH  16  19
ATOM     19  N   UNL     1      35.832 -23.499 -13.081  0.00  0.00    -0.156 N 
ATOM     20  N   UNL     1      36.476 -23.310 -10.770  0.00  0.00    -0.094 NA
ATOM     21  N   UNL     1      35.042 -24.974 -11.322  0.00  0.00    -0.071 NA
ATOM     22  N   UNL     1      36.097 -24.072  -9.734  0.00  0.00    -0.139 N 
ATOM     23  N   UNL     1      35.247 -25.069 -10.015  0.00  0.00    -0.020 NA
ATOM     24  C   UNL     1      35.790 -23.918 -11.730  0.00  0.00    +0.145 C 
ATOM     25  H   UNL     1      36.400 -22.723 -13.297  0.00  0.00    +0.186 HD
ATOM     26  H   UNL     1      36.423 -23.907  -8.819  0.00  0.00    +0.197 HD
ENDBRANCH  16  19
ENDBRANCH   4  16
TORSDOF 2
ENDMDL
MODEL 2
REMARK VINA RESULT:     -11.8      2.872      4.237
REMARK  Name = 6102777
REMARK  2 active torsions:
REMARK  status: ('A' for Active; 'I' for Inactive)
REMARK    1  A    between atoms: C_4  and  S_16
REMARK    2  A    between atoms: S_16  and  N_19
REMARK                            x       y       z     vdW  Elec       q    Type
REMARK                         _______ _______ _______ _____ _____    ______ ____
ROOT
ATOM      1  O   UNL     1      33.679 -23.167 -16.146  0.00  0.00    -0.453 OA
ATOM      2  O   UNL     1      37.621 -22.078 -16.283  0.00  0.00    -0.286 OA
ATOM      3  C   UNL     1      35.863 -23.056 -15.059  0.00  0.00    +0.075 A 
ATOM      4  C   UNL     1      36.071 -23.947 -12.826  0.00  0.00    +0.126 C 
ATOM      5  C   UNL     1      34.512 -23.401 -15.080  0.00  0.00    +0.148 A 
ATOM      6  C   UNL     1      36.647 -23.327 -13.935  0.00  0.00    +0.026 C 
ATOM      7  C   UNL     1      35.536 -22.164 -17.375  0.00  0.00    +0.074 A 
ATOM      8  C   UNL     1      36.444 -22.404 -16.242  0.00  0.00    +0.201 A 
ATOM      9  C   UNL     1      34.204 -22.559 -17.261  0.00  0.00    +0.148 A 
ATOM     10  C   UNL     1      34.719 -24.292 -12.841  0.00  0.00    +0.023 C 
ATOM     11  C   UNL     1      33.940 -24.020 -13.966  0.00  0.00    +0.039 C 
ATOM     12  C   UNL     1      35.997 -21.550 -18.542  0.00  0.00    +0.006 C 
ATOM     13  C   UNL     1      33.324 -22.341 -18.323  0.00  0.00    +0.038 C 
ATOM     14  C   UNL     1      35.113 -21.334 -19.600  0.00  0.00    +0.000 C 
ATOM     15  C   UNL     1      33.780 -21.728 -19.491  0.00  0.00    +0.003 C 
ENDROOT
BRANCH   4  16
ATOM     16  S   UNL     1      37.042 -24.290 -11.415  0.00  0.00    +0.081 S 
ATOM     17  O   UNL     1      36.935 -23.157 -10.504  0.00  0.00    -0.149 OA
ATOM     18  O   UNL     1      36.699 -25.625 -10.944  0.00  0.00    -0.149 OA
BRANCH  16  19
ATOM     19  N   UNL     1      38.611 -24.320 -12.088  0.00  0.00    -0.156 N 
ATOM     20  N   UNL     1      40.313 -25.246 -13.515  0.00  0.00    -0.094 NA
ATOM     21  N   UNL     1      38.298 -26.280 -13.485  0.00  0.00    -0.071 NA
ATOM     22  N   UNL     1      40.236 -26.317 -14.319  0.00  0.00    -0.139 N 
ATOM     23  N   UNL     1      39.061 -26.961 -14.332  0.00  0.00    -0.020 NA
ATOM     24  C   UNL     1      39.079 -25.272 -13.024  0.00  0.00    +0.145 C 
ATOM     25  H   UNL     1      39.240 -23.618 -11.802  0.00  0.00    +0.186 HD
ATOM     26  H   UNL     1      40.999 -26.612 -14.866  0.00  0.00    +0.197 HD
ENDBRANCH  16  19
ENDBRANCH   4  16
TORSDOF 2
ENDMDL
MODEL 3
REMARK VINA RESULT:     -11.5      0.992      2.255
REMARK  Name = 6102777
REMARK  2 active torsions:
REMARK  status: ('A' for Active; 'I' for Inactive)
REMARK    1  A    between atoms: C_4  and  S_16
REMARK    2  A    between atoms: S_16  and  N_19
REMARK                            x       y       z     vdW  Elec       q    Type
REMARK                         _______ _______ _______ _____ _____    ______ ____
ROOT
ATOM      1  O   UNL     1      32.828 -21.458 -19.015  0.00  0.00    -0.453 OA
ATOM      2  O   UNL     1      36.817 -21.761 -18.154  0.00  0.00    -0.286 OA
ATOM      3  C   UNL     1      34.602 -22.296 -17.561  0.00  0.00    +0.075 A 
ATOM      4  C   UNL     1      33.972 -23.604 -15.632  0.00  0.00    +0.126 C 
ATOM      5  C   UNL     1      33.260 -22.153 -17.912  0.00  0.00    +0.148 A 
ATOM      6  C   UNL     1      34.963 -23.021 -16.422  0.00  0.00    +0.026 C 
ATOM      7  C   UNL     1      35.143 -20.932 -19.588  0.00  0.00    +0.074 A 
ATOM      8  C   UNL     1      35.625 -21.671 -18.412  0.00  0.00    +0.201 A 
ATOM      9  C   UNL     1      33.769 -20.867 -19.822  0.00  0.00    +0.148 A 
ATOM     10  C   UNL     1      32.628 -23.462 -15.979  0.00  0.00    +0.023 C 
ATOM     11  C   UNL     1      32.271 -22.738 -17.117  0.00  0.00    +0.039 C 
ATOM     12  C   UNL     1      36.041 -20.305 -20.456  0.00  0.00    +0.006 C 
ATOM     13  C   UNL     1      33.289 -20.171 -20.932  0.00  0.00    +0.038 C 
ATOM     14  C   UNL     1      35.554 -19.610 -21.563  0.00  0.00    +0.000 C 
ATOM     15  C   UNL     1      34.182 -19.542 -21.802  0.00  0.00    +0.003 C 
ENDROOT
BRANCH   4  16
ATOM     16  S   UNL     1      34.413 -24.511 -14.207  0.00  0.00    +0.081 S 
ATOM     17  O   UNL     1      33.201 -24.764 -13.437  0.00  0.00    -0.149 OA
ATOM     18  O   UNL     1      35.246 -25.631 -14.623  0.00  0.00    -0.149 OA
BRANCH  16  19
ATOM     19  N   UNL     1      35.378 -23.375 -13.373  0.00  0.00    -0.156 N 
ATOM     20  N   UNL     1      36.753 -22.679 -11.525  0.00  0.00    -0.094 NA
ATOM     21  N   UNL     1      35.906 -24.779 -11.464  0.00  0.00    -0.071 NA
ATOM     22  N   UNL     1      37.101 -23.377 -10.434  0.00  0.00    -0.139 N 
ATOM     23  N   UNL     1      36.620 -24.626 -10.356  0.00  0.00    -0.020 NA
ATOM     24  C   UNL     1      36.012 -23.601 -12.128  0.00  0.00    +0.145 C 
ATOM     25  H   UNL     1      35.503 -22.493 -13.792  0.00  0.00    +0.186 HD
ATOM     26  H   UNL     1      37.674 -22.994  -9.732  0.00  0.00    +0.197 HD
ENDBRANCH  16  19
ENDBRANCH   4  16
TORSDOF 2
ENDMDL
MODEL 4
REMARK VINA RESULT:     -11.4      2.073      2.491
REMARK  Name = 6102777
REMARK  2 active torsions:
REMARK  status: ('A' for Active; 'I' for Inactive)
REMARK    1  A    between atoms: C_4  and  S_16
REMARK    2  A    between atoms: S_16  and  N_19
REMARK                            x       y       z     vdW  Elec       q    Type
REMARK                         _______ _______ _______ _____ _____    ______ ____
ROOT
ATOM      1  O   UNL     1      36.588 -20.899 -18.815  0.00  0.00    -0.453 OA
ATOM      2  O   UNL     1      32.777 -22.293 -18.285  0.00  0.00    -0.286 OA
ATOM      3  C   UNL     1      34.998 -22.212 -17.505  0.00  0.00    +0.075 A 
ATOM      4  C   UNL     1      35.801 -23.327 -15.522  0.00  0.00    +0.126 C 
ATOM      5  C   UNL     1      36.274 -21.703 -17.746  0.00  0.00    +0.148 A 
ATOM      6  C   UNL     1      34.756 -23.024 -16.395  0.00  0.00    +0.026 C 
ATOM      7  C   UNL     1      34.271 -21.013 -19.579  0.00  0.00    +0.074 A 
ATOM      8  C   UNL     1      33.915 -21.876 -18.442  0.00  0.00    +0.201 A 
ATOM      9  C   UNL     1      35.589 -20.574 -19.700  0.00  0.00    +0.148 A 
ATOM     10  C   UNL     1      37.079 -22.821 -15.759  0.00  0.00    +0.023 C 
ATOM     11  C   UNL     1      37.316 -22.010 -16.869  0.00  0.00    +0.039 C 
ATOM     12  C   UNL     1      33.309 -20.640 -20.521  0.00  0.00    +0.006 C 
ATOM     13  C   UNL     1      35.950 -19.755 -20.771  0.00  0.00    +0.038 C 
ATOM     14  C   UNL     1      33.676 -19.821 -21.590  0.00  0.00    +0.000 C 
ATOM     15  C   UNL     1      34.993 -19.380 -21.716  0.00  0.00    +0.003 C 
ENDROOT
BRANCH   4  16
ATOM     16  S   UNL     1      35.510 -24.341 -14.130  0.00  0.00    +0.081 S 
ATOM     17  O   UNL     1      35.996 -23.641 -12.948  0.00  0.00    -0.149 OA
ATOM     18  O   UNL     1      34.125 -24.791 -14.180  0.00  0.00    -0.149 OA
BRANCH  16  19
ATOM     19  N   UNL     1      36.539 -25.663 -14.459  0.00  0.00    -0.156 N 
ATOM     20  N   UNL     1      38.665 -26.791 -14.400  0.00  0.00    -0.094 NA
ATOM     21  N   UNL     1      38.553 -24.723 -13.481  0.00  0.00    -0.071 NA
ATOM     22  N   UNL     1      39.825 -26.357 -13.885  0.00  0.00    -0.139 N 
ATOM     23  N   UNL     1      39.805 -25.137 -13.331  0.00  0.00    -0.020 NA
ATOM     24  C   UNL     1      37.911 -25.734 -14.119  0.00  0.00    +0.145 C 
ATOM     25  H   UNL     1      36.147 -26.439 -14.922  0.00  0.00    +0.186 HD
ATOM     26  H   UNL     1      40.643 -26.904 -13.913  0.00  0.00    +0.197 HD
ENDBRANCH  16  19
ENDBRANCH   4  16
TORSDOF 2
ENDMDL
MODEL 5
REMARK VINA RESULT:     -11.2      4.383      5.975
REMARK  Name = 6102777
REMARK  2 active torsions:
REMARK  status: ('A' for Active; 'I' for Inactive)
REMARK    1  A    between atoms: C_4  and  S_16
REMARK    2  A    between atoms: S_16  and  N_19
REMARK                            x       y       z     vdW  Elec       q    Type
REMARK                         _______ _______ _______ _____ _____    ______ ____
ROOT
ATOM      1  O   UNL     1      32.565 -22.878 -15.593  0.00  0.00    -0.453 OA
ATOM      2  O   UNL     1      31.383 -25.369 -12.568  0.00  0.00    -0.286 OA
ATOM      3  C   UNL     1      33.142 -24.226 -13.640  0.00  0.00    +0.075 A 
ATOM      4  C   UNL     1      35.452 -24.297 -12.946  0.00  0.00    +0.126 C 
ATOM      5  C   UNL     1      33.475 -23.375 -14.693  0.00  0.00    +0.148 A 
ATOM      6  C   UNL     1      34.126 -24.691 -12.763  0.00  0.00    +0.026 C 
ATOM      7  C   UNL     1      30.776 -24.081 -14.444  0.00  0.00    +0.074 A 
ATOM      8  C   UNL     1      31.736 -24.624 -13.471  0.00  0.00    +0.201 A 
ATOM      9  C   UNL     1      31.247 -23.238 -15.451  0.00  0.00    +0.148 A 
ATOM     10  C   UNL     1      35.791 -23.446 -13.998  0.00  0.00    +0.023 C 
ATOM     11  C   UNL     1      34.804 -22.985 -14.871  0.00  0.00    +0.039 C 
ATOM     12  C   UNL     1      29.419 -24.402 -14.365  0.00  0.00    +0.006 C 
ATOM     13  C   UNL     1      30.354 -22.711 -16.386  0.00  0.00    +0.038 C 
ATOM     14  C   UNL     1      28.531 -23.873 -15.302  0.00  0.00    +0.000 C 
ATOM     15  C   UNL     1      28.997 -23.029 -16.310  0.00  0.00    +0.003 C 
ENDROOT
BRANCH   4  16
ATOM     16  S   UNL     1      36.690 -24.872 -11.857  0.00  0.00    +0.081 S 
ATOM     17  O   UNL     1      37.600 -23.767 -11.581  0.00  0.00    -0.149 OA
ATOM     18  O   UNL     1      36.037 -25.558 -10.750  0.00  0.00    -0.149 OA
BRANCH  16  19
ATOM     19  N   UNL     1      37.489 -26.022 -12.835  0.00  0.00    -0.156 N 
ATOM     20  N   UNL     1      39.324 -26.767 -14.202  0.00  0.00    -0.094 NA
ATOM     21  N   UNL     1      39.459 -24.687 -13.315  0.00  0.00    -0.071 NA
ATOM     22  N   UNL     1      40.447 -26.108 -14.522  0.00  0.00    -0.139 N 
ATOM     23  N   UNL     1      40.569 -24.872 -14.019  0.00  0.00    -0.020 NA
ATOM     24  C   UNL     1      38.749 -25.835 -13.451  0.00  0.00    +0.145 C 
ATOM     25  H   UNL     1      37.036 -26.884 -12.982  0.00  0.00    +0.186 HD
ATOM     26  H   UNL     1      41.141 -26.509 -15.093  0.00  0.00    +0.197 HD
ENDBRANCH  16  19
ENDBRANCH   4  16
TORSDOF 2
ENDMDL
MODEL 6
REMARK VINA RESULT:     -11.1      3.955      6.050
REMARK  Name = 6102777
REMARK  2 active torsions:
REMARK  status: ('A' for Active; 'I' for Inactive)
REMARK    1  A    between atoms: C_4  and  S_16
REMARK    2  A    between atoms: S_16  and  N_19
REMARK                            x       y       z     vdW  Elec       q    Type
REMARK                         _______ _______ _______ _____ _____    ______ ____
ROOT
ATOM      1  O   UNL     1      31.793 -23.111 -16.644  0.00  0.00    -0.453 OA
ATOM      2  O   UNL     1      32.608 -24.711 -12.967  0.00  0.00    -0.286 OA
ATOM      3  C   UNL     1      33.428 -23.694 -14.926  0.00  0.00    +0.075 A 
ATOM      4  C   UNL     1      35.751 -23.194 -15.347  0.00  0.00    +0.126 C 
ATOM      5  C   UNL     1      33.080 -23.163 -16.168  0.00  0.00    +0.148 A 
ATOM      6  C   UNL     1      34.762 -23.711 -14.511  0.00  0.00    +0.026 C 
ATOM      7  C   UNL     1      30.993 -24.167 -14.592  0.00  0.00    +0.074 A 
ATOM      8  C   UNL     1      32.364 -24.232 -14.065  0.00  0.00    +0.201 A 
ATOM      9  C   UNL     1      30.786 -23.609 -15.854  0.00  0.00    +0.148 A 
ATOM     10  C   UNL     1      35.408 -22.663 -16.591  0.00  0.00    +0.023 C 
ATOM     11  C   UNL     1      34.075 -22.647 -17.002  0.00  0.00    +0.039 C 
ATOM     12  C   UNL     1      29.916 -24.653 -13.846  0.00  0.00    +0.006 C 
ATOM     13  C   UNL     1      29.493 -23.536 -16.374  0.00  0.00    +0.038 C 
ATOM     14  C   UNL     1      28.626 -24.578 -14.372  0.00  0.00    +0.000 C 
ATOM     15  C   UNL     1      28.414 -24.021 -15.633  0.00  0.00    +0.003 C 
ENDROOT
BRANCH   4  16
ATOM     16  S   UNL     1      37.421 -23.211 -14.838  0.00  0.00    +0.081 S 
ATOM     17  O   UNL     1      38.228 -22.641 -15.910  0.00  0.00    -0.149 OA
ATOM     18  O   UNL     1      37.493 -22.636 -13.502  0.00  0.00    -0.149 OA
BRANCH  16  19
ATOM     19  N   UNL     1      37.725 -24.888 -14.742  0.00  0.00    -0.156 N 
ATOM     20  N   UNL     1      39.148 -26.790 -14.358  0.00  0.00    -0.094 NA
ATOM     21  N   UNL     1      40.073 -24.733 -14.147  0.00  0.00    -0.071 NA
ATOM     22  N   UNL     1      40.448 -26.806 -14.026  0.00  0.00    -0.139 N 
ATOM     23  N   UNL     1      41.036 -25.609 -13.891  0.00  0.00    -0.020 NA
ATOM     24  C   UNL     1      38.971 -25.476 -14.419  0.00  0.00    +0.145 C 
ATOM     25  H   UNL     1      36.971 -25.496 -14.927  0.00  0.00    +0.186 HD
ATOM     26  H   UNL     1      40.940 -27.647 -13.890  0.00  0.00    +0.197 HD
ENDBRANCH  16  19
ENDBRANCH   4  16
TORSDOF 2
ENDMDL
MODEL 7
REMARK VINA RESULT:     -11.0      5.565      7.962
REMARK  Name = 6102777
REMARK  2 active torsions:
REMARK  status: ('A' for Active; 'I' for Inactive)
REMARK    1  A    between atoms: C_4  and  S_16
REMARK    2  A    between atoms: S_16  and  N_19
REMARK                            x       y       z     vdW  Elec       q    Type
REMARK                         _______ _______ _______ _____ _____    ______ ____
ROOT
ATOM      1  O   UNL     1      35.102 -23.538 -15.839  0.00  0.00    -0.453 OA
ATOM      2  O   UNL     1      33.685 -24.621 -12.156  0.00  0.00    -0.286 OA
ATOM      3  C   UNL     1      33.208 -23.851 -14.330  0.00  0.00    +0.075 A 
ATOM      4  C   UNL     1      30.996 -23.356 -15.159  0.00  0.00    +0.126 C 
ATOM      5  C   UNL     1      33.758 -23.496 -15.561  0.00  0.00    +0.148 A 
ATOM      6  C   UNL     1      31.828 -23.783 -14.123  0.00  0.00    +0.026 C 
ATOM      7  C   UNL     1      35.544 -24.336 -13.574  0.00  0.00    +0.074 A 
ATOM      8  C   UNL     1      34.108 -24.298 -13.256  0.00  0.00    +0.201 A 
ATOM      9  C   UNL     1      35.959 -23.953 -14.849  0.00  0.00    +0.148 A 
ATOM     10  C   UNL     1      31.542 -22.999 -16.392  0.00  0.00    +0.023 C 
ATOM     11  C   UNL     1      32.921 -23.069 -16.594  0.00  0.00    +0.039 C 
ATOM     12  C   UNL     1      36.476 -24.748 -12.618  0.00  0.00    +0.006 C 
ATOM     13  C   UNL     1      37.317 -23.981 -15.172  0.00  0.00    +0.038 C 
ATOM     14  C   UNL     1      37.832 -24.773 -12.947  0.00  0.00    +0.000 C 
ATOM     15  C   UNL     1      38.252 -24.391 -14.221  0.00  0.00    +0.003 C 
ENDROOT
BRANCH   4  16
ATOM     16  S   UNL     1      29.270 -23.267 -14.912  0.00  0.00    +0.081 S 
ATOM     17  O   UNL     1      28.821 -24.547 -14.378  0.00  0.00    -0.149 OA
ATOM     18  O   UNL     1      28.980 -22.042 -14.178  0.00  0.00    -0.149 OA
BRANCH  16  19
ATOM     19  N   UNL     1      28.710 -23.104 -16.516  0.00  0.00    -0.156 N 
ATOM     20  N   UNL     1      27.090 -22.426 -18.162  0.00  0.00    -0.094 NA
ATOM     21  N   UNL     1      26.595 -22.035 -15.987  0.00  0.00    -0.071 NA
ATOM     22  N   UNL     1      25.904 -21.832 -17.970  0.00  0.00    -0.139 N 
ATOM     23  N   UNL     1      25.569 -21.583 -16.696  0.00  0.00    -0.020 NA
ATOM     24  C   UNL     1      27.474 -22.527 -16.895  0.00  0.00    +0.145 C 
ATOM     25  H   UNL     1      29.293 -23.439 -17.236  0.00  0.00    +0.186 HD
ATOM     26  H   UNL     1      25.313 -21.594 -18.720  0.00  0.00    +0.197 HD
ENDBRANCH  16  19
ENDBRANCH   4  16
TORSDOF 2
ENDMDL
MODEL 8
REMARK VINA RESULT:     -11.0      2.277      2.739
REMARK  Name = 6102777
REMARK  2 active torsions:
REMARK  status: ('A' for Active; 'I' for Inactive)
REMARK    1  A    between atoms: C_4  and  S_16
REMARK    2  A    between atoms: S_16  and  N_19
REMARK                            x       y       z     vdW  Elec       q    Type
REMARK                         _______ _______ _______ _____ _____    ______ ____
ROOT
ATOM      1  O   UNL     1      36.877 -20.429 -19.248  0.00  0.00    -0.453 OA
ATOM      2  O   UNL     1      32.960 -21.582 -19.518  0.00  0.00    -0.286 OA
ATOM      3  C   UNL     1      34.992 -21.681 -18.330  0.00  0.00    +0.075 A 
ATOM      4  C   UNL     1      35.333 -22.923 -16.289  0.00  0.00    +0.126 C 
ATOM      5  C   UNL     1      36.318 -21.250 -18.300  0.00  0.00    +0.148 A 
ATOM      6  C   UNL     1      34.494 -22.517 -17.328  0.00  0.00    +0.026 C 
ATOM      7  C   UNL     1      34.747 -20.358 -20.441  0.00  0.00    +0.074 A 
ATOM      8  C   UNL     1      34.130 -21.237 -19.436  0.00  0.00    +0.201 A 
ATOM      9  C   UNL     1      36.088 -20.004 -20.288  0.00  0.00    +0.148 A 
ATOM     10  C   UNL     1      36.661 -22.496 -16.255  0.00  0.00    +0.023 C 
ATOM     11  C   UNL     1      37.153 -21.660 -17.259  0.00  0.00    +0.039 C 
ATOM     12  C   UNL     1      34.008 -19.885 -21.527  0.00  0.00    +0.006 C 
ATOM     13  C   UNL     1      36.695 -19.170 -21.229  0.00  0.00    +0.038 C 
ATOM     14  C   UNL     1      34.620 -19.052 -22.465  0.00  0.00    +0.000 C 
ATOM     15  C   UNL     1      35.960 -18.695 -22.317  0.00  0.00    +0.003 C 
ENDROOT
BRANCH   4  16
ATOM     16  S   UNL     1      34.722 -23.968 -15.031  0.00  0.00    +0.081 S 
ATOM     17  O   UNL     1      35.076 -25.341 -15.369  0.00  0.00    -0.149 OA
ATOM     18  O   UNL     1      35.131 -23.417 -13.746  0.00  0.00    -0.149 OA
BRANCH  16  19
ATOM     19  N   UNL     1      33.037 -23.765 -15.217  0.00  0.00    -0.156 N 
ATOM     20  N   UNL     1      30.755 -24.021 -14.495  0.00  0.00    -0.094 NA
ATOM     21  N   UNL     1      32.376 -24.856 -13.151  0.00  0.00    -0.071 NA
ATOM     22  N   UNL     1      30.294 -24.603 -13.379  0.00  0.00    -0.139 N 
ATOM     23  N   UNL     1      31.219 -25.113 -12.554  0.00  0.00    -0.020 NA
ATOM     24  C   UNL     1      32.055 -24.208 -14.299  0.00  0.00    +0.145 C 
ATOM     25  H   UNL     1      32.723 -23.301 -16.027  0.00  0.00    +0.186 HD
ATOM     26  H   UNL     1      29.332 -24.653 -13.178  0.00  0.00    +0.197 HD
ENDBRANCH  16  19
ENDBRANCH   4  16
TORSDOF 2
ENDMDL
MODEL 9
REMARK VINA RESULT:     -11.0      5.097      7.401
REMARK  Name = 6102777
REMARK  2 active torsions:
REMARK  status: ('A' for Active; 'I' for Inactive)
REMARK    1  A    between atoms: C_4  and  S_16
REMARK    2  A    between atoms: S_16  and  N_19
REMARK                            x       y       z     vdW  Elec       q    Type
REMARK                         _______ _______ _______ _____ _____    ______ ____
ROOT
ATOM      1  O   UNL     1      36.455 -24.009 -15.444  0.00  0.00    -0.453 OA
ATOM      2  O   UNL     1      35.676 -25.448 -11.693  0.00  0.00    -0.286 OA
ATOM      3  C   UNL     1      34.839 -24.503 -13.681  0.00  0.00    +0.075 A 
ATOM      4  C   UNL     1      32.515 -23.994 -14.090  0.00  0.00    +0.126 C 
ATOM      5  C   UNL     1      35.175 -24.027 -14.948  0.00  0.00    +0.148 A 
ATOM      6  C   UNL     1      33.511 -24.489 -13.247  0.00  0.00    +0.026 C 
ATOM      7  C   UNL     1      37.273 -24.992 -13.363  0.00  0.00    +0.074 A 
ATOM      8  C   UNL     1      35.909 -25.019 -12.814  0.00  0.00    +0.201 A 
ATOM      9  C   UNL     1      37.467 -24.487 -14.649  0.00  0.00    +0.148 A 
ATOM     10  C   UNL     1      32.846 -23.516 -15.358  0.00  0.00    +0.023 C 
ATOM     11  C   UNL     1      34.174 -23.532 -15.787  0.00  0.00    +0.039 C 
ATOM     12  C   UNL     1      38.354 -25.462 -12.614  0.00  0.00    +0.006 C 
ATOM     13  C   UNL     1      38.754 -24.452 -15.190  0.00  0.00    +0.038 C 
ATOM     14  C   UNL     1      39.638 -25.423 -13.160  0.00  0.00    +0.000 C 
ATOM     15  C   UNL     1      39.837 -24.920 -14.445  0.00  0.00    +0.003 C 
ENDROOT
BRANCH   4  16
ATOM     16  S   UNL     1      30.852 -23.972 -13.557  0.00  0.00    +0.081 S 
ATOM     17  O   UNL     1      30.278 -25.288 -13.806  0.00  0.00    -0.149 OA
ATOM     18  O   UNL     1      30.816 -23.415 -12.211  0.00  0.00    -0.149 OA
BRANCH  16  19
ATOM     19  N   UNL     1      30.167 -22.849 -14.645  0.00  0.00    -0.156 N 
ATOM     20  N   UNL     1      28.703 -22.238 -16.454  0.00  0.00    -0.094 NA
ATOM     21  N   UNL     1      28.719 -24.410 -15.811  0.00  0.00    -0.071 NA
ATOM     22  N   UNL     1      27.871 -23.022 -17.155  0.00  0.00    -0.139 N 
ATOM     23  N   UNL     1      27.849 -24.316 -16.809  0.00  0.00    -0.020 NA
ATOM     24  C   UNL     1      29.202 -23.154 -15.634  0.00  0.00    +0.145 C 
ATOM     25  H   UNL     1      30.468 -21.913 -14.580  0.00  0.00    +0.186 HD
ATOM     26  H   UNL     1      27.310 -22.667 -17.882  0.00  0.00    +0.197 HD
ENDBRANCH  16  19
ENDBRANCH   4  16
TORSDOF 2
ENDMDL
