MODEL 1
REMARK VINA RESULT:     -11.5      0.000      0.000
REMARK  Name = 44814409
REMARK  5 active torsions:
REMARK  status: ('A' for Active; 'I' for Inactive)
REMARK    1  A    between atoms: N_2  and  C_22
REMARK    2  A    between atoms: C_3  and  C_7
REMARK    3  A    between atoms: C_9  and  C_14
REMARK    4  A    between atoms: C_21  and  C_26
REMARK    5  A    between atoms: C_29  and  N_33
REMARK                            x       y       z     vdW  Elec       q    Type
REMARK                         _______ _______ _______ _____ _____    ______ ____
ROOT
ATOM      1  O   UNL     1      32.646 -22.210 -19.313  0.00  0.00    -0.267 OA
ATOM      2  N   UNL     1      33.819 -22.303 -17.277  0.00  0.00    -0.278 N 
ATOM      3  C   UNL     1      33.639 -21.983 -18.630  0.00  0.00    +0.275 C 
ATOM      4  H   UNL     1      34.684 -22.044 -16.884  0.00  0.00    +0.155 HD
ENDROOT
BRANCH   3   7
ATOM      5  F   UNL     1      37.774 -19.239 -21.122  0.00  0.00    -0.202 F 
ATOM      6  N   UNL     1      34.440 -20.375 -20.229  0.00  0.00    -0.399 NA
ATOM      7  C   UNL     1      34.774 -21.270 -19.273  0.00  0.00    +0.167 C 
ATOM      8  C   UNL     1      36.077 -21.540 -18.884  0.00  0.00    +0.092 C 
ATOM      9  C   UNL     1      35.462 -19.719 -20.820  0.00  0.00    +0.162 C 
ATOM     10  C   UNL     1      37.101 -20.845 -19.517  0.00  0.00    +0.014 C 
ATOM     11  C   UNL     1      36.797 -19.915 -20.505  0.00  0.00    +0.166 C 
BRANCH   9  14
ATOM     12  F   UNL     1      34.818 -20.516 -23.431  0.00  0.00    -0.204 F 
ATOM     13  F   UNL     1      35.294 -16.968 -20.299  0.00  0.00    -0.204 F 
ATOM     14  C   UNL     1      35.067 -18.770 -21.836  0.00  0.00    +0.087 C 
ATOM     15  C   UNL     1      34.756 -19.213 -23.121  0.00  0.00    +0.145 C 
ATOM     16  C   UNL     1      34.996 -17.411 -21.529  0.00  0.00    +0.145 C 
ATOM     17  C   UNL     1      34.373 -18.296 -24.100  0.00  0.00    +0.030 C 
ATOM     18  C   UNL     1      34.615 -16.493 -22.509  0.00  0.00    +0.030 C 
ATOM     19  C   UNL     1      34.304 -16.937 -23.795  0.00  0.00    +0.005 C 
ENDBRANCH   9  14
ENDBRANCH   3   7
BRANCH   2  22
ATOM     20  N   UNL     1      30.625 -23.439 -15.861  0.00  0.00    -0.241 NA
ATOM     21  C   UNL     1      33.358 -23.684 -15.327  0.00  0.00    -0.006 C 
ATOM     22  C   UNL     1      32.924 -22.941 -16.419  0.00  0.00    +0.066 C 
ATOM     23  C   UNL     1      32.427 -24.305 -14.501  0.00  0.00    +0.018 C 
ATOM     24  C   UNL     1      31.560 -22.851 -16.641  0.00  0.00    +0.113 C 
ATOM     25  C   UNL     1      31.085 -24.153 -14.809  0.00  0.00    +0.099 C 
BRANCH  21  26
ATOM     26  C   UNL     1      34.814 -23.833 -15.019  0.00  0.00    +0.022 C 
ATOM     27  C   UNL     1      36.693 -25.513 -14.693  0.00  0.00    -0.002 C 
ATOM     28  C   UNL     1      35.215 -25.319 -15.065  0.00  0.00    +0.004 C 
ATOM     29  C   UNL     1      36.606 -23.411 -13.276  0.00  0.00    -0.065 C 
ATOM     30  C   UNL     1      35.128 -23.219 -13.643  0.00  0.00    -0.017 C 
ATOM     31  C   UNL     1      36.998 -24.892 -13.322  0.00  0.00    -0.022 C 
ATOM     32  C   UNL     1      37.058 -26.997 -14.706  0.00  0.00    -0.000 C 
BRANCH  29  33
ATOM     33  N   UNL     1      36.858 -22.872 -11.941  0.00  0.00    +0.382 N 
ATOM     34  H   UNL     1      36.734 -21.860 -11.954  0.00  0.00    -0.089 HD
ATOM     35  H   UNL     1      37.814 -23.094 -11.660  0.00  0.00    -0.089 HD
ATOM     36  H   UNL     1      36.204 -23.287 -11.278  0.00  0.00    -0.089 HD
ENDBRANCH  29  33
ENDBRANCH  21  26
ENDBRANCH   2  22
TORSDOF 5
ENDMDL
MODEL 2
REMARK VINA RESULT:     -11.5      0.004      1.464
REMARK  Name = 44814409
REMARK  5 active torsions:
REMARK  status: ('A' for Active; 'I' for Inactive)
REMARK    1  A    between atoms: N_2  and  C_22
REMARK    2  A    between atoms: C_3  and  C_7
REMARK    3  A    between atoms: C_9  and  C_14
REMARK    4  A    between atoms: C_21  and  C_26
REMARK    5  A    between atoms: C_29  and  N_33
REMARK                            x       y       z     vdW  Elec       q    Type
REMARK                         _______ _______ _______ _____ _____    ______ ____
ROOT
ATOM      1  O   UNL     1      32.644 -22.210 -19.316  0.00  0.00    -0.267 OA
ATOM      2  N   UNL     1      33.817 -22.301 -17.279  0.00  0.00    -0.278 N 
ATOM      3  C   UNL     1      33.637 -21.982 -18.632  0.00  0.00    +0.275 C 
ATOM      4  H   UNL     1      34.682 -22.041 -16.886  0.00  0.00    +0.155 HD
ENDROOT
BRANCH   3   7
ATOM      5  F   UNL     1      37.771 -19.236 -21.124  0.00  0.00    -0.202 F 
ATOM      6  N   UNL     1      34.437 -20.374 -20.231  0.00  0.00    -0.399 NA
ATOM      7  C   UNL     1      34.772 -21.268 -19.275  0.00  0.00    +0.167 C 
ATOM      8  C   UNL     1      36.075 -21.537 -18.885  0.00  0.00    +0.092 C 
ATOM      9  C   UNL     1      35.460 -19.717 -20.823  0.00  0.00    +0.162 C 
ATOM     10  C   UNL     1      37.099 -20.841 -19.518  0.00  0.00    +0.014 C 
ATOM     11  C   UNL     1      36.794 -19.912 -20.507  0.00  0.00    +0.166 C 
BRANCH   9  14
ATOM     12  F   UNL     1      35.290 -16.967 -20.304  0.00  0.00    -0.204 F 
ATOM     13  F   UNL     1      34.815 -20.517 -23.433  0.00  0.00    -0.204 F 
ATOM     14  C   UNL     1      35.064 -18.769 -21.839  0.00  0.00    +0.087 C 
ATOM     15  C   UNL     1      34.993 -17.410 -21.535  0.00  0.00    +0.145 C 
ATOM     16  C   UNL     1      34.753 -19.214 -23.124  0.00  0.00    +0.145 C 
ATOM     17  C   UNL     1      34.612 -16.495 -22.516  0.00  0.00    +0.030 C 
ATOM     18  C   UNL     1      34.371 -18.299 -24.106  0.00  0.00    +0.030 C 
ATOM     19  C   UNL     1      34.300 -16.940 -23.801  0.00  0.00    +0.005 C 
ENDBRANCH   9  14
ENDBRANCH   3   7
BRANCH   2  22
ATOM     20  N   UNL     1      30.623 -23.437 -15.862  0.00  0.00    -0.241 NA
ATOM     21  C   UNL     1      33.356 -23.683 -15.330  0.00  0.00    -0.006 C 
ATOM     22  C   UNL     1      32.922 -22.940 -16.421  0.00  0.00    +0.066 C 
ATOM     23  C   UNL     1      32.425 -24.304 -14.504  0.00  0.00    +0.018 C 
ATOM     24  C   UNL     1      31.558 -22.849 -16.642  0.00  0.00    +0.113 C 
ATOM     25  C   UNL     1      31.083 -24.151 -14.811  0.00  0.00    +0.099 C 
BRANCH  21  26
ATOM     26  C   UNL     1      34.812 -23.832 -15.023  0.00  0.00    +0.022 C 
ATOM     27  C   UNL     1      36.690 -25.514 -14.696  0.00  0.00    -0.002 C 
ATOM     28  C   UNL     1      35.213 -25.319 -15.067  0.00  0.00    +0.004 C 
ATOM     29  C   UNL     1      36.605 -23.411 -13.280  0.00  0.00    -0.065 C 
ATOM     30  C   UNL     1      35.128 -23.217 -13.647  0.00  0.00    -0.017 C 
ATOM     31  C   UNL     1      36.997 -24.892 -13.325  0.00  0.00    -0.022 C 
ATOM     32  C   UNL     1      37.055 -26.998 -14.708  0.00  0.00    -0.000 C 
BRANCH  29  33
ATOM     33  N   UNL     1      36.859 -22.871 -11.946  0.00  0.00    +0.382 N 
ATOM     34  H   UNL     1      36.009 -22.436 -11.587  0.00  0.00    -0.089 HD
ATOM     35  H   UNL     1      37.602 -22.173 -11.997  0.00  0.00    -0.089 HD
ATOM     36  H   UNL     1      37.144 -23.625 -11.322  0.00  0.00    -0.089 HD
ENDBRANCH  29  33
ENDBRANCH  21  26
ENDBRANCH   2  22
TORSDOF 5
ENDMDL
MODEL 3
REMARK VINA RESULT:      -9.9      4.247      8.489
REMARK  Name = 44814409
REMARK  5 active torsions:
REMARK  status: ('A' for Active; 'I' for Inactive)
REMARK    1  A    between atoms: N_2  and  C_22
REMARK    2  A    between atoms: C_3  and  C_7
REMARK    3  A    between atoms: C_9  and  C_14
REMARK    4  A    between atoms: C_21  and  C_26
REMARK    5  A    between atoms: C_29  and  N_33
REMARK                            x       y       z     vdW  Elec       q    Type
REMARK                         _______ _______ _______ _____ _____    ______ ____
ROOT
ATOM      1  O   UNL     1      37.547 -20.938 -16.420  0.00  0.00    -0.267 OA
ATOM      2  N   UNL     1      36.132 -22.641 -17.214  0.00  0.00    -0.278 N 
ATOM      3  C   UNL     1      37.147 -22.098 -16.415  0.00  0.00    +0.275 C 
ATOM      4  H   UNL     1      35.939 -23.597 -17.076  0.00  0.00    +0.155 HD
ENDROOT
BRANCH   3   7
ATOM      5  F   UNL     1      39.360 -25.587 -12.703  0.00  0.00    -0.202 F 
ATOM      6  N   UNL     1      37.146 -23.159 -14.257  0.00  0.00    -0.399 NA
ATOM      7  C   UNL     1      37.771 -23.041 -15.449  0.00  0.00    +0.167 C 
ATOM      8  C   UNL     1      38.921 -23.733 -15.794  0.00  0.00    +0.092 C 
ATOM      9  C   UNL     1      37.702 -24.014 -13.370  0.00  0.00    +0.162 C 
ATOM     10  C   UNL     1      39.463 -24.603 -14.854  0.00  0.00    +0.014 C 
ATOM     11  C   UNL     1      38.848 -24.752 -13.617  0.00  0.00    +0.166 C 
BRANCH   9  14
ATOM     12  F   UNL     1      37.875 -22.012 -11.413  0.00  0.00    -0.204 F 
ATOM     13  F   UNL     1      36.099 -26.224 -12.729  0.00  0.00    -0.204 F 
ATOM     14  C   UNL     1      37.006 -24.115 -12.107  0.00  0.00    +0.087 C 
ATOM     15  C   UNL     1      37.122 -23.095 -11.164  0.00  0.00    +0.145 C 
ATOM     16  C   UNL     1      36.219 -25.234 -11.833  0.00  0.00    +0.145 C 
ATOM     17  C   UNL     1      36.450 -23.192  -9.946  0.00  0.00    +0.030 C 
ATOM     18  C   UNL     1      35.547 -25.332 -10.614  0.00  0.00    +0.030 C 
ATOM     19  C   UNL     1      35.664 -24.311  -9.671  0.00  0.00    +0.005 C 
ENDBRANCH   9  14
ENDBRANCH   3   7
BRANCH   2  22
ATOM     20  N   UNL     1      35.294 -20.536 -20.107  0.00  0.00    -0.241 NA
ATOM     21  C   UNL     1      33.977 -22.126 -18.221  0.00  0.00    -0.006 C 
ATOM     22  C   UNL     1      35.360 -21.995 -18.179  0.00  0.00    +0.066 C 
ATOM     23  C   UNL     1      33.251 -21.463 -19.205  0.00  0.00    +0.018 C 
ATOM     24  C   UNL     1      35.966 -21.196 -19.136  0.00  0.00    +0.113 C 
ATOM     25  C   UNL     1      33.951 -20.688 -20.116  0.00  0.00    +0.099 C 
BRANCH  21  26
ATOM     26  C   UNL     1      33.248 -22.970 -17.226  0.00  0.00    +0.022 C 
ATOM     27  C   UNL     1      31.006 -23.344 -16.086  0.00  0.00    -0.002 C 
ATOM     28  C   UNL     1      31.772 -22.537 -17.145  0.00  0.00    +0.004 C 
ATOM     29  C   UNL     1      33.163 -23.680 -14.794  0.00  0.00    -0.065 C 
ATOM     30  C   UNL     1      33.928 -22.870 -15.849  0.00  0.00    -0.017 C 
ATOM     31  C   UNL     1      31.696 -23.243 -14.717  0.00  0.00    -0.022 C 
ATOM     32  C   UNL     1      29.556 -22.870 -15.995  0.00  0.00    -0.000 C 
BRANCH  29  33
ATOM     33  N   UNL     1      33.798 -23.516 -13.488  0.00  0.00    +0.382 N 
ATOM     34  H   UNL     1      34.683 -24.023 -13.473  0.00  0.00    -0.089 HD
ATOM     35  H   UNL     1      33.183 -23.886 -12.762  0.00  0.00    -0.089 HD
ATOM     36  H   UNL     1      33.971 -22.526 -13.315  0.00  0.00    -0.089 HD
ENDBRANCH  29  33
ENDBRANCH  21  26
ENDBRANCH   2  22
TORSDOF 5
ENDMDL
MODEL 4
REMARK VINA RESULT:      -8.6     11.495     17.042
REMARK  Name = 44814409
REMARK  5 active torsions:
REMARK  status: ('A' for Active; 'I' for Inactive)
REMARK    1  A    between atoms: N_2  and  C_22
REMARK    2  A    between atoms: C_3  and  C_7
REMARK    3  A    between atoms: C_9  and  C_14
REMARK    4  A    between atoms: C_21  and  C_26
REMARK    5  A    between atoms: C_29  and  N_33
REMARK                            x       y       z     vdW  Elec       q    Type
REMARK                         _______ _______ _______ _____ _____    ______ ____
ROOT
ATOM      1  O   UNL     1      30.077  -6.906 -23.312  0.00  0.00    -0.267 OA
ATOM      2  N   UNL     1      31.356  -5.278 -22.196  0.00  0.00    -0.278 N 
ATOM      3  C   UNL     1      30.860  -6.568 -22.430  0.00  0.00    +0.275 C 
ATOM      4  H   UNL     1      31.980  -5.186 -21.440  0.00  0.00    +0.155 HD
ENDROOT
BRANCH   3   7
ATOM      5  F   UNL     1      32.791 -10.607 -19.144  0.00  0.00    -0.202 F 
ATOM      6  N   UNL     1      31.684  -8.802 -22.098  0.00  0.00    -0.399 NA
ATOM      7  C   UNL     1      31.372  -7.623 -21.516  0.00  0.00    +0.167 C 
ATOM      8  C   UNL     1      31.504  -7.367 -20.161  0.00  0.00    +0.092 C 
ATOM      9  C   UNL     1      32.153  -9.770 -21.279  0.00  0.00    +0.162 C 
ATOM     10  C   UNL     1      31.989  -8.389 -19.351  0.00  0.00    +0.014 C 
ATOM     11  C   UNL     1      32.322  -9.616 -19.913  0.00  0.00    +0.166 C 
BRANCH   9  14
ATOM     12  F   UNL     1      31.026 -12.209 -20.478  0.00  0.00    -0.204 F 
ATOM     13  F   UNL     1      33.947  -9.893 -23.431  0.00  0.00    -0.204 F 
ATOM     14  C   UNL     1      32.477 -11.015 -21.936  0.00  0.00    +0.087 C 
ATOM     15  C   UNL     1      31.892 -12.205 -21.503  0.00  0.00    +0.145 C 
ATOM     16  C   UNL     1      33.375 -11.028 -23.003  0.00  0.00    +0.145 C 
ATOM     17  C   UNL     1      32.204 -13.407 -22.137  0.00  0.00    +0.030 C 
ATOM     18  C   UNL     1      33.688 -12.230 -23.638  0.00  0.00    +0.030 C 
ATOM     19  C   UNL     1      33.103 -13.420 -23.204  0.00  0.00    +0.005 C 
ENDBRANCH   9  14
ENDBRANCH   3   7
BRANCH   2  22
ATOM     20  N   UNL     1      29.876  -2.011 -22.994  0.00  0.00    -0.241 NA
ATOM     21  C   UNL     1      31.652  -3.841 -24.138  0.00  0.00    -0.006 C 
ATOM     22  C   UNL     1      31.075  -4.108 -22.902  0.00  0.00    +0.066 C 
ATOM     23  C   UNL     1      31.342  -2.660 -24.803  0.00  0.00    +0.018 C 
ATOM     24  C   UNL     1      30.202  -3.169 -22.377  0.00  0.00    +0.113 C 
ATOM     25  C   UNL     1      30.456  -1.786 -24.193  0.00  0.00    +0.099 C 
BRANCH  21  26
ATOM     26  C   UNL     1      32.605  -4.802 -24.773  0.00  0.00    +0.022 C 
ATOM     27  C   UNL     1      34.500  -6.434 -24.315  0.00  0.00    -0.002 C 
ATOM     28  C   UNL     1      33.466  -5.484 -23.693  0.00  0.00    +0.004 C 
ATOM     29  C   UNL     1      34.517  -5.023 -26.423  0.00  0.00    -0.065 C 
ATOM     30  C   UNL     1      33.488  -4.071 -25.801  0.00  0.00    -0.017 C 
ATOM     31  C   UNL     1      35.371  -5.697 -25.343  0.00  0.00    -0.022 C 
ATOM     32  C   UNL     1      35.368  -7.068 -23.229  0.00  0.00    -0.000 C 
BRANCH  29  33
ATOM     33  N   UNL     1      35.377  -4.287 -27.348  0.00  0.00    +0.382 N 
ATOM     34  H   UNL     1      36.257  -4.787 -27.467  0.00  0.00    -0.089 HD
ATOM     35  H   UNL     1      35.563  -3.356 -26.971  0.00  0.00    -0.089 HD
ATOM     36  H   UNL     1      34.910  -4.200 -28.251  0.00  0.00    -0.089 HD
ENDBRANCH  29  33
ENDBRANCH  21  26
ENDBRANCH   2  22
TORSDOF 5
ENDMDL
