MODEL 1
REMARK VINA RESULT:     -11.7      0.000      0.000
REMARK  Name = 5289110
REMARK  6 active torsions:
REMARK  status: ('A' for Active; 'I' for Inactive)
REMARK    1  A    between atoms: C_3  and  C_9
REMARK    2  A    between atoms: C_4  and  C_22
REMARK    3  A    between atoms: N_8  and  C_11
REMARK    4  A    between atoms: C_11  and  C_13
REMARK    5  A    between atoms: N_21  and  C_24
REMARK    6  A    between atoms: C_24  and  C_26
REMARK                            x       y       z     vdW  Elec       q    Type
REMARK                         _______ _______ _______ _____ _____    ______ ____
ROOT
ATOM      1  N   UNL     1      37.962 -23.556 -14.599  0.00  0.00    -0.244 NA
ATOM      2  N   UNL     1      36.547 -24.559 -12.925  0.00  0.00    -0.244 NA
ATOM      3  C   UNL     1      36.892 -22.859 -15.032  0.00  0.00    +0.115 C 
ATOM      4  C   UNL     1      35.549 -23.826 -13.425  0.00  0.00    +0.115 C 
ATOM      5  C   UNL     1      35.634 -22.955 -14.471  0.00  0.00    +0.100 C 
ATOM      6  C   UNL     1      37.722 -24.376 -13.558  0.00  0.00    +0.250 C 
ENDROOT
BRANCH   3   9
ATOM      7  O   UNL     1      37.744 -20.898 -15.995  0.00  0.00    -0.269 OA
ATOM      8  N   UNL     1      36.656 -22.381 -17.406  0.00  0.00    -0.296 N 
ATOM      9  C   UNL     1      37.129 -21.967 -16.154  0.00  0.00    +0.260 C 
ATOM     10  H   UNL     1      36.177 -23.239 -17.461  0.00  0.00    +0.150 HD
BRANCH   8  11
ATOM     11  C   UNL     1      36.833 -21.618 -18.620  0.00  0.00    +0.117 C 
BRANCH  11  13
ATOM     12  F   UNL     1      31.909 -20.232 -20.954  0.00  0.00    -0.205 F 
ATOM     13  C   UNL     1      35.519 -21.247 -19.246  0.00  0.00    -0.003 C 
ATOM     14  C   UNL     1      35.495 -20.389 -20.339  0.00  0.00    -0.005 C 
ATOM     15  C   UNL     1      34.275 -20.044 -20.920  0.00  0.00    +0.005 C 
ATOM     16  C   UNL     1      34.339 -21.764 -18.724  0.00  0.00    -0.000 C 
ATOM     17  C   UNL     1      33.086 -20.559 -20.403  0.00  0.00    +0.136 C 
ATOM     18  C   UNL     1      33.118 -21.419 -19.306  0.00  0.00    +0.029 C 
ATOM     19  C   UNL     1      34.245 -19.125 -22.095  0.00  0.00    +0.033 C 
ENDBRANCH  11  13
ENDBRANCH   8  11
ENDBRANCH   3   9
BRANCH   4  22
ATOM     20  O   UNL     1      34.196 -24.682 -11.711  0.00  0.00    -0.269 OA
ATOM     21  N   UNL     1      33.154 -23.386 -13.328  0.00  0.00    -0.296 N 
ATOM     22  C   UNL     1      34.243 -24.015 -12.742  0.00  0.00    +0.260 C 
ATOM     23  H   UNL     1      33.292 -22.872 -14.156  0.00  0.00    +0.150 HD
BRANCH  21  24
ATOM     24  C   UNL     1      31.827 -23.455 -12.771  0.00  0.00    +0.117 C 
BRANCH  24  26
ATOM     25  F   UNL     1      28.010 -25.120 -16.548  0.00  0.00    -0.205 F 
ATOM     26  C   UNL     1      30.813 -23.894 -13.774  0.00  0.00    -0.003 C 
ATOM     27  C   UNL     1      30.044 -22.946 -14.450  0.00  0.00    -0.005 C 
ATOM     28  C   UNL     1      29.096 -23.357 -15.387  0.00  0.00    +0.005 C 
ATOM     29  C   UNL     1      30.634 -25.252 -14.036  0.00  0.00    -0.000 C 
ATOM     30  C   UNL     1      28.918 -24.715 -15.649  0.00  0.00    +0.136 C 
ATOM     31  C   UNL     1      29.686 -25.663 -14.973  0.00  0.00    +0.029 C 
ATOM     32  C   UNL     1      28.276 -22.341 -16.108  0.00  0.00    +0.033 C 
ENDBRANCH  24  26
ENDBRANCH  21  24
ENDBRANCH   4  22
TORSDOF 6
ENDMDL
MODEL 2
REMARK VINA RESULT:     -11.6      5.896     10.879
REMARK  Name = 5289110
REMARK  6 active torsions:
REMARK  status: ('A' for Active; 'I' for Inactive)
REMARK    1  A    between atoms: C_3  and  C_9
REMARK    2  A    between atoms: C_4  and  C_22
REMARK    3  A    between atoms: N_8  and  C_11
REMARK    4  A    between atoms: C_11  and  C_13
REMARK    5  A    between atoms: N_21  and  C_24
REMARK    6  A    between atoms: C_24  and  C_26
REMARK                            x       y       z     vdW  Elec       q    Type
REMARK                         _______ _______ _______ _____ _____    ______ ____
ROOT
ATOM      1  N   UNL     1      34.778 -19.676 -23.128  0.00  0.00    -0.244 NA
ATOM      2  N   UNL     1      33.984 -18.031 -24.700  0.00  0.00    -0.244 NA
ATOM      3  C   UNL     1      35.230 -18.666 -22.357  0.00  0.00    +0.115 C 
ATOM      4  C   UNL     1      34.464 -17.103 -23.869  0.00  0.00    +0.115 C 
ATOM      5  C   UNL     1      35.097 -17.332 -22.684  0.00  0.00    +0.100 C 
ATOM      6  C   UNL     1      34.175 -19.293 -24.269  0.00  0.00    +0.250 C 
ENDROOT
BRANCH   3   9
ATOM      7  O   UNL     1      36.498 -18.220 -20.435  0.00  0.00    -0.269 OA
ATOM      8  N   UNL     1      35.770 -20.400 -20.738  0.00  0.00    -0.296 N 
ATOM      9  C   UNL     1      35.884 -19.058 -21.120  0.00  0.00    +0.260 C 
ATOM     10  H   UNL     1      35.271 -21.011 -21.326  0.00  0.00    +0.150 HD
BRANCH   8  11
ATOM     11  C   UNL     1      36.344 -20.939 -19.526  0.00  0.00    +0.117 C 
BRANCH  11  13
ATOM     12  F   UNL     1      32.495 -23.551 -16.368  0.00  0.00    -0.205 F 
ATOM     13  C   UNL     1      35.318 -21.636 -18.680  0.00  0.00    -0.003 C 
ATOM     14  C   UNL     1      35.690 -22.184 -17.458  0.00  0.00    -0.005 C 
ATOM     15  C   UNL     1      34.737 -22.832 -16.672  0.00  0.00    +0.005 C 
ATOM     16  C   UNL     1      34.005 -21.729 -19.128  0.00  0.00    -0.000 C 
ATOM     17  C   UNL     1      33.417 -22.929 -17.115  0.00  0.00    +0.136 C 
ATOM     18  C   UNL     1      33.052 -22.377 -18.343  0.00  0.00    +0.029 C 
ATOM     19  C   UNL     1      35.131 -23.420 -15.359  0.00  0.00    +0.033 C 
ENDBRANCH  11  13
ENDBRANCH   8  11
ENDBRANCH   3   9
BRANCH   4  22
ATOM     20  O   UNL     1      34.220 -15.467 -25.533  0.00  0.00    -0.269 OA
ATOM     21  N   UNL     1      34.119 -14.751 -23.329  0.00  0.00    -0.296 N 
ATOM     22  C   UNL     1      34.265 -15.703 -24.328  0.00  0.00    +0.260 C 
ATOM     23  H   UNL     1      34.170 -15.039 -22.389  0.00  0.00    +0.150 HD
BRANCH  21  24
ATOM     24  C   UNL     1      33.895 -13.356 -23.614  0.00  0.00    +0.117 C 
BRANCH  24  26
ATOM     25  F   UNL     1      30.826 -10.840 -19.633  0.00  0.00    -0.205 F 
ATOM     26  C   UNL     1      33.081 -12.686 -22.559  0.00  0.00    -0.003 C 
ATOM     27  C   UNL     1      32.731 -11.342 -22.696  0.00  0.00    -0.005 C 
ATOM     28  C   UNL     1      31.970 -10.716 -21.709  0.00  0.00    +0.005 C 
ATOM     29  C   UNL     1      32.668 -13.403 -21.436  0.00  0.00    -0.000 C 
ATOM     30  C   UNL     1      31.558 -11.433 -20.586  0.00  0.00    +0.136 C 
ATOM     31  C   UNL     1      31.907 -12.776 -20.450  0.00  0.00    +0.029 C 
ATOM     32  C   UNL     1      31.598  -9.279 -21.859  0.00  0.00    +0.033 C 
ENDBRANCH  24  26
ENDBRANCH  21  24
ENDBRANCH   4  22
TORSDOF 6
ENDMDL
MODEL 3
REMARK VINA RESULT:     -11.6      5.914      9.310
REMARK  Name = 5289110
REMARK  6 active torsions:
REMARK  status: ('A' for Active; 'I' for Inactive)
REMARK    1  A    between atoms: C_3  and  C_9
REMARK    2  A    between atoms: C_4  and  C_22
REMARK    3  A    between atoms: N_8  and  C_11
REMARK    4  A    between atoms: C_11  and  C_13
REMARK    5  A    between atoms: N_21  and  C_24
REMARK    6  A    between atoms: C_24  and  C_26
REMARK                            x       y       z     vdW  Elec       q    Type
REMARK                         _______ _______ _______ _____ _____    ______ ____
ROOT
ATOM      1  N   UNL     1      33.931 -18.040 -24.675  0.00  0.00    -0.244 NA
ATOM      2  N   UNL     1      34.743 -19.678 -23.104  0.00  0.00    -0.244 NA
ATOM      3  C   UNL     1      34.433 -17.078 -23.875  0.00  0.00    +0.115 C 
ATOM      4  C   UNL     1      35.205 -18.655 -22.380  0.00  0.00    +0.115 C 
ATOM      5  C   UNL     1      35.095 -17.332 -22.690  0.00  0.00    +0.100 C 
ATOM      6  C   UNL     1      34.118 -19.299 -24.235  0.00  0.00    +0.250 C 
ENDROOT
BRANCH   3   9
ATOM      7  O   UNL     1      34.185 -15.451 -25.546  0.00  0.00    -0.269 OA
ATOM      8  N   UNL     1      34.107 -14.726 -23.346  0.00  0.00    -0.296 N 
ATOM      9  C   UNL     1      34.243 -15.712 -24.331  0.00  0.00    +0.260 C 
ATOM     10  H   UNL     1      34.163 -15.000 -22.402  0.00  0.00    +0.150 HD
BRANCH   8  11
ATOM     11  C   UNL     1      33.890 -13.327 -23.638  0.00  0.00    +0.117 C 
BRANCH  11  13
ATOM     12  F   UNL     1      30.834 -10.807 -19.648  0.00  0.00    -0.205 F 
ATOM     13  C   UNL     1      33.073 -12.652 -22.574  0.00  0.00    -0.003 C 
ATOM     14  C   UNL     1      32.722 -11.315 -22.720  0.00  0.00    -0.005 C 
ATOM     15  C   UNL     1      31.963 -10.687 -21.732  0.00  0.00    +0.005 C 
ATOM     16  C   UNL     1      32.677 -13.370 -21.452  0.00  0.00    -0.000 C 
ATOM     17  C   UNL     1      31.562 -11.402 -20.603  0.00  0.00    +0.136 C 
ATOM     18  C   UNL     1      31.918 -12.743 -20.464  0.00  0.00    +0.029 C 
ATOM     19  C   UNL     1      31.583  -9.253 -21.886  0.00  0.00    +0.033 C 
ENDBRANCH  11  13
ENDBRANCH   8  11
ENDBRANCH   3   9
BRANCH   4  22
ATOM     20  O   UNL     1      36.546 -18.210 -20.508  0.00  0.00    -0.269 OA
ATOM     21  N   UNL     1      35.732 -20.371 -20.730  0.00  0.00    -0.296 N 
ATOM     22  C   UNL     1      35.898 -19.051 -21.126  0.00  0.00    +0.260 C 
ATOM     23  H   UNL     1      35.192 -20.970 -21.294  0.00  0.00    +0.150 HD
BRANCH  21  24
ATOM     24  C   UNL     1      36.320 -20.898 -19.525  0.00  0.00    +0.117 C 
BRANCH  24  26
ATOM     25  F   UNL     1      32.568 -23.619 -16.344  0.00  0.00    -0.205 F 
ATOM     26  C   UNL     1      35.327 -21.621 -18.678  0.00  0.00    -0.003 C 
ATOM     27  C   UNL     1      35.714 -22.155 -17.449  0.00  0.00    -0.005 C 
ATOM     28  C   UNL     1      34.784 -22.830 -16.659  0.00  0.00    +0.005 C 
ATOM     29  C   UNL     1      34.010 -21.762 -19.116  0.00  0.00    -0.000 C 
ATOM     30  C   UNL     1      33.468 -22.972 -17.097  0.00  0.00    +0.136 C 
ATOM     31  C   UNL     1      33.081 -22.438 -18.326  0.00  0.00    +0.029 C 
ATOM     32  C   UNL     1      35.202 -23.400 -15.344  0.00  0.00    +0.033 C 
ENDBRANCH  24  26
ENDBRANCH  21  24
ENDBRANCH   4  22
TORSDOF 6
ENDMDL
MODEL 4
REMARK VINA RESULT:     -11.5      8.170     12.680
REMARK  Name = 5289110
REMARK  6 active torsions:
REMARK  status: ('A' for Active; 'I' for Inactive)
REMARK    1  A    between atoms: C_3  and  C_9
REMARK    2  A    between atoms: C_4  and  C_22
REMARK    3  A    between atoms: N_8  and  C_11
REMARK    4  A    between atoms: C_11  and  C_13
REMARK    5  A    between atoms: N_21  and  C_24
REMARK    6  A    between atoms: C_24  and  C_26
REMARK                            x       y       z     vdW  Elec       q    Type
REMARK                         _______ _______ _______ _____ _____    ______ ____
ROOT
ATOM      1  N   UNL     1      34.034 -14.991 -24.832  0.00  0.00    -0.244 NA
ATOM      2  N   UNL     1      32.985 -13.118 -23.738  0.00  0.00    -0.244 NA
ATOM      3  C   UNL     1      34.171 -15.574 -23.624  0.00  0.00    +0.115 C 
ATOM      4  C   UNL     1      33.165 -13.775 -22.589  0.00  0.00    +0.115 C 
ATOM      5  C   UNL     1      33.745 -14.999 -22.443  0.00  0.00    +0.100 C 
ATOM      6  C   UNL     1      33.441 -13.782 -24.816  0.00  0.00    +0.250 C 
ENDROOT
BRANCH   3   9
ATOM      7  O   UNL     1      34.763 -17.611 -24.624  0.00  0.00    -0.269 OA
ATOM      8  N   UNL     1      35.480 -17.254 -22.448  0.00  0.00    -0.296 N 
ATOM      9  C   UNL     1      34.807 -16.879 -23.618  0.00  0.00    +0.260 C 
ATOM     10  H   UNL     1      35.476 -16.628 -21.689  0.00  0.00    +0.150 HD
BRANCH   8  11
ATOM     11  C   UNL     1      36.180 -18.509 -22.295  0.00  0.00    +0.117 C 
BRANCH  11  13
ATOM     12  F   UNL     1      33.583 -21.929 -18.667  0.00  0.00    -0.205 F 
ATOM     13  C   UNL     1      35.489 -19.422 -21.324  0.00  0.00    -0.003 C 
ATOM     14  C   UNL     1      36.239 -20.135 -20.396  0.00  0.00    -0.005 C 
ATOM     15  C   UNL     1      35.597 -20.984 -19.494  0.00  0.00    +0.005 C 
ATOM     16  C   UNL     1      34.105 -19.548 -21.364  0.00  0.00    -0.000 C 
ATOM     17  C   UNL     1      34.208 -21.115 -19.528  0.00  0.00    +0.136 C 
ATOM     18  C   UNL     1      33.463 -20.397 -20.462  0.00  0.00    +0.029 C 
ATOM     19  C   UNL     1      36.397 -21.749 -18.495  0.00  0.00    +0.033 C 
ENDBRANCH  11  13
ENDBRANCH   8  11
ENDBRANCH   3   9
BRANCH   4  22
ATOM     20  O   UNL     1      33.019 -13.442 -20.272  0.00  0.00    -0.269 OA
ATOM     21  N   UNL     1      31.846 -11.967 -21.622  0.00  0.00    -0.296 N 
ATOM     22  C   UNL     1      32.669 -13.058 -21.385  0.00  0.00    +0.260 C 
ATOM     23  H   UNL     1      31.621 -11.736 -22.553  0.00  0.00    +0.150 HD
BRANCH  21  24
ATOM     24  C   UNL     1      31.306 -11.157 -20.560  0.00  0.00    +0.117 C 
BRANCH  24  26
ATOM     25  F   UNL     1      32.499  -5.701 -21.203  0.00  0.00    -0.205 F 
ATOM     26  C   UNL     1      31.621  -9.709 -20.734  0.00  0.00    -0.003 C 
ATOM     27  C   UNL     1      31.475  -9.108 -21.984  0.00  0.00    -0.005 C 
ATOM     28  C   UNL     1      31.771  -7.754 -22.145  0.00  0.00    +0.005 C 
ATOM     29  C   UNL     1      32.062  -8.956 -19.646  0.00  0.00    -0.000 C 
ATOM     30  C   UNL     1      32.212  -7.002 -21.057  0.00  0.00    +0.136 C 
ATOM     31  C   UNL     1      32.359  -7.604 -19.807  0.00  0.00    +0.029 C 
ATOM     32  C   UNL     1      31.613  -7.115 -23.484  0.00  0.00    +0.033 C 
ENDBRANCH  24  26
ENDBRANCH  21  24
ENDBRANCH   4  22
TORSDOF 6
ENDMDL
MODEL 5
REMARK VINA RESULT:     -11.5      8.377     12.290
REMARK  Name = 5289110
REMARK  6 active torsions:
REMARK  status: ('A' for Active; 'I' for Inactive)
REMARK    1  A    between atoms: C_3  and  C_9
REMARK    2  A    between atoms: C_4  and  C_22
REMARK    3  A    between atoms: N_8  and  C_11
REMARK    4  A    between atoms: C_11  and  C_13
REMARK    5  A    between atoms: N_21  and  C_24
REMARK    6  A    between atoms: C_24  and  C_26
REMARK                            x       y       z     vdW  Elec       q    Type
REMARK                         _______ _______ _______ _____ _____    ______ ____
ROOT
ATOM      1  N   UNL     1      33.013 -13.410 -24.703  0.00  0.00    -0.244 NA
ATOM      2  N   UNL     1      33.916 -15.486 -25.530  0.00  0.00    -0.244 NA
ATOM      3  C   UNL     1      33.226 -13.860 -23.449  0.00  0.00    +0.115 C 
ATOM      4  C   UNL     1      34.089 -15.842 -24.254  0.00  0.00    +0.115 C 
ATOM      5  C   UNL     1      33.774 -15.093 -23.159  0.00  0.00    +0.100 C 
ATOM      6  C   UNL     1      33.375 -14.262 -25.681  0.00  0.00    +0.250 C 
ENDROOT
BRANCH   3   9
ATOM      7  O   UNL     1      32.701 -13.375 -21.216  0.00  0.00    -0.269 OA
ATOM      8  N   UNL     1      32.668 -11.608 -22.716  0.00  0.00    -0.296 N 
ATOM      9  C   UNL     1      32.843 -12.956 -22.379  0.00  0.00    +0.260 C 
ATOM     10  H   UNL     1      32.796 -11.344 -23.656  0.00  0.00    +0.150 HD
BRANCH   8  11
ATOM     11  C   UNL     1      32.310 -10.584 -21.762  0.00  0.00    +0.117 C 
BRANCH  11  13
ATOM     12  F   UNL     1      32.432  -5.444 -24.037  0.00  0.00    -0.205 F 
ATOM     13  C   UNL     1      32.345  -9.211 -22.371  0.00  0.00    -0.003 C 
ATOM     14  C   UNL     1      33.559  -8.670 -22.777  0.00  0.00    -0.005 C 
ATOM     15  C   UNL     1      33.592  -7.395 -23.343  0.00  0.00    +0.005 C 
ATOM     16  C   UNL     1      31.163  -8.495 -22.520  0.00  0.00    -0.000 C 
ATOM     17  C   UNL     1      32.410  -6.670 -23.497  0.00  0.00    +0.136 C 
ATOM     18  C   UNL     1      31.196  -7.220 -23.086  0.00  0.00    +0.029 C 
ATOM     19  C   UNL     1      34.892  -6.810 -23.782  0.00  0.00    +0.033 C 
ENDBRANCH  11  13
ENDBRANCH   8  11
ENDBRANCH   3   9
BRANCH   4  22
ATOM     20  O   UNL     1      34.528 -18.042 -24.937  0.00  0.00    -0.269 OA
ATOM     21  N   UNL     1      35.408 -17.378 -22.896  0.00  0.00    -0.296 N 
ATOM     22  C   UNL     1      34.684 -17.190 -24.065  0.00  0.00    +0.260 C 
ATOM     23  H   UNL     1      35.477 -16.632 -22.257  0.00  0.00    +0.150 HD
BRANCH  21  24
ATOM     24  C   UNL     1      36.064 -18.621 -22.582  0.00  0.00    +0.117 C 
BRANCH  24  26
ATOM     25  F   UNL     1      33.191 -21.650 -18.817  0.00  0.00    -0.205 F 
ATOM     26  C   UNL     1      35.304 -19.426 -21.581  0.00  0.00    -0.003 C 
ATOM     27  C   UNL     1      35.988 -20.158 -20.610  0.00  0.00    -0.005 C 
ATOM     28  C   UNL     1      35.276 -20.910 -19.675  0.00  0.00    +0.005 C 
ATOM     29  C   UNL     1      33.910 -19.445 -21.616  0.00  0.00    -0.000 C 
ATOM     30  C   UNL     1      33.882 -20.930 -19.711  0.00  0.00    +0.136 C 
ATOM     31  C   UNL     1      33.199 -20.198 -20.682  0.00  0.00    +0.029 C 
ATOM     32  C   UNL     1      36.011 -21.692 -18.638  0.00  0.00    +0.033 C 
ENDBRANCH  24  26
ENDBRANCH  21  24
ENDBRANCH   4  22
TORSDOF 6
ENDMDL
MODEL 6
REMARK VINA RESULT:     -11.5      7.327     10.611
REMARK  Name = 5289110
REMARK  6 active torsions:
REMARK  status: ('A' for Active; 'I' for Inactive)
REMARK    1  A    between atoms: C_3  and  C_9
REMARK    2  A    between atoms: C_4  and  C_22
REMARK    3  A    between atoms: N_8  and  C_11
REMARK    4  A    between atoms: C_11  and  C_13
REMARK    5  A    between atoms: N_21  and  C_24
REMARK    6  A    between atoms: C_24  and  C_26
REMARK                            x       y       z     vdW  Elec       q    Type
REMARK                         _______ _______ _______ _____ _____    ______ ____
ROOT
ATOM      1  N   UNL     1      34.035 -14.461 -21.242  0.00  0.00    -0.244 NA
ATOM      2  N   UNL     1      34.807 -16.526 -20.267  0.00  0.00    -0.244 NA
ATOM      3  C   UNL     1      34.360 -14.955 -22.454  0.00  0.00    +0.115 C 
ATOM      4  C   UNL     1      35.096 -16.926 -21.508  0.00  0.00    +0.115 C 
ATOM      5  C   UNL     1      34.905 -16.208 -22.652  0.00  0.00    +0.100 C 
ATOM      6  C   UNL     1      34.282 -15.287 -20.207  0.00  0.00    +0.250 C 
ENDROOT
BRANCH   3   9
ATOM      7  O   UNL     1      33.776 -14.550 -24.689  0.00  0.00    -0.269 OA
ATOM      8  N   UNL     1      34.215 -12.702 -23.361  0.00  0.00    -0.296 N 
ATOM      9  C   UNL     1      34.102 -14.080 -23.584  0.00  0.00    +0.260 C 
ATOM     10  H   UNL     1      34.477 -12.397 -22.463  0.00  0.00    +0.150 HD
BRANCH   8  11
ATOM     11  C   UNL     1      33.968 -11.703 -24.376  0.00  0.00    +0.117 C 
BRANCH  11  13
ATOM     12  F   UNL     1      33.886  -6.502 -22.243  0.00  0.00    -0.205 F 
ATOM     13  C   UNL     1      33.944 -10.315 -23.804  0.00  0.00    -0.003 C 
ATOM     14  C   UNL     1      32.862  -9.907 -23.034  0.00  0.00    -0.005 C 
ATOM     15  C   UNL     1      32.840  -8.617 -22.503  0.00  0.00    +0.005 C 
ATOM     16  C   UNL     1      35.004  -9.451 -24.053  0.00  0.00    -0.000 C 
ATOM     17  C   UNL     1      33.900  -7.744 -22.748  0.00  0.00    +0.136 C 
ATOM     18  C   UNL     1      34.982  -8.161 -23.522  0.00  0.00    +0.029 C 
ATOM     19  C   UNL     1      31.681  -8.175 -21.673  0.00  0.00    +0.033 C 
ENDBRANCH  11  13
ENDBRANCH   8  11
ENDBRANCH   3   9
BRANCH   4  22
ATOM     20  O   UNL     1      36.514 -18.530 -22.465  0.00  0.00    -0.269 OA
ATOM     21  N   UNL     1      35.237 -19.203 -20.650  0.00  0.00    -0.296 N 
ATOM     22  C   UNL     1      35.678 -18.290 -21.597  0.00  0.00    +0.260 C 
ATOM     23  H   UNL     1      34.563 -18.915 -19.992  0.00  0.00    +0.150 HD
BRANCH  21  24
ATOM     24  C   UNL     1      35.726 -20.557 -20.590  0.00  0.00    +0.117 C 
BRANCH  24  26
ATOM     25  F   UNL     1      33.874 -23.297 -16.045  0.00  0.00    -0.205 F 
ATOM     26  C   UNL     1      35.238 -21.284 -19.383  0.00  0.00    -0.003 C 
ATOM     27  C   UNL     1      36.123 -21.597 -18.351  0.00  0.00    -0.005 C 
ATOM     28  C   UNL     1      35.665 -22.277 -17.222  0.00  0.00    +0.005 C 
ATOM     29  C   UNL     1      33.896 -21.650 -19.285  0.00  0.00    -0.000 C 
ATOM     30  C   UNL     1      34.323 -22.643 -17.125  0.00  0.00    +0.136 C 
ATOM     31  C   UNL     1      33.438 -22.330 -18.157  0.00  0.00    +0.029 C 
ATOM     32  C   UNL     1      36.614 -22.610 -16.121  0.00  0.00    +0.033 C 
ENDBRANCH  24  26
ENDBRANCH  21  24
ENDBRANCH   4  22
TORSDOF 6
ENDMDL
MODEL 7
REMARK VINA RESULT:     -11.5      7.557     12.625
REMARK  Name = 5289110
REMARK  6 active torsions:
REMARK  status: ('A' for Active; 'I' for Inactive)
REMARK    1  A    between atoms: C_3  and  C_9
REMARK    2  A    between atoms: C_4  and  C_22
REMARK    3  A    between atoms: N_8  and  C_11
REMARK    4  A    between atoms: C_11  and  C_13
REMARK    5  A    between atoms: N_21  and  C_24
REMARK    6  A    between atoms: C_24  and  C_26
REMARK                            x       y       z     vdW  Elec       q    Type
REMARK                         _______ _______ _______ _____ _____    ______ ____
ROOT
ATOM      1  N   UNL     1      34.679 -16.273 -20.505  0.00  0.00    -0.244 NA
ATOM      2  N   UNL     1      33.977 -14.131 -21.356  0.00  0.00    -0.244 NA
ATOM      3  C   UNL     1      34.910 -16.661 -21.776  0.00  0.00    +0.115 C 
ATOM      4  C   UNL     1      34.236 -14.606 -22.577  0.00  0.00    +0.115 C 
ATOM      5  C   UNL     1      34.703 -15.852 -22.875  0.00  0.00    +0.100 C 
ATOM      6  C   UNL     1      34.219 -15.015 -20.370  0.00  0.00    +0.250 C 
ENDROOT
BRANCH   3   9
ATOM      7  O   UNL     1      35.747 -18.431 -23.067  0.00  0.00    -0.269 OA
ATOM      8  N   UNL     1      35.502 -18.806 -20.792  0.00  0.00    -0.296 N 
ATOM      9  C   UNL     1      35.407 -18.015 -21.945  0.00  0.00    +0.260 C 
ATOM     10  H   UNL     1      35.217 -18.415 -19.935  0.00  0.00    +0.150 HD
BRANCH   8  11
ATOM     11  C   UNL     1      35.998 -20.163 -20.792  0.00  0.00    +0.117 C 
BRANCH  11  13
ATOM     12  F   UNL     1      33.863 -23.178 -16.553  0.00  0.00    -0.205 F 
ATOM     13  C   UNL     1      35.430 -20.968 -19.658  0.00  0.00    -0.003 C 
ATOM     14  C   UNL     1      36.256 -21.358 -18.610  0.00  0.00    -0.005 C 
ATOM     15  C   UNL     1      35.728 -22.105 -17.557  0.00  0.00    +0.005 C 
ATOM     16  C   UNL     1      34.084 -21.316 -19.668  0.00  0.00    -0.000 C 
ATOM     17  C   UNL     1      34.378 -22.459 -17.560  0.00  0.00    +0.136 C 
ATOM     18  C   UNL     1      33.557 -22.063 -18.615  0.00  0.00    +0.029 C 
ATOM     19  C   UNL     1      36.610 -22.525 -16.429  0.00  0.00    +0.033 C 
ENDBRANCH  11  13
ENDBRANCH   8  11
ENDBRANCH   3   9
BRANCH   4  22
ATOM     20  O   UNL     1      33.415 -14.043 -24.701  0.00  0.00    -0.269 OA
ATOM     21  N   UNL     1      34.371 -12.336 -23.456  0.00  0.00    -0.296 N 
ATOM     22  C   UNL     1      33.974 -13.646 -23.681  0.00  0.00    +0.260 C 
ATOM     23  H   UNL     1      34.812 -12.115 -22.604  0.00  0.00    +0.150 HD
BRANCH  21  24
ATOM     24  C   UNL     1      34.163 -11.286 -24.420  0.00  0.00    +0.117 C 
BRANCH  24  26
ATOM     25  F   UNL     1      33.618  -6.239 -22.005  0.00  0.00    -0.205 F 
ATOM     26  C   UNL     1      34.015  -9.947 -23.778  0.00  0.00    -0.003 C 
ATOM     27  C   UNL     1      32.883  -9.659 -23.017  0.00  0.00    -0.005 C 
ATOM     28  C   UNL     1      32.745  -8.407 -22.417  0.00  0.00    +0.005 C 
ATOM     29  C   UNL     1      35.011  -8.984 -23.937  0.00  0.00    -0.000 C 
ATOM     30  C   UNL     1      33.741  -7.444 -22.578  0.00  0.00    +0.136 C 
ATOM     31  C   UNL     1      34.874  -7.732 -23.338  0.00  0.00    +0.029 C 
ATOM     32  C   UNL     1      31.532  -8.103 -21.604  0.00  0.00    +0.033 C 
ENDBRANCH  24  26
ENDBRANCH  21  24
ENDBRANCH   4  22
TORSDOF 6
ENDMDL
MODEL 8
REMARK VINA RESULT:     -11.4      4.914      7.724
REMARK  Name = 5289110
REMARK  6 active torsions:
REMARK  status: ('A' for Active; 'I' for Inactive)
REMARK    1  A    between atoms: C_3  and  C_9
REMARK    2  A    between atoms: C_4  and  C_22
REMARK    3  A    between atoms: N_8  and  C_11
REMARK    4  A    between atoms: C_11  and  C_13
REMARK    5  A    between atoms: N_21  and  C_24
REMARK    6  A    between atoms: C_24  and  C_26
REMARK                            x       y       z     vdW  Elec       q    Type
REMARK                         _______ _______ _______ _____ _____    ______ ____
ROOT
ATOM      1  N   UNL     1      36.535 -18.651 -21.589  0.00  0.00    -0.244 NA
ATOM      2  N   UNL     1      35.946 -20.289 -19.922  0.00  0.00    -0.244 NA
ATOM      3  C   UNL     1      35.241 -18.627 -21.968  0.00  0.00    +0.115 C 
ATOM      4  C   UNL     1      34.691 -20.195 -20.368  0.00  0.00    +0.115 C 
ATOM      5  C   UNL     1      34.254 -19.393 -21.381  0.00  0.00    +0.100 C 
ATOM      6  C   UNL     1      36.813 -19.493 -20.575  0.00  0.00    +0.250 C 
ENDROOT
BRANCH   3   9
ATOM      7  O   UNL     1      34.390 -18.154 -24.102  0.00  0.00    -0.269 OA
ATOM      8  N   UNL     1      35.209 -16.368 -22.872  0.00  0.00    -0.296 N 
ATOM      9  C   UNL     1      34.918 -17.725 -23.061  0.00  0.00    +0.260 C 
ATOM     10  H   UNL     1      35.628 -16.096 -22.024  0.00  0.00    +0.150 HD
BRANCH   8  11
ATOM     11  C   UNL     1      34.927 -15.345 -23.854  0.00  0.00    +0.117 C 
BRANCH  11  13
ATOM     12  F   UNL     1      32.019 -11.060 -21.666  0.00  0.00    -0.205 F 
ATOM     13  C   UNL     1      34.151 -14.202 -23.266  0.00  0.00    -0.003 C 
ATOM     14  C   UNL     1      33.509 -14.362 -22.044  0.00  0.00    -0.005 C 
ATOM     15  C   UNL     1      32.787 -13.300 -21.499  0.00  0.00    +0.005 C 
ATOM     16  C   UNL     1      34.080 -12.995 -23.953  0.00  0.00    -0.000 C 
ATOM     17  C   UNL     1      32.711 -12.085 -22.181  0.00  0.00    +0.136 C 
ATOM     18  C   UNL     1      33.358 -11.933 -23.407  0.00  0.00    +0.029 C 
ATOM     19  C   UNL     1      32.098 -13.466 -20.186  0.00  0.00    +0.033 C 
ENDBRANCH  11  13
ENDBRANCH   8  11
ENDBRANCH   3   9
BRANCH   4  22
ATOM     20  O   UNL     1      32.518 -20.942 -19.898  0.00  0.00    -0.269 OA
ATOM     21  N   UNL     1      34.258 -21.996 -18.784  0.00  0.00    -0.296 N 
ATOM     22  C   UNL     1      33.718 -21.067 -19.662  0.00  0.00    +0.260 C 
ATOM     23  H   UNL     1      35.235 -22.019 -18.662  0.00  0.00    +0.150 HD
BRANCH  21  24
ATOM     24  C   UNL     1      33.446 -22.928 -18.044  0.00  0.00    +0.117 C 
BRANCH  24  26
ATOM     25  F   UNL     1      35.236 -23.609 -12.758  0.00  0.00    -0.205 F 
ATOM     26  C   UNL     1      33.924 -23.108 -16.642  0.00  0.00    -0.003 C 
ATOM     27  C   UNL     1      35.263 -22.880 -16.327  0.00  0.00    -0.005 C 
ATOM     28  C   UNL     1      35.710 -23.049 -15.016  0.00  0.00    +0.005 C 
ATOM     29  C   UNL     1      33.031 -23.502 -15.646  0.00  0.00    -0.000 C 
ATOM     30  C   UNL     1      34.816 -23.444 -14.021  0.00  0.00    +0.136 C 
ATOM     31  C   UNL     1      33.477 -23.671 -14.336  0.00  0.00    +0.029 C 
ATOM     32  C   UNL     1      37.143 -22.805 -14.682  0.00  0.00    +0.033 C 
ENDBRANCH  24  26
ENDBRANCH  21  24
ENDBRANCH   4  22
TORSDOF 6
ENDMDL
MODEL 9
REMARK VINA RESULT:     -11.3      3.997      6.345
REMARK  Name = 5289110
REMARK  6 active torsions:
REMARK  status: ('A' for Active; 'I' for Inactive)
REMARK    1  A    between atoms: C_3  and  C_9
REMARK    2  A    between atoms: C_4  and  C_22
REMARK    3  A    between atoms: N_8  and  C_11
REMARK    4  A    between atoms: C_11  and  C_13
REMARK    5  A    between atoms: N_21  and  C_24
REMARK    6  A    between atoms: C_24  and  C_26
REMARK                            x       y       z     vdW  Elec       q    Type
REMARK                         _______ _______ _______ _____ _____    ______ ____
ROOT
ATOM      1  N   UNL     1      33.091 -19.875 -21.203  0.00  0.00    -0.244 NA
ATOM      2  N   UNL     1      32.977 -21.377 -19.321  0.00  0.00    -0.244 NA
ATOM      3  C   UNL     1      34.432 -19.858 -21.061  0.00  0.00    +0.115 C 
ATOM      4  C   UNL     1      34.308 -21.296 -19.261  0.00  0.00    +0.115 C 
ATOM      5  C   UNL     1      35.109 -20.565 -20.087  0.00  0.00    +0.100 C 
ATOM      6  C   UNL     1      32.435 -20.643 -20.312  0.00  0.00    +0.250 C 
ENDROOT
BRANCH   3   9
ATOM      7  O   UNL     1      36.400 -18.956 -21.962  0.00  0.00    -0.269 OA
ATOM      8  N   UNL     1      34.403 -18.368 -22.984  0.00  0.00    -0.296 N 
ATOM      9  C   UNL     1      35.159 -19.036 -22.012  0.00  0.00    +0.260 C 
ATOM     10  H   UNL     1      33.425 -18.475 -22.966  0.00  0.00    +0.150 HD
BRANCH   8  11
ATOM     11  C   UNL     1      34.980 -17.532 -24.012  0.00  0.00    +0.117 C 
BRANCH  11  13
ATOM     12  F   UNL     1      33.308 -12.184 -23.551  0.00  0.00    -0.205 F 
ATOM     13  C   UNL     1      34.532 -16.104 -23.891  0.00  0.00    -0.003 C 
ATOM     14  C   UNL     1      33.966 -15.465 -24.988  0.00  0.00    -0.005 C 
ATOM     15  C   UNL     1      33.549 -14.139 -24.876  0.00  0.00    +0.005 C 
ATOM     16  C   UNL     1      34.689 -15.434 -22.683  0.00  0.00    -0.000 C 
ATOM     17  C   UNL     1      33.704 -13.459 -23.667  0.00  0.00    +0.136 C 
ATOM     18  C   UNL     1      34.273 -14.107 -22.571  0.00  0.00    +0.029 C 
ATOM     19  C   UNL     1      32.939 -13.450 -26.050  0.00  0.00    +0.033 C 
ENDBRANCH  11  13
ENDBRANCH   8  11
ENDBRANCH   3   9
BRANCH   4  22
ATOM     20  O   UNL     1      36.150 -22.198 -18.123  0.00  0.00    -0.269 OA
ATOM     21  N   UNL     1      34.048 -22.663 -17.260  0.00  0.00    -0.296 N 
ATOM     22  C   UNL     1      34.926 -22.097 -18.173  0.00  0.00    +0.260 C 
ATOM     23  H   UNL     1      33.081 -22.525 -17.385  0.00  0.00    +0.150 HD
BRANCH  21  24
ATOM     24  C   UNL     1      34.496 -23.446 -16.137  0.00  0.00    +0.117 C 
BRANCH  24  26
ATOM     25  F   UNL     1      30.387 -24.424 -12.426  0.00  0.00    -0.205 F 
ATOM     26  C   UNL     1      33.403 -23.704 -15.154  0.00  0.00    -0.003 C 
ATOM     27  C   UNL     1      32.117 -23.225 -15.399  0.00  0.00    -0.005 C 
ATOM     28  C   UNL     1      31.096 -23.467 -14.479  0.00  0.00    +0.005 C 
ATOM     29  C   UNL     1      33.669 -24.425 -13.990  0.00  0.00    -0.000 C 
ATOM     30  C   UNL     1      31.362 -24.187 -13.316  0.00  0.00    +0.136 C 
ATOM     31  C   UNL     1      32.649 -24.666 -13.070  0.00  0.00    +0.029 C 
ATOM     32  C   UNL     1      29.720 -22.953 -14.745  0.00  0.00    +0.033 C 
ENDBRANCH  24  26
ENDBRANCH  21  24
ENDBRANCH   4  22
TORSDOF 6
ENDMDL
