MODEL 1
REMARK VINA RESULT:     -12.1      0.000      0.000
REMARK  Name = 25174099
REMARK  5 active torsions:
REMARK  status: ('A' for Active; 'I' for Inactive)
REMARK    1  A    between atoms: C_5  and  C_33
REMARK    2  A    between atoms: C_14  and  C_18
REMARK    3  A    between atoms: N_17  and  C_20
REMARK    4  A    between atoms: C_20  and  C_24
REMARK    5  A    between atoms: C_33  and  C_36
REMARK                            x       y       z     vdW  Elec       q    Type
REMARK                         _______ _______ _______ _____ _____    ______ ____
ROOT
ATOM      1  S   UNL     1      34.643 -23.948 -14.455  0.00  0.00    -0.064 S 
ATOM      2  O   UNL     1      31.606 -22.481 -18.066  0.00  0.00    -0.274 OA
ATOM      3  N   UNL     1      35.481 -22.636 -16.633  0.00  0.00    -0.379 NA
ATOM      4  N   UNL     1      33.858 -22.003 -18.272  0.00  0.00    -0.255 N 
ATOM      5  C   UNL     1      30.737 -23.939 -15.429  0.00  0.00    +0.028 C 
ATOM      6  C   UNL     1      30.268 -25.071 -14.481  0.00  0.00    +0.005 C 
ATOM      7  C   UNL     1      32.238 -23.785 -15.374  0.00  0.00    -0.027 C 
ATOM      8  C   UNL     1      30.910 -24.972 -13.090  0.00  0.00    +0.006 C 
ATOM      9  C   UNL     1      32.440 -25.065 -13.160  0.00  0.00    +0.032 C 
ATOM     10  C   UNL     1      32.979 -24.276 -14.313  0.00  0.00    +0.002 C 
ATOM     11  C   UNL     1      33.088 -23.153 -16.341  0.00  0.00    +0.154 C 
ATOM     12  C   UNL     1      34.422 -23.162 -15.953  0.00  0.00    +0.152 C 
ATOM     13  C   UNL     1      32.746 -22.529 -17.616  0.00  0.00    +0.239 C 
ATOM     14  C   UNL     1      35.143 -22.082 -17.756  0.00  0.00    +0.240 C 
ATOM     15  H   UNL     1      33.725 -21.556 -19.139  0.00  0.00    +0.157 HD
ENDROOT
BRANCH  14  18
ATOM     16  O   UNL     1      37.348 -21.848 -18.443  0.00  0.00    -0.266 OA
ATOM     17  N   UNL     1      35.712 -20.521 -19.475  0.00  0.00    -0.294 N 
ATOM     18  C   UNL     1      36.195 -21.468 -18.599  0.00  0.00    +0.290 C 
ATOM     19  H   UNL     1      34.747 -20.331 -19.475  0.00  0.00    +0.150 HD
BRANCH  17  20
ATOM     20  C   UNL     1      36.556 -19.793 -20.395  0.00  0.00    +0.117 C 
BRANCH  20  24
ATOM     21  O   UNL     1      33.493 -17.288 -24.437  0.00  0.00    -0.464 OA
ATOM     22  O   UNL     1      34.097 -13.818 -23.627  0.00  0.00    -0.271 OA
ATOM     23  N   UNL     1      34.898 -15.696 -22.568  0.00  0.00    -0.279 N 
ATOM     24  C   UNL     1      35.759 -19.112 -21.469  0.00  0.00    -0.001 C 
ATOM     25  C   UNL     1      34.975 -17.091 -22.530  0.00  0.00    +0.085 C 
ATOM     26  C   UNL     1      35.713 -17.719 -21.525  0.00  0.00    +0.015 C 
ATOM     27  C   UNL     1      34.278 -17.850 -23.469  0.00  0.00    +0.153 C 
ATOM     28  C   UNL     1      35.059 -19.873 -22.406  0.00  0.00    +0.001 C 
ATOM     29  C   UNL     1      34.312 -19.243 -23.402  0.00  0.00    +0.038 C 
ATOM     30  C   UNL     1      33.808 -15.939 -24.726  0.00  0.00    +0.290 C 
ATOM     31  C   UNL     1      34.249 -15.037 -23.586  0.00  0.00    +0.271 C 
ATOM     32  H   UNL     1      35.319 -15.171 -21.849  0.00  0.00    +0.155 HD
ENDBRANCH  20  24
ENDBRANCH  17  20
ENDBRANCH  14  18
BRANCH   5  33
ATOM     33  C   UNL     1      30.032 -22.622 -15.089  0.00  0.00    +0.089 C 
BRANCH  33  36
ATOM     34  O   UNL     1      27.663 -22.099 -15.097  0.00  0.00    -0.275 OA
ATOM     35  N   UNL     1      28.606 -23.066 -16.958  0.00  0.00    -0.329 N 
ATOM     36  C   UNL     1      28.644 -22.554 -15.679  0.00  0.00    +0.220 C 
ATOM     37  H   UNL     1      27.758 -23.081 -17.457  0.00  0.00    +0.145 HD
ATOM     38  H   UNL     1      29.427 -23.417 -17.372  0.00  0.00    +0.145 HD
ENDBRANCH  33  36
ENDBRANCH   5  33
TORSDOF 5
ENDMDL
MODEL 2
REMARK VINA RESULT:     -11.9      2.031      3.006
REMARK  Name = 25174099
REMARK  5 active torsions:
REMARK  status: ('A' for Active; 'I' for Inactive)
REMARK    1  A    between atoms: C_5  and  C_33
REMARK    2  A    between atoms: C_14  and  C_18
REMARK    3  A    between atoms: N_17  and  C_20
REMARK    4  A    between atoms: C_20  and  C_24
REMARK    5  A    between atoms: C_33  and  C_36
REMARK                            x       y       z     vdW  Elec       q    Type
REMARK                         _______ _______ _______ _____ _____    ______ ____
ROOT
ATOM      1  S   UNL     1      37.389 -21.965 -16.123  0.00  0.00    -0.064 S 
ATOM      2  O   UNL     1      33.100 -22.761 -18.443  0.00  0.00    -0.274 OA
ATOM      3  N   UNL     1      36.805 -20.929 -18.522  0.00  0.00    -0.379 NA
ATOM      4  N   UNL     1      34.672 -21.425 -19.483  0.00  0.00    -0.255 N 
ATOM      5  C   UNL     1      33.865 -23.839 -15.599  0.00  0.00    +0.028 C 
ATOM      6  C   UNL     1      34.301 -24.826 -14.487  0.00  0.00    +0.005 C 
ATOM      7  C   UNL     1      35.049 -23.050 -16.105  0.00  0.00    -0.027 C 
ATOM      8  C   UNL     1      35.200 -24.162 -13.435  0.00  0.00    +0.006 C 
ATOM      9  C   UNL     1      36.488 -23.605 -14.055  0.00  0.00    +0.032 C 
ATOM     10  C   UNL     1      36.213 -22.933 -15.365  0.00  0.00    +0.002 C 
ATOM     11  C   UNL     1      35.162 -22.342 -17.347  0.00  0.00    +0.154 C 
ATOM     12  C   UNL     1      36.384 -21.695 -17.475  0.00  0.00    +0.152 C 
ATOM     13  C   UNL     1      34.200 -22.219 -18.440  0.00  0.00    +0.239 C 
ATOM     14  C   UNL     1      35.926 -20.832 -19.471  0.00  0.00    +0.240 C 
ATOM     15  H   UNL     1      34.090 -21.277 -20.264  0.00  0.00    +0.157 HD
ENDROOT
BRANCH  14  18
ATOM     16  O   UNL     1      37.389 -19.587 -20.775  0.00  0.00    -0.266 OA
ATOM     17  N   UNL     1      35.190 -19.881 -21.537  0.00  0.00    -0.294 N 
ATOM     18  C   UNL     1      36.251 -20.028 -20.671  0.00  0.00    +0.290 C 
ATOM     19  H   UNL     1      34.333 -20.304 -21.302  0.00  0.00    +0.150 HD
BRANCH  17  20
ATOM     20  C   UNL     1      35.276 -19.138 -22.773  0.00  0.00    +0.117 C 
BRANCH  20  24
ATOM     21  O   UNL     1      34.101 -13.662 -21.977  0.00  0.00    -0.464 OA
ATOM     22  O   UNL     1      33.382 -12.670 -25.377  0.00  0.00    -0.271 OA
ATOM     23  N   UNL     1      33.986 -14.744 -24.588  0.00  0.00    -0.279 N 
ATOM     24  C   UNL     1      34.949 -17.685 -22.578  0.00  0.00    -0.001 C 
ATOM     25  C   UNL     1      34.296 -15.547 -23.487  0.00  0.00    +0.085 C 
ATOM     26  C   UNL     1      34.606 -16.895 -23.675  0.00  0.00    +0.015 C 
ATOM     27  C   UNL     1      34.338 -14.988 -22.211  0.00  0.00    +0.153 C 
ATOM     28  C   UNL     1      34.995 -17.127 -21.300  0.00  0.00    +0.001 C 
ATOM     29  C   UNL     1      34.697 -15.776 -21.117  0.00  0.00    +0.038 C 
ATOM     30  C   UNL     1      33.360 -13.019 -22.996  0.00  0.00    +0.290 C 
ATOM     31  C   UNL     1      33.597 -13.433 -24.438  0.00  0.00    +0.271 C 
ATOM     32  H   UNL     1      34.047 -15.125 -25.494  0.00  0.00    +0.155 HD
ENDBRANCH  20  24
ENDBRANCH  17  20
ENDBRANCH  14  18
BRANCH   5  33
ATOM     33  C   UNL     1      32.756 -22.910 -15.093  0.00  0.00    +0.089 C 
BRANCH  33  36
ATOM     34  O   UNL     1      30.804 -24.332 -14.866  0.00  0.00    -0.275 OA
ATOM     35  N   UNL     1      30.848 -22.742 -16.527  0.00  0.00    -0.329 N 
ATOM     36  C   UNL     1      31.382 -23.421 -15.454  0.00  0.00    +0.220 C 
ATOM     37  H   UNL     1      29.954 -22.979 -16.864  0.00  0.00    +0.145 HD
ATOM     38  H   UNL     1      31.361 -22.020 -16.957  0.00  0.00    +0.145 HD
ENDBRANCH  33  36
ENDBRANCH   5  33
TORSDOF 5
ENDMDL
MODEL 3
REMARK VINA RESULT:     -11.6      3.184     10.389
REMARK  Name = 25174099
REMARK  5 active torsions:
REMARK  status: ('A' for Active; 'I' for Inactive)
REMARK    1  A    between atoms: C_5  and  C_33
REMARK    2  A    between atoms: C_14  and  C_18
REMARK    3  A    between atoms: N_17  and  C_20
REMARK    4  A    between atoms: C_20  and  C_24
REMARK    5  A    between atoms: C_33  and  C_36
REMARK                            x       y       z     vdW  Elec       q    Type
REMARK                         _______ _______ _______ _____ _____    ______ ____
ROOT
ATOM      1  S   UNL     1      34.585 -16.947 -24.898  0.00  0.00    -0.064 S 
ATOM      2  O   UNL     1      34.553 -14.670 -20.512  0.00  0.00    -0.274 OA
ATOM      3  N   UNL     1      35.411 -18.114 -22.634  0.00  0.00    -0.379 NA
ATOM      4  N   UNL     1      35.315 -16.851 -20.605  0.00  0.00    -0.255 N 
ATOM      5  C   UNL     1      33.529 -13.447 -23.212  0.00  0.00    +0.028 C 
ATOM      6  C   UNL     1      33.498 -12.581 -24.496  0.00  0.00    +0.005 C 
ATOM      7  C   UNL     1      34.027 -14.839 -23.519  0.00  0.00    -0.027 C 
ATOM      8  C   UNL     1      32.846 -13.312 -25.678  0.00  0.00    +0.006 C 
ATOM      9  C   UNL     1      33.597 -14.601 -26.037  0.00  0.00    +0.032 C 
ATOM     10  C   UNL     1      34.012 -15.347 -24.806  0.00  0.00    +0.002 C 
ATOM     11  C   UNL     1      34.562 -15.799 -22.598  0.00  0.00    +0.154 C 
ATOM     12  C   UNL     1      34.893 -16.996 -23.220  0.00  0.00    +0.152 C 
ATOM     13  C   UNL     1      34.790 -15.685 -21.160  0.00  0.00    +0.239 C 
ATOM     14  C   UNL     1      35.593 -17.983 -21.356  0.00  0.00    +0.240 C 
ATOM     15  H   UNL     1      35.496 -16.872 -19.638  0.00  0.00    +0.157 HD
ENDROOT
BRANCH  14  18
ATOM     16  O   UNL     1      37.249 -18.980 -20.071  0.00  0.00    -0.266 OA
ATOM     17  N   UNL     1      35.323 -20.224 -20.568  0.00  0.00    -0.294 N 
ATOM     18  C   UNL     1      36.150 -19.122 -20.591  0.00  0.00    +0.290 C 
ATOM     19  H   UNL     1      34.462 -20.173 -21.042  0.00  0.00    +0.150 HD
BRANCH  17  20
ATOM     20  C   UNL     1      35.660 -21.449 -19.880  0.00  0.00    +0.117 C 
BRANCH  20  24
ATOM     21  O   UNL     1      31.586 -23.001 -16.276  0.00  0.00    -0.464 OA
ATOM     22  O   UNL     1      33.576 -24.630 -13.736  0.00  0.00    -0.271 OA
ATOM     23  N   UNL     1      34.280 -23.630 -15.685  0.00  0.00    -0.279 N 
ATOM     24  C   UNL     1      34.593 -21.857 -18.906  0.00  0.00    -0.001 C 
ATOM     25  C   UNL     1      33.942 -22.913 -16.836  0.00  0.00    +0.085 C 
ATOM     26  C   UNL     1      34.938 -22.542 -17.741  0.00  0.00    +0.015 C 
ATOM     27  C   UNL     1      32.606 -22.610 -17.097  0.00  0.00    +0.153 C 
ATOM     28  C   UNL     1      33.256 -21.557 -19.171  0.00  0.00    +0.001 C 
ATOM     29  C   UNL     1      32.262 -21.939 -18.271  0.00  0.00    +0.038 C 
ATOM     30  C   UNL     1      31.989 -23.288 -14.950  0.00  0.00    +0.290 C 
ATOM     31  C   UNL     1      33.341 -23.944 -14.729  0.00  0.00    +0.271 C 
ATOM     32  H   UNL     1      35.212 -23.918 -15.554  0.00  0.00    +0.155 HD
ENDBRANCH  20  24
ENDBRANCH  17  20
ENDBRANCH  14  18
BRANCH   5  33
ATOM     33  C   UNL     1      32.146 -13.486 -22.552  0.00  0.00    +0.089 C 
BRANCH  33  36
ATOM     34  O   UNL     1      31.956 -11.259 -21.610  0.00  0.00    -0.275 OA
ATOM     35  N   UNL     1      31.986 -13.076 -20.201  0.00  0.00    -0.329 N 
ATOM     36  C   UNL     1      32.021 -12.474 -21.440  0.00  0.00    +0.220 C 
ATOM     37  H   UNL     1      31.906 -12.526 -19.388  0.00  0.00    +0.145 HD
ATOM     38  H   UNL     1      32.041 -14.056 -20.128  0.00  0.00    +0.145 HD
ENDBRANCH  33  36
ENDBRANCH   5  33
TORSDOF 5
ENDMDL
MODEL 4
REMARK VINA RESULT:     -11.5      4.672     11.863
REMARK  Name = 25174099
REMARK  5 active torsions:
REMARK  status: ('A' for Active; 'I' for Inactive)
REMARK    1  A    between atoms: C_5  and  C_33
REMARK    2  A    between atoms: C_14  and  C_18
REMARK    3  A    between atoms: N_17  and  C_20
REMARK    4  A    between atoms: C_20  and  C_24
REMARK    5  A    between atoms: C_33  and  C_36
REMARK                            x       y       z     vdW  Elec       q    Type
REMARK                         _______ _______ _______ _____ _____    ______ ____
ROOT
ATOM      1  S   UNL     1      32.064 -12.761 -20.739  0.00  0.00    -0.064 S 
ATOM      2  O   UNL     1      33.853 -10.911 -24.958  0.00  0.00    -0.274 OA
ATOM      3  N   UNL     1      33.192 -14.271 -22.640  0.00  0.00    -0.379 NA
ATOM      4  N   UNL     1      34.005 -13.192 -24.614  0.00  0.00    -0.255 N 
ATOM      5  C   UNL     1      32.595  -9.241 -22.619  0.00  0.00    +0.028 C 
ATOM      6  C   UNL     1      31.564  -8.405 -21.822  0.00  0.00    +0.005 C 
ATOM      7  C   UNL     1      32.539 -10.692 -22.205  0.00  0.00    -0.027 C 
ATOM      8  C   UNL     1      31.606  -8.704 -20.317  0.00  0.00    +0.006 C 
ATOM      9  C   UNL     1      31.298 -10.178 -20.020  0.00  0.00    +0.032 C 
ATOM     10  C   UNL     1      31.975 -11.082 -21.003  0.00  0.00    +0.002 C 
ATOM     11  C   UNL     1      33.022 -11.829 -22.934  0.00  0.00    +0.154 C 
ATOM     12  C   UNL     1      32.836 -13.017 -22.239  0.00  0.00    +0.152 C 
ATOM     13  C   UNL     1      33.656 -11.893 -24.248  0.00  0.00    +0.239 C 
ATOM     14  C   UNL     1      33.760 -14.293 -23.807  0.00  0.00    +0.240 C 
ATOM     15  H   UNL     1      34.445 -13.334 -25.483  0.00  0.00    +0.157 HD
ENDROOT
BRANCH  14  18
ATOM     16  O   UNL     1      34.210 -15.715 -25.585  0.00  0.00    -0.266 OA
ATOM     17  N   UNL     1      34.548 -16.514 -23.406  0.00  0.00    -0.294 N 
ATOM     18  C   UNL     1      34.199 -15.591 -24.367  0.00  0.00    +0.290 C 
ATOM     19  H   UNL     1      34.482 -16.252 -22.459  0.00  0.00    +0.150 HD
BRANCH  17  20
ATOM     20  C   UNL     1      35.008 -17.847 -23.721  0.00  0.00    +0.117 C 
BRANCH  20  24
ATOM     21  O   UNL     1      36.010 -20.852 -19.034  0.00  0.00    -0.464 OA
ATOM     22  O   UNL     1      32.718 -22.222 -18.446  0.00  0.00    -0.271 OA
ATOM     23  N   UNL     1      33.406 -20.826 -20.140  0.00  0.00    -0.279 N 
ATOM     24  C   UNL     1      35.259 -18.660 -22.484  0.00  0.00    -0.001 C 
ATOM     25  C   UNL     1      34.457 -20.136 -20.751  0.00  0.00    +0.085 C 
ATOM     26  C   UNL     1      34.215 -19.376 -21.897  0.00  0.00    +0.015 C 
ATOM     27  C   UNL     1      35.731 -20.173 -20.187  0.00  0.00    +0.153 C 
ATOM     28  C   UNL     1      36.534 -18.693 -21.919  0.00  0.00    +0.001 C 
ATOM     29  C   UNL     1      36.770 -19.443 -20.767  0.00  0.00    +0.038 C 
ATOM     30  C   UNL     1      35.083 -21.876 -18.728  0.00  0.00    +0.290 C 
ATOM     31  C   UNL     1      33.617 -21.650 -19.058  0.00  0.00    +0.271 C 
ATOM     32  H   UNL     1      32.493 -20.722 -20.492  0.00  0.00    +0.155 HD
ENDBRANCH  20  24
ENDBRANCH  17  20
ENDBRANCH  14  18
BRANCH   5  33
ATOM     33  C   UNL     1      34.007  -8.670 -22.445  0.00  0.00    +0.089 C 
BRANCH  33  36
ATOM     34  O   UNL     1      33.923  -6.391 -23.273  0.00  0.00    -0.275 OA
ATOM     35  N   UNL     1      35.013  -7.996 -24.508  0.00  0.00    -0.329 N 
ATOM     36  C   UNL     1      34.290  -7.554 -23.421  0.00  0.00    +0.220 C 
ATOM     37  H   UNL     1      35.265  -7.366 -25.221  0.00  0.00    +0.145 HD
ATOM     38  H   UNL     1      35.279  -8.942 -24.571  0.00  0.00    +0.145 HD
ENDBRANCH  33  36
ENDBRANCH   5  33
TORSDOF 5
ENDMDL
MODEL 5
REMARK VINA RESULT:     -11.2      3.248     10.058
REMARK  Name = 25174099
REMARK  5 active torsions:
REMARK  status: ('A' for Active; 'I' for Inactive)
REMARK    1  A    between atoms: C_5  and  C_33
REMARK    2  A    between atoms: C_14  and  C_18
REMARK    3  A    between atoms: N_17  and  C_20
REMARK    4  A    between atoms: C_20  and  C_24
REMARK    5  A    between atoms: C_33  and  C_36
REMARK                            x       y       z     vdW  Elec       q    Type
REMARK                         _______ _______ _______ _____ _____    ______ ____
ROOT
ATOM      1  S   UNL     1      36.932 -20.574 -19.547  0.00  0.00    -0.064 S 
ATOM      2  O   UNL     1      32.149 -20.343 -20.767  0.00  0.00    -0.274 OA
ATOM      3  N   UNL     1      35.054 -22.105 -18.410  0.00  0.00    -0.379 NA
ATOM      4  N   UNL     1      32.789 -21.852 -19.138  0.00  0.00    -0.255 N 
ATOM      5  C   UNL     1      34.453 -18.673 -22.086  0.00  0.00    +0.028 C 
ATOM      6  C   UNL     1      35.363 -17.466 -22.425  0.00  0.00    +0.005 C 
ATOM      7  C   UNL     1      35.087 -19.538 -21.024  0.00  0.00    -0.027 C 
ATOM      8  C   UNL     1      36.826 -17.879 -22.641  0.00  0.00    +0.006 C 
ATOM      9  C   UNL     1      37.422 -18.541 -21.392  0.00  0.00    +0.032 C 
ATOM     10  C   UNL     1      36.444 -19.480 -20.756  0.00  0.00    +0.002 C 
ATOM     11  C   UNL     1      34.441 -20.494 -20.172  0.00  0.00    +0.154 C 
ATOM     12  C   UNL     1      35.337 -21.138 -19.329  0.00  0.00    +0.152 C 
ATOM     13  C   UNL     1      33.029 -20.859 -20.086  0.00  0.00    +0.239 C 
ATOM     14  C   UNL     1      33.794 -22.414 -18.364  0.00  0.00    +0.240 C 
ATOM     15  H   UNL     1      31.866 -22.170 -19.012  0.00  0.00    +0.157 HD
ENDROOT
BRANCH  14  18
ATOM     16  O   UNL     1      33.072 -24.559 -17.853  0.00  0.00    -0.266 OA
ATOM     17  N   UNL     1      33.293 -23.012 -16.104  0.00  0.00    -0.294 N 
ATOM     18  C   UNL     1      33.344 -23.452 -17.409  0.00  0.00    +0.290 C 
ATOM     19  H   UNL     1      33.548 -22.081 -15.914  0.00  0.00    +0.150 HD
BRANCH  17  20
ATOM     20  C   UNL     1      32.883 -23.853 -15.003  0.00  0.00    +0.117 C 
BRANCH  20  24
ATOM     21  O   UNL     1      37.242 -25.621 -11.861  0.00  0.00    -0.464 OA
ATOM     22  O   UNL     1      39.529 -26.637 -14.468  0.00  0.00    -0.271 OA
ATOM     23  N   UNL     1      37.415 -25.756 -14.681  0.00  0.00    -0.279 N 
ATOM     24  C   UNL     1      34.054 -24.314 -14.184  0.00  0.00    -0.001 C 
ATOM     25  C   UNL     1      36.284 -25.228 -14.052  0.00  0.00    +0.085 C 
ATOM     26  C   UNL     1      35.195 -24.807 -14.818  0.00  0.00    +0.015 C 
ATOM     27  C   UNL     1      36.230 -25.167 -12.660  0.00  0.00    +0.153 C 
ATOM     28  C   UNL     1      33.997 -24.256 -12.792  0.00  0.00    +0.001 C 
ATOM     29  C   UNL     1      35.082 -24.689 -12.028  0.00  0.00    +0.038 C 
ATOM     30  C   UNL     1      38.499 -25.697 -12.507  0.00  0.00    +0.290 C 
ATOM     31  C   UNL     1      38.538 -26.107 -13.969  0.00  0.00    +0.271 C 
ATOM     32  H   UNL     1      37.408 -25.879 -15.658  0.00  0.00    +0.155 HD
ENDBRANCH  20  24
ENDBRANCH  17  20
ENDBRANCH  14  18
BRANCH   5  33
ATOM     33  C   UNL     1      34.140 -19.486 -23.348  0.00  0.00    +0.089 C 
BRANCH  33  36
ATOM     34  O   UNL     1      34.429 -17.765 -25.033  0.00  0.00    -0.275 OA
ATOM     35  N   UNL     1      32.410 -18.856 -24.876  0.00  0.00    -0.329 N 
ATOM     36  C   UNL     1      33.711 -18.605 -24.496  0.00  0.00    +0.220 C 
ATOM     37  H   UNL     1      32.007 -18.348 -25.616  0.00  0.00    +0.145 HD
ATOM     38  H   UNL     1      31.884 -19.543 -24.406  0.00  0.00    +0.145 HD
ENDBRANCH  33  36
ENDBRANCH   5  33
TORSDOF 5
ENDMDL
MODEL 6
REMARK VINA RESULT:     -10.7      2.173      3.381
REMARK  Name = 25174099
REMARK  5 active torsions:
REMARK  status: ('A' for Active; 'I' for Inactive)
REMARK    1  A    between atoms: C_5  and  C_33
REMARK    2  A    between atoms: C_14  and  C_18
REMARK    3  A    between atoms: N_17  and  C_20
REMARK    4  A    between atoms: C_20  and  C_24
REMARK    5  A    between atoms: C_33  and  C_36
REMARK                            x       y       z     vdW  Elec       q    Type
REMARK                         _______ _______ _______ _____ _____    ______ ____
ROOT
ATOM      1  S   UNL     1      37.105 -21.670 -17.296  0.00  0.00    -0.064 S 
ATOM      2  O   UNL     1      32.404 -22.384 -18.642  0.00  0.00    -0.274 OA
ATOM      3  N   UNL     1      36.035 -20.605 -19.506  0.00  0.00    -0.379 NA
ATOM      4  N   UNL     1      33.737 -21.061 -19.989  0.00  0.00    -0.255 N 
ATOM      5  C   UNL     1      33.747 -23.499 -16.036  0.00  0.00    +0.028 C 
ATOM      6  C   UNL     1      34.396 -24.502 -15.050  0.00  0.00    +0.005 C 
ATOM      7  C   UNL     1      34.806 -22.722 -16.781  0.00  0.00    -0.027 C 
ATOM      8  C   UNL     1      35.511 -23.861 -14.212  0.00  0.00    +0.006 C 
ATOM      9  C   UNL     1      36.644 -23.316 -15.092  0.00  0.00    +0.032 C 
ATOM     10  C   UNL     1      36.104 -22.629 -16.308  0.00  0.00    +0.002 C 
ATOM     11  C   UNL     1      34.660 -22.004 -18.014  0.00  0.00    +0.154 C 
ATOM     12  C   UNL     1      35.837 -21.374 -18.398  0.00  0.00    +0.152 C 
ATOM     13  C   UNL     1      33.488 -21.858 -18.873  0.00  0.00    +0.239 C 
ATOM     14  C   UNL     1      34.974 -20.486 -20.243  0.00  0.00    +0.240 C 
ATOM     15  H   UNL     1      33.003 -20.898 -20.625  0.00  0.00    +0.157 HD
ENDROOT
BRANCH  14  18
ATOM     16  O   UNL     1      34.119 -19.760 -22.275  0.00  0.00    -0.266 OA
ATOM     17  N   UNL     1      36.188 -18.911 -21.569  0.00  0.00    -0.294 N 
ATOM     18  C   UNL     1      35.046 -19.676 -21.480  0.00  0.00    +0.290 C 
ATOM     19  H   UNL     1      36.842 -18.959 -20.835  0.00  0.00    +0.150 HD
BRANCH  17  20
ATOM     20  C   UNL     1      36.471 -18.041 -22.688  0.00  0.00    +0.117 C 
BRANCH  20  24
ATOM     21  O   UNL     1      32.614 -13.937 -23.213  0.00  0.00    -0.464 OA
ATOM     22  O   UNL     1      32.418 -12.811 -19.785  0.00  0.00    -0.271 OA
ATOM     23  N   UNL     1      33.723 -14.487 -20.670  0.00  0.00    -0.279 N 
ATOM     24  C   UNL     1      35.458 -16.940 -22.812  0.00  0.00    -0.001 C 
ATOM     25  C   UNL     1      34.137 -15.190 -21.805  0.00  0.00    +0.085 C 
ATOM     26  C   UNL     1      35.074 -16.217 -21.682  0.00  0.00    +0.015 C 
ATOM     27  C   UNL     1      33.578 -14.892 -23.047  0.00  0.00    +0.153 C 
ATOM     28  C   UNL     1      34.898 -16.646 -24.055  0.00  0.00    +0.001 C 
ATOM     29  C   UNL     1      33.952 -15.627 -24.172  0.00  0.00    +0.038 C 
ATOM     30  C   UNL     1      32.573 -12.970 -22.181  0.00  0.00    +0.290 C 
ATOM     31  C   UNL     1      32.863 -13.416 -20.758  0.00  0.00    +0.271 C 
ATOM     32  H   UNL     1      34.054 -14.763 -19.785  0.00  0.00    +0.155 HD
ENDBRANCH  20  24
ENDBRANCH  17  20
ENDBRANCH  14  18
BRANCH   5  33
ATOM     33  C   UNL     1      32.787 -22.559 -15.298  0.00  0.00    +0.089 C 
BRANCH  33  36
ATOM     34  O   UNL     1      30.844 -23.618 -14.305  0.00  0.00    -0.275 OA
ATOM     35  N   UNL     1      30.747 -22.919 -16.494  0.00  0.00    -0.329 N 
ATOM     36  C   UNL     1      31.375 -23.092 -15.280  0.00  0.00    +0.220 C 
ATOM     37  H   UNL     1      29.819 -23.224 -16.616  0.00  0.00    +0.145 HD
ATOM     38  H   UNL     1      31.226 -22.489 -17.239  0.00  0.00    +0.145 HD
ENDBRANCH  33  36
ENDBRANCH   5  33
TORSDOF 5
ENDMDL
MODEL 7
REMARK VINA RESULT:     -10.5      9.286     16.178
REMARK  Name = 25174099
REMARK  5 active torsions:
REMARK  status: ('A' for Active; 'I' for Inactive)
REMARK    1  A    between atoms: C_5  and  C_33
REMARK    2  A    between atoms: C_14  and  C_18
REMARK    3  A    between atoms: N_17  and  C_20
REMARK    4  A    between atoms: C_20  and  C_24
REMARK    5  A    between atoms: C_33  and  C_36
REMARK                            x       y       z     vdW  Elec       q    Type
REMARK                         _______ _______ _______ _____ _____    ______ ____
ROOT
ATOM      1  S   UNL     1      34.343  -6.701 -24.678  0.00  0.00    -0.064 S 
ATOM      2  O   UNL     1      30.627  -4.600 -22.189  0.00  0.00    -0.274 OA
ATOM      3  N   UNL     1      33.052  -7.914 -22.670  0.00  0.00    -0.379 NA
ATOM      4  N   UNL     1      31.273  -6.736 -21.588  0.00  0.00    -0.255 N 
ATOM      5  C   UNL     1      32.154  -3.323 -24.612  0.00  0.00    +0.028 C 
ATOM      6  C   UNL     1      33.128  -2.411 -25.398  0.00  0.00    +0.005 C 
ATOM      7  C   UNL     1      32.775  -4.677 -24.363  0.00  0.00    -0.027 C 
ATOM      8  C   UNL     1      33.754  -3.126 -26.605  0.00  0.00    +0.006 C 
ATOM      9  C   UNL     1      34.557  -4.362 -26.182  0.00  0.00    +0.032 C 
ATOM     10  C   UNL     1      33.842  -5.135 -25.116  0.00  0.00    +0.002 C 
ATOM     11  C   UNL     1      32.394  -5.646 -23.377  0.00  0.00    +0.154 C 
ATOM     12  C   UNL     1      33.162  -6.801 -23.450  0.00  0.00    +0.152 C 
ATOM     13  C   UNL     1      31.351  -5.576 -22.357  0.00  0.00    +0.239 C 
ATOM     14  C   UNL     1      32.111  -7.825 -21.781  0.00  0.00    +0.240 C 
ATOM     15  H   UNL     1      30.594  -6.786 -20.878  0.00  0.00    +0.157 HD
ENDROOT
BRANCH  14  18
ATOM     16  O   UNL     1      32.083  -8.789 -19.670  0.00  0.00    -0.266 OA
ATOM     17  N   UNL     1      31.451 -10.106 -21.506  0.00  0.00    -0.294 N 
ATOM     18  C   UNL     1      31.880  -8.964 -20.864  0.00  0.00    +0.290 C 
ATOM     19  H   UNL     1      31.336 -10.079 -22.483  0.00  0.00    +0.150 HD
BRANCH  17  20
ATOM     20  C   UNL     1      31.161 -11.340 -20.812  0.00  0.00    +0.117 C 
BRANCH  20  24
ATOM     21  O   UNL     1      34.545 -15.586 -22.398  0.00  0.00    -0.464 OA
ATOM     22  O   UNL     1      33.896 -15.617 -25.953  0.00  0.00    -0.271 OA
ATOM     23  N   UNL     1      32.999 -14.237 -24.346  0.00  0.00    -0.279 N 
ATOM     24  C   UNL     1      32.063 -12.456 -21.252  0.00  0.00    -0.001 C 
ATOM     25  C   UNL     1      32.966 -13.850 -23.003  0.00  0.00    +0.085 C 
ATOM     26  C   UNL     1      32.120 -12.816 -22.599  0.00  0.00    +0.015 C 
ATOM     27  C   UNL     1      33.745 -14.528 -22.066  0.00  0.00    +0.153 C 
ATOM     28  C   UNL     1      32.839 -13.136 -20.313  0.00  0.00    +0.001 C 
ATOM     29  C   UNL     1      33.675 -14.177 -20.718  0.00  0.00    +0.038 C 
ATOM     30  C   UNL     1      34.901 -15.635 -23.766  0.00  0.00    +0.290 C 
ATOM     31  C   UNL     1      33.876 -15.196 -24.799  0.00  0.00    +0.271 C 
ATOM     32  H   UNL     1      32.380 -13.814 -24.983  0.00  0.00    +0.155 HD
ENDBRANCH  20  24
ENDBRANCH  17  20
ENDBRANCH  14  18
BRANCH   5  33
ATOM     33  C   UNL     1      30.818  -3.454 -25.352  0.00  0.00    +0.089 C 
BRANCH  33  36
ATOM     34  O   UNL     1      28.800  -2.113 -25.475  0.00  0.00    -0.275 OA
ATOM     35  N   UNL     1      30.096  -2.022 -23.577  0.00  0.00    -0.329 N 
ATOM     36  C   UNL     1      29.791  -2.472 -24.843  0.00  0.00    +0.220 C 
ATOM     37  H   UNL     1      29.505  -1.375 -23.128  0.00  0.00    +0.145 HD
ATOM     38  H   UNL     1      30.906  -2.347 -23.121  0.00  0.00    +0.145 HD
ENDBRANCH  33  36
ENDBRANCH   5  33
TORSDOF 5
ENDMDL
MODEL 8
REMARK VINA RESULT:     -10.4      3.074     10.065
REMARK  Name = 25174099
REMARK  5 active torsions:
REMARK  status: ('A' for Active; 'I' for Inactive)
REMARK    1  A    between atoms: C_5  and  C_33
REMARK    2  A    between atoms: C_14  and  C_18
REMARK    3  A    between atoms: N_17  and  C_20
REMARK    4  A    between atoms: C_20  and  C_24
REMARK    5  A    between atoms: C_33  and  C_36
REMARK                            x       y       z     vdW  Elec       q    Type
REMARK                         _______ _______ _______ _____ _____    ______ ____
ROOT
ATOM      1  S   UNL     1      34.667 -17.052 -24.794  0.00  0.00    -0.064 S 
ATOM      2  O   UNL     1      34.610 -14.945 -20.325  0.00  0.00    -0.274 OA
ATOM      3  N   UNL     1      35.525 -18.288 -22.580  0.00  0.00    -0.379 NA
ATOM      4  N   UNL     1      35.414 -17.105 -20.504  0.00  0.00    -0.255 N 
ATOM      5  C   UNL     1      33.551 -13.640 -22.973  0.00  0.00    +0.028 C 
ATOM      6  C   UNL     1      33.498 -12.727 -24.223  0.00  0.00    +0.005 C 
ATOM      7  C   UNL     1      34.074 -15.009 -23.334  0.00  0.00    -0.027 C 
ATOM      8  C   UNL     1      32.855 -13.425 -25.430  0.00  0.00    +0.006 C 
ATOM      9  C   UNL     1      33.629 -14.684 -25.840  0.00  0.00    +0.032 C 
ATOM     10  C   UNL     1      34.064 -15.468 -24.640  0.00  0.00    +0.002 C 
ATOM     11  C   UNL     1      34.632 -15.993 -22.453  0.00  0.00    +0.154 C 
ATOM     12  C   UNL     1      34.983 -17.159 -23.121  0.00  0.00    +0.152 C 
ATOM     13  C   UNL     1      34.864 -15.929 -21.012  0.00  0.00    +0.239 C 
ATOM     14  C   UNL     1      35.710 -18.202 -21.299  0.00  0.00    +0.240 C 
ATOM     15  H   UNL     1      35.599 -17.159 -19.539  0.00  0.00    +0.157 HD
ENDROOT
BRANCH  14  18
ATOM     16  O   UNL     1      37.249 -19.153 -19.844  0.00  0.00    -0.266 OA
ATOM     17  N   UNL     1      35.652 -20.549 -20.845  0.00  0.00    -0.294 N 
ATOM     18  C   UNL     1      36.292 -19.358 -20.579  0.00  0.00    +0.290 C 
ATOM     19  H   UNL     1      34.889 -20.542 -21.466  0.00  0.00    +0.150 HD
BRANCH  17  20
ATOM     20  C   UNL     1      36.047 -21.807 -20.254  0.00  0.00    +0.117 C 
BRANCH  20  24
ATOM     21  O   UNL     1      33.515 -22.669 -15.269  0.00  0.00    -0.464 OA
ATOM     22  O   UNL     1      30.074 -22.926 -16.344  0.00  0.00    -0.271 OA
ATOM     23  N   UNL     1      31.951 -22.565 -17.624  0.00  0.00    -0.279 N 
ATOM     24  C   UNL     1      35.360 -22.049 -18.941  0.00  0.00    -0.001 C 
ATOM     25  C   UNL     1      33.343 -22.440 -17.675  0.00  0.00    +0.085 C 
ATOM     26  C   UNL     1      33.974 -22.208 -18.898  0.00  0.00    +0.015 C 
ATOM     27  C   UNL     1      34.088 -22.503 -16.499  0.00  0.00    +0.153 C 
ATOM     28  C   UNL     1      36.107 -22.108 -17.764  0.00  0.00    +0.001 C 
ATOM     29  C   UNL     1      35.472 -22.328 -16.542  0.00  0.00    +0.038 C 
ATOM     30  C   UNL     1      32.222 -23.243 -15.306  0.00  0.00    +0.290 C 
ATOM     31  C   UNL     1      31.297 -22.873 -16.454  0.00  0.00    +0.271 C 
ATOM     32  H   UNL     1      31.426 -22.429 -18.445  0.00  0.00    +0.155 HD
ENDBRANCH  20  24
ENDBRANCH  17  20
ENDBRANCH  14  18
BRANCH   5  33
ATOM     33  C   UNL     1      32.172 -13.731 -22.310  0.00  0.00    +0.089 C 
BRANCH  33  36
ATOM     34  O   UNL     1      31.877 -11.526 -21.343  0.00  0.00    -0.275 OA
ATOM     35  N   UNL     1      32.052 -13.349 -19.951  0.00  0.00    -0.329 N 
ATOM     36  C   UNL     1      32.018 -12.736 -21.186  0.00  0.00    +0.220 C 
ATOM     37  H   UNL     1      31.962 -12.811 -19.132  0.00  0.00    +0.145 HD
ATOM     38  H   UNL     1      32.167 -14.325 -19.889  0.00  0.00    +0.145 HD
ENDBRANCH  33  36
ENDBRANCH   5  33
TORSDOF 5
ENDMDL
MODEL 9
REMARK VINA RESULT:     -10.4      4.514     11.632
REMARK  Name = 25174099
REMARK  5 active torsions:
REMARK  status: ('A' for Active; 'I' for Inactive)
REMARK    1  A    between atoms: C_5  and  C_33
REMARK    2  A    between atoms: C_14  and  C_18
REMARK    3  A    between atoms: N_17  and  C_20
REMARK    4  A    between atoms: C_20  and  C_24
REMARK    5  A    between atoms: C_33  and  C_36
REMARK                            x       y       z     vdW  Elec       q    Type
REMARK                         _______ _______ _______ _____ _____    ______ ____
ROOT
ATOM      1  S   UNL     1      32.322 -13.014 -20.449  0.00  0.00    -0.064 S 
ATOM      2  O   UNL     1      33.917 -11.571 -24.898  0.00  0.00    -0.274 OA
ATOM      3  N   UNL     1      33.628 -14.633 -22.134  0.00  0.00    -0.379 NA
ATOM      4  N   UNL     1      34.326 -13.750 -24.245  0.00  0.00    -0.255 N 
ATOM      5  C   UNL     1      32.460  -9.749 -22.801  0.00  0.00    +0.028 C 
ATOM      6  C   UNL     1      31.334  -8.934 -22.117  0.00  0.00    +0.005 C 
ATOM      7  C   UNL     1      32.568 -11.126 -22.191  0.00  0.00    -0.027 C 
ATOM      8  C   UNL     1      31.400  -9.017 -20.585  0.00  0.00    +0.006 C 
ATOM      9  C   UNL     1      31.261 -10.461 -20.085  0.00  0.00    +0.032 C 
ATOM     10  C   UNL     1      32.044 -11.409 -20.941  0.00  0.00    +0.002 C 
ATOM     11  C   UNL     1      33.183 -12.290 -22.760  0.00  0.00    +0.154 C 
ATOM     12  C   UNL     1      33.129 -13.384 -21.906  0.00  0.00    +0.152 C 
ATOM     13  C   UNL     1      33.829 -12.461 -24.059  0.00  0.00    +0.239 C 
ATOM     14  C   UNL     1      34.203 -14.750 -23.292  0.00  0.00    +0.240 C 
ATOM     15  H   UNL     1      34.786 -13.960 -25.090  0.00  0.00    +0.157 HD
ENDROOT
BRANCH  14  18
ATOM     16  O   UNL     1      34.808 -16.351 -24.859  0.00  0.00    -0.266 OA
ATOM     17  N   UNL     1      35.258 -16.780 -22.598  0.00  0.00    -0.294 N 
ATOM     18  C   UNL     1      34.792 -16.054 -23.672  0.00  0.00    +0.290 C 
ATOM     19  H   UNL     1      35.169 -16.393 -21.697  0.00  0.00    +0.150 HD
BRANCH  17  20
ATOM     20  C   UNL     1      35.873 -18.081 -22.731  0.00  0.00    +0.117 C 
BRANCH  20  24
ATOM     21  O   UNL     1      33.837 -21.785 -18.973  0.00  0.00    -0.464 OA
ATOM     22  O   UNL     1      36.851 -22.529 -17.121  0.00  0.00    -0.271 OA
ATOM     23  N   UNL     1      36.582 -21.105 -18.908  0.00  0.00    -0.279 N 
ATOM     24  C   UNL     1      35.347 -19.056 -21.718  0.00  0.00    -0.001 C 
ATOM     25  C   UNL     1      35.714 -20.516 -19.832  0.00  0.00    +0.085 C 
ATOM     26  C   UNL     1      36.210 -19.615 -20.775  0.00  0.00    +0.015 C 
ATOM     27  C   UNL     1      34.364 -20.865 -19.835  0.00  0.00    +0.153 C 
ATOM     28  C   UNL     1      33.997 -19.407 -21.725  0.00  0.00    +0.001 C 
ATOM     29  C   UNL     1      33.506 -20.317 -20.788  0.00  0.00    +0.038 C 
ATOM     30  C   UNL     1      34.606 -21.989 -17.803  0.00  0.00    +0.290 C 
ATOM     31  C   UNL     1      36.121 -21.935 -17.912  0.00  0.00    +0.271 C 
ATOM     32  H   UNL     1      37.547 -20.922 -18.971  0.00  0.00    +0.155 HD
ENDBRANCH  20  24
ENDBRANCH  17  20
ENDBRANCH  14  18
BRANCH   5  33
ATOM     33  C   UNL     1      33.796  -9.002 -22.720  0.00  0.00    +0.089 C 
BRANCH  33  36
ATOM     34  O   UNL     1      32.633  -7.062 -23.596  0.00  0.00    -0.275 OA
ATOM     35  N   UNL     1      34.887  -6.918 -23.159  0.00  0.00    -0.329 N 
ATOM     36  C   UNL     1      33.677  -7.578 -23.205  0.00  0.00    +0.220 C 
ATOM     37  H   UNL     1      34.947  -5.980 -23.450  0.00  0.00    +0.145 HD
ATOM     38  H   UNL     1      35.690  -7.386 -22.836  0.00  0.00    +0.145 HD
ENDBRANCH  33  36
ENDBRANCH   5  33
TORSDOF 5
ENDMDL
