MODEL 1
REMARK VINA RESULT:     -12.1      0.000      0.000
REMARK  Name = 60149
REMARK  5 active torsions:
REMARK  status: ('A' for Active; 'I' for Inactive)
REMARK    1  A    between atoms: N_2  and  C_12
REMARK    2  A    between atoms: C_3  and  C_19
REMARK    3  A    between atoms: N_18  and  C_25
REMARK    4  A    between atoms: C_25  and  C_26
REMARK    5  A    between atoms: C_26  and  N_28
REMARK                            x       y       z     vdW  Elec       q    Type
REMARK                         _______ _______ _______ _____ _____    ______ ____
ROOT
ATOM      1 CL   UNL     1      28.921 -22.757 -16.029  0.00  0.00    -0.082 Cl
ATOM      2  N   UNL     1      34.607 -23.893 -15.311  0.00  0.00    -0.265 N 
ATOM      3  C   UNL     1      34.090 -22.893 -17.218  0.00  0.00    -0.006 C 
ATOM      4  C   UNL     1      32.890 -23.084 -16.484  0.00  0.00    +0.012 C 
ATOM      5  C   UNL     1      35.128 -23.397 -16.475  0.00  0.00    +0.065 C 
ATOM      6  C   UNL     1      33.242 -23.715 -15.289  0.00  0.00    +0.055 C 
ATOM      7  C   UNL     1      31.533 -22.783 -16.718  0.00  0.00    +0.012 C 
ATOM      8  C   UNL     1      32.301 -24.060 -14.311  0.00  0.00    +0.016 C 
ATOM      9  C   UNL     1      30.582 -23.123 -15.750  0.00  0.00    +0.058 C 
ATOM     10  C   UNL     1      30.962 -23.752 -14.566  0.00  0.00    +0.013 C 
ENDROOT
BRANCH   2  12
ATOM     11  F   UNL     1      37.615 -26.235 -11.331  0.00  0.00    -0.204 F 
ATOM     12  C   UNL     1      35.369 -24.487 -14.301  0.00  0.00    +0.056 C 
ATOM     13  C   UNL     1      36.095 -25.636 -14.581  0.00  0.00    +0.017 C 
ATOM     14  C   UNL     1      35.389 -23.917 -13.037  0.00  0.00    +0.017 C 
ATOM     15  C   UNL     1      36.855 -26.230 -13.573  0.00  0.00    +0.031 C 
ATOM     16  C   UNL     1      36.150 -24.511 -12.029  0.00  0.00    +0.031 C 
ATOM     17  C   UNL     1      36.884 -25.666 -12.297  0.00  0.00    +0.140 C 
ENDBRANCH   2  12
BRANCH   3  19
ATOM     18  N   UNL     1      34.516 -19.938 -20.363  0.00  0.00    +0.388 N 
ATOM     19  C   UNL     1      34.214 -22.248 -18.580  0.00  0.00    +0.019 C 
ATOM     20  C   UNL     1      33.055 -21.286 -18.889  0.00  0.00    -0.018 C 
ATOM     21  C   UNL     1      35.556 -21.525 -18.775  0.00  0.00    -0.018 C 
ATOM     22  C   UNL     1      33.226 -20.635 -20.263  0.00  0.00    -0.077 C 
ATOM     23  C   UNL     1      35.636 -20.864 -20.154  0.00  0.00    -0.077 C 
ATOM     24  H   UNL     1      34.549 -19.232 -19.629  0.00  0.00    -0.080 HD
BRANCH  18  25
ATOM     25  C   UNL     1      34.638 -19.273 -21.661  0.00  0.00    -0.055 C 
BRANCH  25  26
ATOM     26  C   UNL     1      35.361 -17.943 -21.507  0.00  0.00    +0.077 C 
BRANCH  26  28
ATOM     27  O   UNL     1      34.582 -15.058 -21.189  0.00  0.00    -0.252 OA
ATOM     28  N   UNL     1      34.922 -16.994 -22.494  0.00  0.00    -0.243 N 
ATOM     29  N   UNL     1      34.242 -15.090 -23.505  0.00  0.00    -0.266 N 
ATOM     30  C   UNL     1      34.863 -17.316 -23.909  0.00  0.00    +0.085 C 
ATOM     31  C   UNL     1      34.294 -16.066 -24.563  0.00  0.00    +0.082 C 
ATOM     32  C   UNL     1      34.583 -15.647 -22.262  0.00  0.00    +0.311 C 
ATOM     33  H   UNL     1      33.997 -14.145 -23.638  0.00  0.00    +0.157 HD
ENDBRANCH  26  28
ENDBRANCH  25  26
ENDBRANCH  18  25
ENDBRANCH   3  19
TORSDOF 5
ENDMDL
MODEL 2
REMARK VINA RESULT:     -11.2      2.937      4.373
REMARK  Name = 60149
REMARK  5 active torsions:
REMARK  status: ('A' for Active; 'I' for Inactive)
REMARK    1  A    between atoms: N_2  and  C_12
REMARK    2  A    between atoms: C_3  and  C_19
REMARK    3  A    between atoms: N_18  and  C_25
REMARK    4  A    between atoms: C_25  and  C_26
REMARK    5  A    between atoms: C_26  and  N_28
REMARK                            x       y       z     vdW  Elec       q    Type
REMARK                         _______ _______ _______ _____ _____    ______ ____
ROOT
ATOM      1 CL   UNL     1      38.466 -23.267 -15.005  0.00  0.00    -0.082 Cl
ATOM      2  N   UNL     1      32.784 -23.242 -16.364  0.00  0.00    -0.265 N 
ATOM      3  C   UNL     1      34.114 -22.366 -17.902  0.00  0.00    -0.006 C 
ATOM      4  C   UNL     1      34.922 -22.793 -16.816  0.00  0.00    +0.012 C 
ATOM      5  C   UNL     1      32.807 -22.653 -17.599  0.00  0.00    +0.065 C 
ATOM      6  C   UNL     1      34.062 -23.341 -15.862  0.00  0.00    +0.055 C 
ATOM      7  C   UNL     1      36.306 -22.769 -16.548  0.00  0.00    +0.012 C 
ATOM      8  C   UNL     1      34.519 -23.868 -14.648  0.00  0.00    +0.016 C 
ATOM      9  C   UNL     1      36.776 -23.292 -15.338  0.00  0.00    +0.058 C 
ATOM     10  C   UNL     1      35.895 -23.833 -14.404  0.00  0.00    +0.013 C 
ENDROOT
BRANCH   2  12
ATOM     11  F   UNL     1      28.192 -24.954 -13.842  0.00  0.00    -0.204 F 
ATOM     12  C   UNL     1      31.620 -23.676 -15.724  0.00  0.00    +0.056 C 
ATOM     13  C   UNL     1      30.396 -23.138 -16.095  0.00  0.00    +0.017 C 
ATOM     14  C   UNL     1      31.707 -24.639 -14.729  0.00  0.00    +0.017 C 
ATOM     15  C   UNL     1      29.234 -23.570 -15.456  0.00  0.00    +0.031 C 
ATOM     16  C   UNL     1      30.544 -25.072 -14.090  0.00  0.00    +0.031 C 
ATOM     17  C   UNL     1      29.308 -24.538 -14.454  0.00  0.00    +0.140 C 
ENDBRANCH   2  12
BRANCH   3  19
ATOM     18  N   UNL     1      35.449 -19.391 -20.760  0.00  0.00    +0.388 N 
ATOM     19  C   UNL     1      34.598 -21.707 -19.174  0.00  0.00    +0.019 C 
ATOM     20  C   UNL     1      33.603 -20.672 -19.723  0.00  0.00    -0.018 C 
ATOM     21  C   UNL     1      35.986 -21.064 -19.019  0.00  0.00    -0.018 C 
ATOM     22  C   UNL     1      34.137 -20.009 -20.995  0.00  0.00    -0.077 C 
ATOM     23  C   UNL     1      36.433 -20.386 -20.316  0.00  0.00    -0.077 C 
ATOM     24  H   UNL     1      35.343 -18.700 -20.018  0.00  0.00    -0.080 HD
BRANCH  18  25
ATOM     25  C   UNL     1      35.918 -18.713 -21.970  0.00  0.00    -0.055 C 
BRANCH  25  26
ATOM     26  C   UNL     1      34.789 -18.601 -22.984  0.00  0.00    +0.077 C 
BRANCH  26  28
ATOM     27  O   UNL     1      33.438 -17.462 -25.415  0.00  0.00    -0.252 OA
ATOM     28  N   UNL     1      34.550 -17.230 -23.347  0.00  0.00    -0.243 N 
ATOM     29  N   UNL     1      33.859 -15.376 -24.440  0.00  0.00    -0.266 N 
ATOM     30  C   UNL     1      34.897 -16.123 -22.473  0.00  0.00    +0.085 C 
ATOM     31  C   UNL     1      34.534 -14.879 -23.269  0.00  0.00    +0.082 C 
ATOM     32  C   UNL     1      33.896 -16.777 -24.509  0.00  0.00    +0.311 C 
ATOM     33  H   UNL     1      33.424 -14.801 -25.112  0.00  0.00    +0.157 HD
ENDBRANCH  26  28
ENDBRANCH  25  26
ENDBRANCH  18  25
ENDBRANCH   3  19
TORSDOF 5
ENDMDL
MODEL 3
REMARK VINA RESULT:      -9.9      6.362     10.245
REMARK  Name = 60149
REMARK  5 active torsions:
REMARK  status: ('A' for Active; 'I' for Inactive)
REMARK    1  A    between atoms: N_2  and  C_12
REMARK    2  A    between atoms: C_3  and  C_19
REMARK    3  A    between atoms: N_18  and  C_25
REMARK    4  A    between atoms: C_25  and  C_26
REMARK    5  A    between atoms: C_26  and  N_28
REMARK                            x       y       z     vdW  Elec       q    Type
REMARK                         _______ _______ _______ _____ _____    ______ ____
ROOT
ATOM      1 CL   UNL     1      33.569 -14.656 -26.936  0.00  0.00    -0.082 Cl
ATOM      2  N   UNL     1      34.774 -16.805 -21.638  0.00  0.00    -0.265 N 
ATOM      3  C   UNL     1      33.960 -14.746 -21.645  0.00  0.00    -0.006 C 
ATOM      4  C   UNL     1      34.045 -15.188 -22.992  0.00  0.00    +0.012 C 
ATOM      5  C   UNL     1      34.414 -15.756 -20.835  0.00  0.00    +0.065 C 
ATOM      6  C   UNL     1      34.559 -16.486 -22.960  0.00  0.00    +0.055 C 
ATOM      7  C   UNL     1      33.734 -14.612 -24.240  0.00  0.00    +0.012 C 
ATOM      8  C   UNL     1      34.778 -17.240 -24.119  0.00  0.00    +0.016 C 
ATOM      9  C   UNL     1      33.949 -15.354 -25.406  0.00  0.00    +0.058 C 
ATOM     10  C   UNL     1      34.463 -16.648 -25.345  0.00  0.00    +0.013 C 
ENDROOT
BRANCH   2  12
ATOM     11  F   UNL     1      36.777 -21.584 -19.761  0.00  0.00    -0.204 F 
ATOM     12  C   UNL     1      35.282 -18.017 -21.162  0.00  0.00    +0.056 C 
ATOM     13  C   UNL     1      36.647 -18.151 -20.956  0.00  0.00    +0.017 C 
ATOM     14  C   UNL     1      34.412 -19.066 -20.904  0.00  0.00    +0.017 C 
ATOM     15  C   UNL     1      37.155 -19.361 -20.482  0.00  0.00    +0.031 C 
ATOM     16  C   UNL     1      34.920 -20.277 -20.430  0.00  0.00    +0.031 C 
ATOM     17  C   UNL     1      36.291 -20.424 -20.218  0.00  0.00    +0.140 C 
ENDBRANCH   2  12
BRANCH   3  19
ATOM     18  N   UNL     1      31.418 -11.308 -20.923  0.00  0.00    +0.388 N 
ATOM     19  C   UNL     1      33.461 -13.398 -21.175  0.00  0.00    +0.019 C 
ATOM     20  C   UNL     1      33.085 -12.465 -22.338  0.00  0.00    -0.018 C 
ATOM     21  C   UNL     1      32.281 -13.510 -20.196  0.00  0.00    -0.018 C 
ATOM     22  C   UNL     1      32.562 -11.122 -21.826  0.00  0.00    -0.077 C 
ATOM     23  C   UNL     1      31.786 -12.128 -19.762  0.00  0.00    -0.077 C 
ATOM     24  H   UNL     1      30.688 -11.800 -21.437  0.00  0.00    -0.080 HD
BRANCH  18  25
ATOM     25  C   UNL     1      30.894 -10.013 -20.488  0.00  0.00    -0.055 C 
BRANCH  25  26
ATOM     26  C   UNL     1      32.029  -9.114 -20.020  0.00  0.00    +0.077 C 
BRANCH  26  28
ATOM     27  O   UNL     1      33.074  -6.487 -18.999  0.00  0.00    -0.252 OA
ATOM     28  N   UNL     1      31.916  -7.796 -20.584  0.00  0.00    -0.243 N 
ATOM     29  N   UNL     1      32.125  -5.572 -20.933  0.00  0.00    -0.266 N 
ATOM     30  C   UNL     1      31.289  -7.553 -21.872  0.00  0.00    +0.085 C 
ATOM     31  C   UNL     1      31.332  -6.042 -22.040  0.00  0.00    +0.082 C 
ATOM     32  C   UNL     1      32.447  -6.609 -20.043  0.00  0.00    +0.311 C 
ATOM     33  H   UNL     1      32.407  -4.636 -20.815  0.00  0.00    +0.157 HD
ENDBRANCH  26  28
ENDBRANCH  25  26
ENDBRANCH  18  25
ENDBRANCH   3  19
TORSDOF 5
ENDMDL
MODEL 4
REMARK VINA RESULT:      -9.5      1.966      2.638
REMARK  Name = 60149
REMARK  5 active torsions:
REMARK  status: ('A' for Active; 'I' for Inactive)
REMARK    1  A    between atoms: N_2  and  C_12
REMARK    2  A    between atoms: C_3  and  C_19
REMARK    3  A    between atoms: N_18  and  C_25
REMARK    4  A    between atoms: C_25  and  C_26
REMARK    5  A    between atoms: C_26  and  N_28
REMARK                            x       y       z     vdW  Elec       q    Type
REMARK                         _______ _______ _______ _____ _____    ______ ____
ROOT
ATOM      1 CL   UNL     1      31.025 -23.549 -13.806  0.00  0.00    -0.082 Cl
ATOM      2  N   UNL     1      36.697 -23.886 -15.163  0.00  0.00    -0.265 N 
ATOM      3  C   UNL     1      35.497 -22.583 -16.492  0.00  0.00    -0.006 C 
ATOM      4  C   UNL     1      34.629 -23.124 -15.507  0.00  0.00    +0.012 C 
ATOM      5  C   UNL     1      36.760 -23.066 -16.258  0.00  0.00    +0.065 C 
ATOM      6  C   UNL     1      35.408 -23.939 -14.684  0.00  0.00    +0.055 C 
ATOM      7  C   UNL     1      33.252 -23.001 -15.233  0.00  0.00    +0.012 C 
ATOM      8  C   UNL     1      34.877 -24.641 -13.595  0.00  0.00    +0.016 C 
ATOM      9  C   UNL     1      32.708 -23.697 -14.148  0.00  0.00    +0.058 C 
ATOM     10  C   UNL     1      33.509 -24.504 -13.343  0.00  0.00    +0.013 C 
ENDROOT
BRANCH   2  12
ATOM     11  F   UNL     1      41.036 -26.541 -13.040  0.00  0.00    -0.204 F 
ATOM     12  C   UNL     1      37.798 -24.559 -14.625  0.00  0.00    +0.056 C 
ATOM     13  C   UNL     1      37.639 -25.310 -13.470  0.00  0.00    +0.017 C 
ATOM     14  C   UNL     1      39.030 -24.465 -15.255  0.00  0.00    +0.017 C 
ATOM     15  C   UNL     1      38.738 -25.982 -12.931  0.00  0.00    +0.031 C 
ATOM     16  C   UNL     1      40.128 -25.136 -14.717  0.00  0.00    +0.031 C 
ATOM     17  C   UNL     1      39.982 -25.895 -13.556  0.00  0.00    +0.140 C 
ENDBRANCH   2  12
BRANCH   3  19
ATOM     18  N   UNL     1      34.631 -20.976 -20.425  0.00  0.00    +0.388 N 
ATOM     19  C   UNL     1      35.108 -21.639 -17.608  0.00  0.00    +0.019 C 
ATOM     20  C   UNL     1      36.253 -21.393 -18.604  0.00  0.00    -0.018 C 
ATOM     21  C   UNL     1      33.851 -22.099 -18.363  0.00  0.00    -0.018 C 
ATOM     22  C   UNL     1      35.816 -20.455 -19.731  0.00  0.00    -0.077 C 
ATOM     23  C   UNL     1      33.502 -21.135 -19.500  0.00  0.00    -0.077 C 
ATOM     24  H   UNL     1      34.864 -21.895 -20.799  0.00  0.00    -0.080 HD
BRANCH  18  25
ATOM     25  C   UNL     1      34.261 -20.097 -21.535  0.00  0.00    -0.055 C 
BRANCH  25  26
ATOM     26  C   UNL     1      35.472 -19.307 -22.009  0.00  0.00    +0.077 C 
BRANCH  26  28
ATOM     27  O   UNL     1      34.123 -18.788 -24.644  0.00  0.00    -0.252 OA
ATOM     28  N   UNL     1      35.079 -18.063 -22.612  0.00  0.00    -0.243 N 
ATOM     29  N   UNL     1      34.215 -16.530 -24.033  0.00  0.00    -0.266 N 
ATOM     30  C   UNL     1      35.229 -16.787 -21.933  0.00  0.00    +0.085 C 
ATOM     31  C   UNL     1      34.753 -15.756 -22.944  0.00  0.00    +0.082 C 
ATOM     32  C   UNL     1      34.437 -17.905 -23.856  0.00  0.00    +0.311 C 
ATOM     33  H   UNL     1      33.748 -16.141 -24.808  0.00  0.00    +0.157 HD
ENDBRANCH  26  28
ENDBRANCH  25  26
ENDBRANCH  18  25
ENDBRANCH   3  19
TORSDOF 5
ENDMDL
