MODEL 1
REMARK VINA RESULT:     -11.1      0.000      0.000
REMARK  Name = 9887812
REMARK  11 active torsions:
REMARK  status: ('A' for Active; 'I' for Inactive)
REMARK    1  A    between atoms: N_1  and  C_3
REMARK    2  A    between atoms: N_1  and  C_19
REMARK    3  A    between atoms: C_4  and  C_9
REMARK    4  A    between atoms: C_12  and  C_16
REMARK    5  A    between atoms: C_16  and  O_17
REMARK    6  A    between atoms: C_19  and  C_20
REMARK    7  A    between atoms: C_20  and  N_21
REMARK    8  A    between atoms: N_21  and  C_24
REMARK    9  A    between atoms: C_24  and  C_25
REMARK   10  A    between atoms: C_25  and  C_27
REMARK   11  A    between atoms: C_25  and  O_33
REMARK                            x       y       z     vdW  Elec       q    Type
REMARK                         _______ _______ _______ _____ _____    ______ ____
ROOT
ATOM      1  N   UNL     1      32.651 -22.778 -18.224  0.00  0.00    -0.335 N 
ATOM      2  H   UNL     1      32.265 -23.412 -18.870  0.00  0.00    +0.147 HD
ENDROOT
BRANCH   1   3
ATOM      3  C   UNL     1      32.504 -23.045 -16.847  0.00  0.00    +0.045 C 
ATOM      4  C   UNL     1      33.415 -23.867 -14.766  0.00  0.00    +0.001 C 
ATOM      5  C   UNL     1      33.561 -23.603 -16.128  0.00  0.00    +0.014 C 
ATOM      6  C   UNL     1      31.301 -22.752 -16.205  0.00  0.00    +0.014 C 
ATOM      7  C   UNL     1      32.212 -23.575 -14.123  0.00  0.00    +0.000 C 
ATOM      8  C   UNL     1      31.155 -23.017 -14.843  0.00  0.00    +0.001 C 
BRANCH   4   9
ATOM      9  C   UNL     1      34.511 -24.446 -14.021  0.00  0.00    +0.000 C 
ATOM     10  C   UNL     1      35.419 -25.293 -14.658  0.00  0.00    +0.006 C 
ATOM     11  C   UNL     1      34.660 -24.158 -12.664  0.00  0.00    +0.000 C 
ATOM     12  C   UNL     1      36.475 -25.851 -13.938  0.00  0.00    +0.075 C 
ATOM     13  C   UNL     1      35.717 -24.716 -11.944  0.00  0.00    +0.000 C 
ATOM     14  C   UNL     1      36.625 -25.563 -12.582  0.00  0.00    +0.006 C 
BRANCH  12  16
ATOM     15  O   UNL     1      38.571 -26.971 -14.215  0.00  0.00    -0.245 OA
ATOM     16  C   UNL     1      37.422 -26.732 -14.602  0.00  0.00    +0.338 C 
BRANCH  16  17
ATOM     17  O   UNL     1      36.909 -27.293 -15.732  0.00  0.00    -0.477 OA
ATOM     18  H   UNL     1      37.421 -27.899 -16.228  0.00  0.00    +0.295 HD
ENDBRANCH  16  17
ENDBRANCH  12  16
ENDBRANCH   4   9
ENDBRANCH   1   3
BRANCH   1  19
ATOM     19  C   UNL     1      33.339 -21.627 -18.724  0.00  0.00    +0.064 C 
BRANCH  19  20
ATOM     20  C   UNL     1      34.743 -22.021 -19.163  0.00  0.00    -0.060 C 
BRANCH  20  21
ATOM     21  N   UNL     1      35.509 -20.837 -19.535  0.00  0.00    +0.387 N 
ATOM     22  H   UNL     1      35.595 -20.227 -18.723  0.00  0.00    -0.084 HD
ATOM     23  H   UNL     1      36.430 -21.133 -19.857  0.00  0.00    -0.084 HD
BRANCH  21  24
ATOM     24  C   UNL     1      34.850 -20.110 -20.611  0.00  0.00    -0.047 C 
BRANCH  24  25
ATOM     25  C   UNL     1      35.829 -19.150 -21.299  0.00  0.00    +0.112 C 
BRANCH  25  27
ATOM     26 CL   UNL     1      34.576 -14.570 -23.419  0.00  0.00    -0.082 Cl
ATOM     27  C   UNL     1      35.158 -18.383 -22.417  0.00  0.00    +0.003 C 
ATOM     28  C   UNL     1      35.180 -16.999 -22.395  0.00  0.00    +0.009 C 
ATOM     29  C   UNL     1      34.539 -19.081 -23.439  0.00  0.00    -0.002 C 
ATOM     30  C   UNL     1      34.562 -16.291 -23.426  0.00  0.00    +0.057 C 
ATOM     31  C   UNL     1      33.921 -18.374 -24.470  0.00  0.00    +0.001 C 
ATOM     32  C   UNL     1      33.933 -16.979 -24.464  0.00  0.00    +0.011 C 
ENDBRANCH  25  27
BRANCH  25  33
ATOM     33  O   UNL     1      36.343 -18.210 -20.358  0.00  0.00    -0.382 OA
ATOM     34  H   UNL     1      37.299 -18.341 -20.258  0.00  0.00    +0.211 HD
ENDBRANCH  25  33
ENDBRANCH  24  25
ENDBRANCH  21  24
ENDBRANCH  20  21
ENDBRANCH  19  20
ENDBRANCH   1  19
TORSDOF 11
ENDMDL
MODEL 2
REMARK VINA RESULT:     -11.0      1.685      2.153
REMARK  Name = 9887812
REMARK  11 active torsions:
REMARK  status: ('A' for Active; 'I' for Inactive)
REMARK    1  A    between atoms: N_1  and  C_3
REMARK    2  A    between atoms: N_1  and  C_19
REMARK    3  A    between atoms: C_4  and  C_9
REMARK    4  A    between atoms: C_12  and  C_16
REMARK    5  A    between atoms: C_16  and  O_17
REMARK    6  A    between atoms: C_19  and  C_20
REMARK    7  A    between atoms: C_20  and  N_21
REMARK    8  A    between atoms: N_21  and  C_24
REMARK    9  A    between atoms: C_24  and  C_25
REMARK   10  A    between atoms: C_25  and  C_27
REMARK   11  A    between atoms: C_25  and  O_33
REMARK                            x       y       z     vdW  Elec       q    Type
REMARK                         _______ _______ _______ _____ _____    ______ ____
ROOT
ATOM      1  N   UNL     1      32.869 -22.886 -18.217  0.00  0.00    -0.335 N 
ATOM      2  H   UNL     1      32.529 -23.558 -18.850  0.00  0.00    +0.147 HD
ENDROOT
BRANCH   1   3
ATOM      3  C   UNL     1      32.698 -23.115 -16.836  0.00  0.00    +0.045 C 
ATOM      4  C   UNL     1      33.578 -23.862 -14.713  0.00  0.00    +0.001 C 
ATOM      5  C   UNL     1      33.748 -23.636 -16.080  0.00  0.00    +0.014 C 
ATOM      6  C   UNL     1      31.478 -22.821 -16.226  0.00  0.00    +0.014 C 
ATOM      7  C   UNL     1      32.358 -23.568 -14.103  0.00  0.00    +0.000 C 
ATOM      8  C   UNL     1      31.308 -23.048 -14.860  0.00  0.00    +0.001 C 
BRANCH   4   9
ATOM      9  C   UNL     1      34.667 -24.403 -13.929  0.00  0.00    +0.000 C 
ATOM     10  C   UNL     1      34.761 -24.108 -12.569  0.00  0.00    +0.006 C 
ATOM     11  C   UNL     1      35.622 -25.219 -14.534  0.00  0.00    +0.000 C 
ATOM     12  C   UNL     1      35.812 -24.630 -11.814  0.00  0.00    +0.075 C 
ATOM     13  C   UNL     1      36.673 -25.740 -13.779  0.00  0.00    +0.000 C 
ATOM     14  C   UNL     1      36.768 -25.446 -12.419  0.00  0.00    +0.006 C 
BRANCH  12  16
ATOM     15  O   UNL     1      35.239 -24.849  -9.501  0.00  0.00    -0.245 OA
ATOM     16  C   UNL     1      35.911 -24.324 -10.396  0.00  0.00    +0.338 C 
BRANCH  16  17
ATOM     17  O   UNL     1      36.846 -23.370 -10.132  0.00  0.00    -0.477 OA
ATOM     18  H   UNL     1      36.582 -22.483  -9.986  0.00  0.00    +0.295 HD
ENDBRANCH  16  17
ENDBRANCH  12  16
ENDBRANCH   4   9
ENDBRANCH   1   3
BRANCH   1  19
ATOM     19  C   UNL     1      33.517 -21.722 -18.737  0.00  0.00    +0.064 C 
BRANCH  19  20
ATOM     20  C   UNL     1      34.959 -22.056 -19.095  0.00  0.00    -0.060 C 
BRANCH  20  21
ATOM     21  N   UNL     1      35.676 -20.851 -19.493  0.00  0.00    +0.387 N 
ATOM     22  H   UNL     1      35.715 -20.209 -18.700  0.00  0.00    -0.084 HD
ATOM     23  H   UNL     1      36.617 -21.113 -19.785  0.00  0.00    -0.084 HD
BRANCH  21  24
ATOM     24  C   UNL     1      35.008 -20.193 -20.607  0.00  0.00    -0.047 C 
BRANCH  24  25
ATOM     25  C   UNL     1      35.949 -19.195 -21.294  0.00  0.00    +0.112 C 
BRANCH  25  27
ATOM     26 CL   UNL     1      34.584 -14.630 -23.376  0.00  0.00    -0.082 Cl
ATOM     27  C   UNL     1      35.241 -18.435 -22.394  0.00  0.00    +0.003 C 
ATOM     28  C   UNL     1      35.244 -17.051 -22.370  0.00  0.00    +0.009 C 
ATOM     29  C   UNL     1      34.607 -19.140 -23.403  0.00  0.00    -0.002 C 
ATOM     30  C   UNL     1      34.593 -16.351 -23.386  0.00  0.00    +0.057 C 
ATOM     31  C   UNL     1      33.956 -18.440 -24.418  0.00  0.00    +0.001 C 
ATOM     32  C   UNL     1      33.949 -17.046 -24.410  0.00  0.00    +0.011 C 
ENDBRANCH  25  27
BRANCH  25  33
ATOM     33  O   UNL     1      36.443 -18.250 -20.347  0.00  0.00    -0.382 OA
ATOM     34  H   UNL     1      37.401 -18.368 -20.241  0.00  0.00    +0.211 HD
ENDBRANCH  25  33
ENDBRANCH  24  25
ENDBRANCH  21  24
ENDBRANCH  20  21
ENDBRANCH  19  20
ENDBRANCH   1  19
TORSDOF 11
ENDMDL
MODEL 3
REMARK VINA RESULT:     -11.0      3.554      4.888
REMARK  Name = 9887812
REMARK  11 active torsions:
REMARK  status: ('A' for Active; 'I' for Inactive)
REMARK    1  A    between atoms: N_1  and  C_3
REMARK    2  A    between atoms: N_1  and  C_19
REMARK    3  A    between atoms: C_4  and  C_9
REMARK    4  A    between atoms: C_12  and  C_16
REMARK    5  A    between atoms: C_16  and  O_17
REMARK    6  A    between atoms: C_19  and  C_20
REMARK    7  A    between atoms: C_20  and  N_21
REMARK    8  A    between atoms: N_21  and  C_24
REMARK    9  A    between atoms: C_24  and  C_25
REMARK   10  A    between atoms: C_25  and  C_27
REMARK   11  A    between atoms: C_25  and  O_33
REMARK                            x       y       z     vdW  Elec       q    Type
REMARK                         _______ _______ _______ _____ _____    ______ ____
ROOT
ATOM      1  N   UNL     1      34.684 -22.479 -19.025  0.00  0.00    -0.335 N 
ATOM      2  H   UNL     1      34.514 -23.206 -19.667  0.00  0.00    +0.147 HD
ENDROOT
BRANCH   1   3
ATOM      3  C   UNL     1      34.396 -22.704 -17.663  0.00  0.00    +0.045 C 
ATOM      4  C   UNL     1      32.814 -23.244 -15.919  0.00  0.00    +0.001 C 
ATOM      5  C   UNL     1      33.098 -23.023 -17.267  0.00  0.00    +0.014 C 
ATOM      6  C   UNL     1      35.411 -22.605 -16.711  0.00  0.00    +0.014 C 
ATOM      7  C   UNL     1      33.829 -23.146 -14.967  0.00  0.00    +0.000 C 
ATOM      8  C   UNL     1      35.128 -22.825 -15.363  0.00  0.00    +0.001 C 
BRANCH   4   9
ATOM      9  C   UNL     1      31.467 -23.575 -15.509  0.00  0.00    +0.000 C 
ATOM     10  C   UNL     1      30.377 -23.081 -16.227  0.00  0.00    +0.006 C 
ATOM     11  C   UNL     1      31.258 -24.389 -14.396  0.00  0.00    +0.000 C 
ATOM     12  C   UNL     1      29.079 -23.400 -15.830  0.00  0.00    +0.075 C 
ATOM     13  C   UNL     1      29.959 -24.708 -13.999  0.00  0.00    +0.000 C 
ATOM     14  C   UNL     1      28.869 -24.214 -14.717  0.00  0.00    +0.006 C 
BRANCH  12  16
ATOM     15  O   UNL     1      27.507 -21.731 -16.516  0.00  0.00    -0.245 OA
ATOM     16  C   UNL     1      27.943 -22.886 -16.578  0.00  0.00    +0.338 C 
BRANCH  16  17
ATOM     17  O   UNL     1      27.380 -23.829 -17.384  0.00  0.00    -0.477 OA
ATOM     18  H   UNL     1      27.921 -24.355 -17.938  0.00  0.00    +0.295 HD
ENDBRANCH  16  17
ENDBRANCH  12  16
ENDBRANCH   4   9
ENDBRANCH   1   3
BRANCH   1  19
ATOM     19  C   UNL     1      35.214 -21.244 -19.515  0.00  0.00    +0.064 C 
BRANCH  19  20
ATOM     20  C   UNL     1      34.115 -20.459 -20.218  0.00  0.00    -0.060 C 
BRANCH  20  21
ATOM     21  N   UNL     1      34.675 -19.293 -20.891  0.00  0.00    +0.387 N 
ATOM     22  H   UNL     1      34.158 -18.462 -20.604  0.00  0.00    -0.084 HD
ATOM     23  H   UNL     1      35.658 -19.208 -20.633  0.00  0.00    -0.084 HD
BRANCH  21  24
ATOM     24  C   UNL     1      34.584 -19.435 -22.338  0.00  0.00    -0.047 C 
BRANCH  24  25
ATOM     25  C   UNL     1      35.531 -18.456 -23.042  0.00  0.00    +0.112 C 
BRANCH  25  27
ATOM     26 CL   UNL     1      34.330 -13.420 -22.554  0.00  0.00    -0.082 Cl
ATOM     27  C   UNL     1      34.788 -17.247 -23.565  0.00  0.00    +0.003 C 
ATOM     28  C   UNL     1      34.895 -16.042 -22.892  0.00  0.00    +0.009 C 
ATOM     29  C   UNL     1      34.017 -17.370 -24.709  0.00  0.00    -0.002 C 
ATOM     30  C   UNL     1      34.210 -14.928 -23.375  0.00  0.00    +0.057 C 
ATOM     31  C   UNL     1      33.331 -16.256 -25.192  0.00  0.00    +0.001 C 
ATOM     32  C   UNL     1      33.428 -15.035 -24.526  0.00  0.00    +0.011 C 
ENDBRANCH  25  27
BRANCH  25  33
ATOM     33  O   UNL     1      36.537 -18.003 -22.137  0.00  0.00    -0.382 OA
ATOM     34  H   UNL     1      37.328 -17.744 -22.635  0.00  0.00    +0.211 HD
ENDBRANCH  25  33
ENDBRANCH  24  25
ENDBRANCH  21  24
ENDBRANCH  20  21
ENDBRANCH  19  20
ENDBRANCH   1  19
TORSDOF 11
ENDMDL
MODEL 4
REMARK VINA RESULT:     -11.0      5.597      9.140
REMARK  Name = 9887812
REMARK  11 active torsions:
REMARK  status: ('A' for Active; 'I' for Inactive)
REMARK    1  A    between atoms: N_1  and  C_3
REMARK    2  A    between atoms: N_1  and  C_19
REMARK    3  A    between atoms: C_4  and  C_9
REMARK    4  A    between atoms: C_12  and  C_16
REMARK    5  A    between atoms: C_16  and  O_17
REMARK    6  A    between atoms: C_19  and  C_20
REMARK    7  A    between atoms: C_20  and  N_21
REMARK    8  A    between atoms: N_21  and  C_24
REMARK    9  A    between atoms: C_24  and  C_25
REMARK   10  A    between atoms: C_25  and  C_27
REMARK   11  A    between atoms: C_25  and  O_33
REMARK                            x       y       z     vdW  Elec       q    Type
REMARK                         _______ _______ _______ _____ _____    ______ ____
ROOT
ATOM      1  N   UNL     1      34.853 -15.062 -22.882  0.00  0.00    -0.335 N 
ATOM      2  H   UNL     1      35.545 -14.596 -23.404  0.00  0.00    +0.147 HD
ENDROOT
BRANCH   1   3
ATOM      3  C   UNL     1      34.696 -16.452 -23.061  0.00  0.00    +0.045 C 
ATOM      4  C   UNL     1      34.857 -18.705 -22.204  0.00  0.00    +0.001 C 
ATOM      5  C   UNL     1      35.012 -17.330 -22.025  0.00  0.00    +0.014 C 
ATOM      6  C   UNL     1      34.225 -16.949 -24.277  0.00  0.00    +0.014 C 
ATOM      7  C   UNL     1      34.386 -19.202 -23.420  0.00  0.00    +0.000 C 
ATOM      8  C   UNL     1      34.070 -18.323 -24.456  0.00  0.00    +0.001 C 
BRANCH   4   9
ATOM      9  C   UNL     1      35.185 -19.615 -21.129  0.00  0.00    +0.000 C 
ATOM     10  C   UNL     1      34.195 -20.429 -20.576  0.00  0.00    +0.006 C 
ATOM     11  C   UNL     1      36.492 -19.680 -20.646  0.00  0.00    +0.000 C 
ATOM     12  C   UNL     1      34.513 -21.305 -19.539  0.00  0.00    +0.075 C 
ATOM     13  C   UNL     1      36.809 -20.557 -19.608  0.00  0.00    +0.000 C 
ATOM     14  C   UNL     1      35.819 -21.371 -19.055  0.00  0.00    +0.006 C 
BRANCH  12  16
ATOM     15  O   UNL     1      32.407 -21.760 -18.498  0.00  0.00    -0.245 OA
ATOM     16  C   UNL     1      33.482 -22.154 -18.962  0.00  0.00    +0.338 C 
BRANCH  16  17
ATOM     17  O   UNL     1      33.822 -23.473 -18.980  0.00  0.00    -0.477 OA
ATOM     18  H   UNL     1      34.601 -23.761 -18.547  0.00  0.00    +0.295 HD
ENDBRANCH  16  17
ENDBRANCH  12  16
ENDBRANCH   4   9
ENDBRANCH   1   3
BRANCH   1  19
ATOM     19  C   UNL     1      34.054 -14.301 -21.972  0.00  0.00    +0.064 C 
BRANCH  19  20
ATOM     20  C   UNL     1      33.081 -13.428 -22.753  0.00  0.00    -0.060 C 
BRANCH  20  21
ATOM     21  N   UNL     1      31.957 -13.039 -21.909  0.00  0.00    +0.387 N 
ATOM     22  H   UNL     1      31.246 -12.591 -22.487  0.00  0.00    -0.084 HD
ATOM     23  H   UNL     1      31.580 -13.875 -21.463  0.00  0.00    -0.084 HD
BRANCH  21  24
ATOM     24  C   UNL     1      32.384 -12.110 -20.872  0.00  0.00    -0.047 C 
BRANCH  24  25
ATOM     25  C   UNL     1      31.238 -11.171 -20.476  0.00  0.00    +0.112 C 
BRANCH  25  27
ATOM     26 CL   UNL     1      31.828  -7.100 -23.657  0.00  0.00    -0.082 Cl
ATOM     27  C   UNL     1      31.622  -9.719 -20.662  0.00  0.00    +0.003 C 
ATOM     28  C   UNL     1      31.553  -9.158 -21.925  0.00  0.00    +0.009 C 
ATOM     29  C   UNL     1      32.032  -8.983 -19.564  0.00  0.00    -0.002 C 
ATOM     30  C   UNL     1      31.906  -7.819 -22.095  0.00  0.00    +0.057 C 
ATOM     31  C   UNL     1      32.385  -7.645 -19.734  0.00  0.00    +0.001 C 
ATOM     32  C   UNL     1      32.322  -7.063 -21.000  0.00  0.00    +0.011 C 
ENDBRANCH  25  27
BRANCH  25  33
ATOM     33  O   UNL     1      30.086 -11.433 -21.276  0.00  0.00    -0.382 OA
ATOM     34  H   UNL     1      30.067 -12.372 -21.518  0.00  0.00    +0.211 HD
ENDBRANCH  25  33
ENDBRANCH  24  25
ENDBRANCH  21  24
ENDBRANCH  20  21
ENDBRANCH  19  20
ENDBRANCH   1  19
TORSDOF 11
ENDMDL
MODEL 5
REMARK VINA RESULT:     -10.9      3.524     10.207
REMARK  Name = 9887812
REMARK  11 active torsions:
REMARK  status: ('A' for Active; 'I' for Inactive)
REMARK    1  A    between atoms: N_1  and  C_3
REMARK    2  A    between atoms: N_1  and  C_19
REMARK    3  A    between atoms: C_4  and  C_9
REMARK    4  A    between atoms: C_12  and  C_16
REMARK    5  A    between atoms: C_16  and  O_17
REMARK    6  A    between atoms: C_19  and  C_20
REMARK    7  A    between atoms: C_20  and  N_21
REMARK    8  A    between atoms: N_21  and  C_24
REMARK    9  A    between atoms: C_24  and  C_25
REMARK   10  A    between atoms: C_25  and  C_27
REMARK   11  A    between atoms: C_25  and  O_33
REMARK                            x       y       z     vdW  Elec       q    Type
REMARK                         _______ _______ _______ _____ _____    ______ ____
ROOT
ATOM      1  N   UNL     1      32.829 -22.236 -18.548  0.00  0.00    -0.335 N 
ATOM      2  H   UNL     1      31.954 -22.039 -18.953  0.00  0.00    +0.147 HD
ENDROOT
BRANCH   1   3
ATOM      3  C   UNL     1      33.976 -21.624 -19.092  0.00  0.00    +0.045 C 
ATOM      4  C   UNL     1      34.983 -20.069 -20.643  0.00  0.00    +0.001 C 
ATOM      5  C   UNL     1      33.847 -20.674 -20.105  0.00  0.00    +0.014 C 
ATOM      6  C   UNL     1      35.242 -21.968 -18.618  0.00  0.00    +0.014 C 
ATOM      7  C   UNL     1      36.249 -20.414 -20.169  0.00  0.00    +0.000 C 
ATOM      8  C   UNL     1      36.378 -21.364 -19.156  0.00  0.00    +0.001 C 
BRANCH   4   9
ATOM      9  C   UNL     1      34.848 -19.084 -21.694  0.00  0.00    +0.000 C 
ATOM     10  C   UNL     1      34.836 -17.724 -21.380  0.00  0.00    +0.006 C 
ATOM     11  C   UNL     1      34.730 -19.494 -23.022  0.00  0.00    +0.000 C 
ATOM     12  C   UNL     1      34.706 -16.776 -22.394  0.00  0.00    +0.075 C 
ATOM     13  C   UNL     1      34.599 -18.545 -24.036  0.00  0.00    +0.000 C 
ATOM     14  C   UNL     1      34.587 -17.185 -23.722  0.00  0.00    +0.006 C 
BRANCH  12  16
ATOM     15  O   UNL     1      34.510 -14.885 -20.942  0.00  0.00    -0.245 OA
ATOM     16  C   UNL     1      34.694 -15.359 -22.068  0.00  0.00    +0.338 C 
BRANCH  16  17
ATOM     17  O   UNL     1      34.913 -14.571 -23.157  0.00  0.00    -0.477 OA
ATOM     18  H   UNL     1      34.596 -13.691 -23.169  0.00  0.00    +0.295 HD
ENDBRANCH  16  17
ENDBRANCH  12  16
ENDBRANCH   4   9
ENDBRANCH   1   3
BRANCH   1  19
ATOM     19  C   UNL     1      32.879 -23.129 -17.431  0.00  0.00    +0.064 C 
BRANCH  19  20
ATOM     20  C   UNL     1      31.690 -22.871 -16.516  0.00  0.00    -0.060 C 
BRANCH  20  21
ATOM     21  N   UNL     1      31.731 -23.767 -15.366  0.00  0.00    +0.387 N 
ATOM     22  H   UNL     1      30.815 -23.776 -14.918  0.00  0.00    -0.084 HD
ATOM     23  H   UNL     1      31.978 -24.702 -15.690  0.00  0.00    -0.084 HD
BRANCH  21  24
ATOM     24  C   UNL     1      32.730 -23.328 -14.402  0.00  0.00    -0.047 C 
BRANCH  24  25
ATOM     25  C   UNL     1      33.622 -24.500 -13.970  0.00  0.00    +0.112 C 
BRANCH  25  27
ATOM     26 CL   UNL     1      38.610 -25.847 -13.383  0.00  0.00    -0.082 Cl
ATOM     27  C   UNL     1      35.079 -24.224 -14.266  0.00  0.00    +0.003 C 
ATOM     28  C   UNL     1      36.046 -25.066 -13.746  0.00  0.00    +0.009 C 
ATOM     29  C   UNL     1      35.415 -23.136 -15.054  0.00  0.00    -0.002 C 
ATOM     30  C   UNL     1      37.391 -24.812 -14.020  0.00  0.00    +0.057 C 
ATOM     31  C   UNL     1      36.759 -22.881 -15.327  0.00  0.00    +0.001 C 
ATOM     32  C   UNL     1      37.746 -23.720 -14.811  0.00  0.00    +0.011 C 
ENDBRANCH  25  27
BRANCH  25  33
ATOM     33  O   UNL     1      33.488 -24.733 -12.570  0.00  0.00    -0.382 OA
ATOM     34  H   UNL     1      34.367 -24.821 -12.170  0.00  0.00    +0.211 HD
ENDBRANCH  25  33
ENDBRANCH  24  25
ENDBRANCH  21  24
ENDBRANCH  20  21
ENDBRANCH  19  20
ENDBRANCH   1  19
TORSDOF 11
ENDMDL
MODEL 6
REMARK VINA RESULT:     -10.8      8.696     15.101
REMARK  Name = 9887812
REMARK  11 active torsions:
REMARK  status: ('A' for Active; 'I' for Inactive)
REMARK    1  A    between atoms: N_1  and  C_3
REMARK    2  A    between atoms: N_1  and  C_19
REMARK    3  A    between atoms: C_4  and  C_9
REMARK    4  A    between atoms: C_12  and  C_16
REMARK    5  A    between atoms: C_16  and  O_17
REMARK    6  A    between atoms: C_19  and  C_20
REMARK    7  A    between atoms: C_20  and  N_21
REMARK    8  A    between atoms: N_21  and  C_24
REMARK    9  A    between atoms: C_24  and  C_25
REMARK   10  A    between atoms: C_25  and  C_27
REMARK   11  A    between atoms: C_25  and  O_33
REMARK                            x       y       z     vdW  Elec       q    Type
REMARK                         _______ _______ _______ _____ _____    ______ ____
ROOT
ATOM      1  N   UNL     1      31.278 -12.089 -21.563  0.00  0.00    -0.335 N 
ATOM      2  H   UNL     1      30.350 -12.309 -21.805  0.00  0.00    +0.147 HD
ENDROOT
BRANCH   1   3
ATOM      3  C   UNL     1      31.547 -10.822 -21.005  0.00  0.00    +0.045 C 
ATOM      4  C   UNL     1      32.009  -8.467 -21.283  0.00  0.00    +0.001 C 
ATOM      5  C   UNL     1      31.742  -9.720 -21.837  0.00  0.00    +0.014 C 
ATOM      6  C   UNL     1      31.619 -10.672 -19.620  0.00  0.00    +0.014 C 
ATOM      7  C   UNL     1      32.080  -8.317 -19.898  0.00  0.00    +0.000 C 
ATOM      8  C   UNL     1      31.886  -9.420 -19.067  0.00  0.00    +0.001 C 
BRANCH   4   9
ATOM      9  C   UNL     1      32.211  -7.324 -22.147  0.00  0.00    +0.000 C 
ATOM     10  C   UNL     1      31.321  -6.251 -22.105  0.00  0.00    +0.006 C 
ATOM     11  C   UNL     1      33.298  -7.295 -23.021  0.00  0.00    +0.000 C 
ATOM     12  C   UNL     1      31.517  -5.150 -22.938  0.00  0.00    +0.075 C 
ATOM     13  C   UNL     1      33.493  -6.194 -23.854  0.00  0.00    +0.000 C 
ATOM     14  C   UNL     1      32.603  -5.120 -23.812  0.00  0.00    +0.006 C 
BRANCH  12  16
ATOM     15  O   UNL     1      30.262  -3.334 -23.861  0.00  0.00    -0.245 OA
ATOM     16  C   UNL     1      30.589  -4.030 -22.894  0.00  0.00    +0.338 C 
BRANCH  16  17
ATOM     17  O   UNL     1      30.096  -3.810 -21.644  0.00  0.00    -0.477 OA
ATOM     18  H   UNL     1      30.665  -3.860 -20.901  0.00  0.00    +0.295 HD
ENDBRANCH  16  17
ENDBRANCH  12  16
ENDBRANCH   4   9
ENDBRANCH   1   3
BRANCH   1  19
ATOM     19  C   UNL     1      32.295 -13.069 -21.792  0.00  0.00    +0.064 C 
BRANCH  19  20
ATOM     20  C   UNL     1      33.311 -12.529 -22.790  0.00  0.00    -0.060 C 
BRANCH  20  21
ATOM     21  N   UNL     1      34.198 -13.595 -23.238  0.00  0.00    +0.387 N 
ATOM     22  H   UNL     1      34.847 -13.220 -23.930  0.00  0.00    -0.084 HD
ATOM     23  H   UNL     1      34.708 -13.956 -22.431  0.00  0.00    -0.084 HD
BRANCH  21  24
ATOM     24  C   UNL     1      33.440 -14.686 -23.835  0.00  0.00    -0.047 C 
BRANCH  24  25
ATOM     25  C   UNL     1      34.350 -15.579 -24.688  0.00  0.00    +0.112 C 
BRANCH  25  27
ATOM     26 CL   UNL     1      36.509 -18.511 -20.976  0.00  0.00    -0.082 Cl
ATOM     27  C   UNL     1      34.532 -16.943 -24.059  0.00  0.00    +0.003 C 
ATOM     28  C   UNL     1      35.341 -17.071 -22.944  0.00  0.00    +0.009 C 
ATOM     29  C   UNL     1      33.885 -18.034 -24.613  0.00  0.00    -0.002 C 
ATOM     30  C   UNL     1      35.508 -18.329 -22.364  0.00  0.00    +0.057 C 
ATOM     31  C   UNL     1      34.052 -19.291 -24.034  0.00  0.00    +0.001 C 
ATOM     32  C   UNL     1      34.863 -19.439 -22.909  0.00  0.00    +0.011 C 
ENDBRANCH  25  27
BRANCH  25  33
ATOM     33  O   UNL     1      33.790 -15.758 -25.987  0.00  0.00    -0.382 OA
ATOM     34  H   UNL     1      32.976 -16.280 -25.920  0.00  0.00    +0.211 HD
ENDBRANCH  25  33
ENDBRANCH  24  25
ENDBRANCH  21  24
ENDBRANCH  20  21
ENDBRANCH  19  20
ENDBRANCH   1  19
TORSDOF 11
ENDMDL
MODEL 7
REMARK VINA RESULT:     -10.8      2.955      9.808
REMARK  Name = 9887812
REMARK  11 active torsions:
REMARK  status: ('A' for Active; 'I' for Inactive)
REMARK    1  A    between atoms: N_1  and  C_3
REMARK    2  A    between atoms: N_1  and  C_19
REMARK    3  A    between atoms: C_4  and  C_9
REMARK    4  A    between atoms: C_12  and  C_16
REMARK    5  A    between atoms: C_16  and  O_17
REMARK    6  A    between atoms: C_19  and  C_20
REMARK    7  A    between atoms: C_20  and  N_21
REMARK    8  A    between atoms: N_21  and  C_24
REMARK    9  A    between atoms: C_24  and  C_25
REMARK   10  A    between atoms: C_25  and  C_27
REMARK   11  A    between atoms: C_25  and  O_33
REMARK                            x       y       z     vdW  Elec       q    Type
REMARK                         _______ _______ _______ _____ _____    ______ ____
ROOT
ATOM      1  N   UNL     1      32.707 -22.268 -18.471  0.00  0.00    -0.335 N 
ATOM      2  H   UNL     1      31.843 -22.032 -18.880  0.00  0.00    +0.147 HD
ENDROOT
BRANCH   1   3
ATOM      3  C   UNL     1      33.884 -21.717 -19.018  0.00  0.00    +0.045 C 
ATOM      4  C   UNL     1      34.974 -20.058 -20.395  0.00  0.00    +0.001 C 
ATOM      5  C   UNL     1      33.810 -20.602 -19.853  0.00  0.00    +0.014 C 
ATOM      6  C   UNL     1      35.122 -22.287 -18.726  0.00  0.00    +0.014 C 
ATOM      7  C   UNL     1      36.213 -20.629 -20.103  0.00  0.00    +0.000 C 
ATOM      8  C   UNL     1      36.287 -21.744 -19.268  0.00  0.00    +0.001 C 
BRANCH   4   9
ATOM      9  C   UNL     1      34.897 -18.902 -21.261  0.00  0.00    +0.000 C 
ATOM     10  C   UNL     1      34.337 -19.019 -22.534  0.00  0.00    +0.006 C 
ATOM     11  C   UNL     1      35.382 -17.669 -20.823  0.00  0.00    +0.000 C 
ATOM     12  C   UNL     1      34.264 -17.904 -23.368  0.00  0.00    +0.075 C 
ATOM     13  C   UNL     1      35.309 -16.554 -21.659  0.00  0.00    +0.000 C 
ATOM     14  C   UNL     1      34.749 -16.672 -22.931  0.00  0.00    +0.006 C 
BRANCH  12  16
ATOM     15  O   UNL     1      32.745 -18.774 -25.000  0.00  0.00    -0.245 OA
ATOM     16  C   UNL     1      33.679 -18.025 -24.695  0.00  0.00    +0.338 C 
BRANCH  16  17
ATOM     17  O   UNL     1      34.278 -17.207 -25.604  0.00  0.00    -0.477 OA
ATOM     18  H   UNL     1      34.055 -17.274 -26.511  0.00  0.00    +0.295 HD
ENDBRANCH  16  17
ENDBRANCH  12  16
ENDBRANCH   4   9
ENDBRANCH   1   3
BRANCH   1  19
ATOM     19  C   UNL     1      32.713 -23.151 -17.345  0.00  0.00    +0.064 C 
BRANCH  19  20
ATOM     20  C   UNL     1      31.522 -22.842 -16.447  0.00  0.00    -0.060 C 
BRANCH  20  21
ATOM     21  N   UNL     1      31.587 -23.639 -15.227  0.00  0.00    +0.387 N 
ATOM     22  H   UNL     1      30.724 -23.509 -14.699  0.00  0.00    -0.084 HD
ATOM     23  H   UNL     1      31.704 -24.619 -15.484  0.00  0.00    -0.084 HD
BRANCH  21  24
ATOM     24  C   UNL     1      32.717 -23.234 -14.402  0.00  0.00    -0.047 C 
BRANCH  24  25
ATOM     25  C   UNL     1      33.581 -24.446 -14.030  0.00  0.00    +0.112 C 
BRANCH  25  27
ATOM     26 CL   UNL     1      37.248 -21.310 -15.969  0.00  0.00    -0.082 Cl
ATOM     27  C   UNL     1      35.039 -24.207 -14.356  0.00  0.00    +0.003 C 
ATOM     28  C   UNL     1      35.414 -23.010 -14.941  0.00  0.00    +0.009 C 
ATOM     29  C   UNL     1      35.968 -25.190 -14.058  0.00  0.00    -0.002 C 
ATOM     30  C   UNL     1      36.759 -22.790 -15.241  0.00  0.00    +0.057 C 
ATOM     31  C   UNL     1      37.312 -24.970 -14.358  0.00  0.00    +0.001 C 
ATOM     32  C   UNL     1      37.708 -23.771 -14.948  0.00  0.00    +0.011 C 
ENDBRANCH  25  27
BRANCH  25  33
ATOM     33  O   UNL     1      33.475 -24.718 -12.634  0.00  0.00    -0.382 OA
ATOM     34  H   UNL     1      32.988 -25.546 -12.502  0.00  0.00    +0.211 HD
ENDBRANCH  25  33
ENDBRANCH  24  25
ENDBRANCH  21  24
ENDBRANCH  20  21
ENDBRANCH  19  20
ENDBRANCH   1  19
TORSDOF 11
ENDMDL
MODEL 8
REMARK VINA RESULT:     -10.7      5.368      9.173
REMARK  Name = 9887812
REMARK  11 active torsions:
REMARK  status: ('A' for Active; 'I' for Inactive)
REMARK    1  A    between atoms: N_1  and  C_3
REMARK    2  A    between atoms: N_1  and  C_19
REMARK    3  A    between atoms: C_4  and  C_9
REMARK    4  A    between atoms: C_12  and  C_16
REMARK    5  A    between atoms: C_16  and  O_17
REMARK    6  A    between atoms: C_19  and  C_20
REMARK    7  A    between atoms: C_20  and  N_21
REMARK    8  A    between atoms: N_21  and  C_24
REMARK    9  A    between atoms: C_24  and  C_25
REMARK   10  A    between atoms: C_25  and  C_27
REMARK   11  A    between atoms: C_25  and  O_33
REMARK                            x       y       z     vdW  Elec       q    Type
REMARK                         _______ _______ _______ _____ _____    ______ ____
ROOT
ATOM      1  N   UNL     1      34.522 -14.651 -22.890  0.00  0.00    -0.335 N 
ATOM      2  H   UNL     1      34.621 -14.047 -23.662  0.00  0.00    +0.147 HD
ENDROOT
BRANCH   1   3
ATOM      3  C   UNL     1      34.489 -16.041 -23.124  0.00  0.00    +0.045 C 
ATOM      4  C   UNL     1      34.880 -18.301 -22.363  0.00  0.00    +0.001 C 
ATOM      5  C   UNL     1      34.912 -16.925 -22.132  0.00  0.00    +0.014 C 
ATOM      6  C   UNL     1      34.035 -16.533 -24.348  0.00  0.00    +0.014 C 
ATOM      7  C   UNL     1      34.426 -18.792 -23.587  0.00  0.00    +0.000 C 
ATOM      8  C   UNL     1      34.003 -17.907 -24.580  0.00  0.00    +0.001 C 
BRANCH   4   9
ATOM      9  C   UNL     1      35.319 -19.218 -21.334  0.00  0.00    +0.000 C 
ATOM     10  C   UNL     1      34.423 -20.138 -20.789  0.00  0.00    +0.006 C 
ATOM     11  C   UNL     1      36.640 -19.182 -20.886  0.00  0.00    +0.000 C 
ATOM     12  C   UNL     1      34.847 -21.021 -19.797  0.00  0.00    +0.075 C 
ATOM     13  C   UNL     1      37.064 -20.065 -19.893  0.00  0.00    +0.000 C 
ATOM     14  C   UNL     1      36.167 -20.985 -19.348  0.00  0.00    +0.006 C 
BRANCH  12  16
ATOM     15  O   UNL     1      34.225 -22.994 -18.595  0.00  0.00    -0.245 OA
ATOM     16  C   UNL     1      33.913 -21.981 -19.229  0.00  0.00    +0.338 C 
BRANCH  16  17
ATOM     17  O   UNL     1      32.614 -21.649 -19.470  0.00  0.00    -0.477 OA
ATOM     18  H   UNL     1      31.929 -22.245 -19.241  0.00  0.00    +0.295 HD
ENDBRANCH  16  17
ENDBRANCH  12  16
ENDBRANCH   4   9
ENDBRANCH   1   3
BRANCH   1  19
ATOM     19  C   UNL     1      34.421 -14.080 -21.583  0.00  0.00    +0.064 C 
BRANCH  19  20
ATOM     20  C   UNL     1      32.963 -13.765 -21.274  0.00  0.00    -0.060 C 
BRANCH  20  21
ATOM     21  N   UNL     1      32.374 -12.980 -22.352  0.00  0.00    +0.387 N 
ATOM     22  H   UNL     1      32.780 -13.276 -23.240  0.00  0.00    -0.084 HD
ATOM     23  H   UNL     1      31.366 -13.132 -22.353  0.00  0.00    -0.084 HD
BRANCH  21  24
ATOM     24  C   UNL     1      32.631 -11.559 -22.161  0.00  0.00    -0.047 C 
BRANCH  24  25
ATOM     25  C   UNL     1      33.223 -10.937 -23.432  0.00  0.00    +0.112 C 
BRANCH  25  27
ATOM     26 CL   UNL     1      31.569  -6.261 -21.868  0.00  0.00    -0.082 Cl
ATOM     27  C   UNL     1      33.502  -9.461 -23.247  0.00  0.00    +0.003 C 
ATOM     28  C   UNL     1      32.519  -8.650 -22.708  0.00  0.00    +0.009 C 
ATOM     29  C   UNL     1      34.735  -8.955 -23.620  0.00  0.00    -0.002 C 
ATOM     30  C   UNL     1      32.777  -7.289 -22.537  0.00  0.00    +0.057 C 
ATOM     31  C   UNL     1      34.993  -7.595 -23.449  0.00  0.00    +0.001 C 
ATOM     32  C   UNL     1      34.014  -6.762 -22.908  0.00  0.00    +0.011 C 
ENDBRANCH  25  27
BRANCH  25  33
ATOM     33  O   UNL     1      34.448 -11.582 -23.774  0.00  0.00    -0.382 OA
ATOM     34  H   UNL     1      35.118 -11.383 -23.101  0.00  0.00    +0.211 HD
ENDBRANCH  25  33
ENDBRANCH  24  25
ENDBRANCH  21  24
ENDBRANCH  20  21
ENDBRANCH  19  20
ENDBRANCH   1  19
TORSDOF 11
ENDMDL
MODEL 9
REMARK VINA RESULT:     -10.6      3.748      9.936
REMARK  Name = 9887812
REMARK  11 active torsions:
REMARK  status: ('A' for Active; 'I' for Inactive)
REMARK    1  A    between atoms: N_1  and  C_3
REMARK    2  A    between atoms: N_1  and  C_19
REMARK    3  A    between atoms: C_4  and  C_9
REMARK    4  A    between atoms: C_12  and  C_16
REMARK    5  A    between atoms: C_16  and  O_17
REMARK    6  A    between atoms: C_19  and  C_20
REMARK    7  A    between atoms: C_20  and  N_21
REMARK    8  A    between atoms: N_21  and  C_24
REMARK    9  A    between atoms: C_24  and  C_25
REMARK   10  A    between atoms: C_25  and  C_27
REMARK   11  A    between atoms: C_25  and  O_33
REMARK                            x       y       z     vdW  Elec       q    Type
REMARK                         _______ _______ _______ _____ _____    ______ ____
ROOT
ATOM      1  N   UNL     1      36.827 -22.111 -17.714  0.00  0.00    -0.335 N 
ATOM      2  H   UNL     1      37.565 -22.592 -18.155  0.00  0.00    +0.147 HD
ENDROOT
BRANCH   1   3
ATOM      3  C   UNL     1      35.726 -21.706 -18.495  0.00  0.00    +0.045 C 
ATOM      4  C   UNL     1      34.788 -20.299 -20.221  0.00  0.00    +0.001 C 
ATOM      5  C   UNL     1      35.879 -20.700 -19.449  0.00  0.00    +0.014 C 
ATOM      6  C   UNL     1      34.481 -22.309 -18.313  0.00  0.00    +0.014 C 
ATOM      7  C   UNL     1      33.544 -20.903 -20.039  0.00  0.00    +0.000 C 
ATOM      8  C   UNL     1      33.391 -21.908 -19.084  0.00  0.00    +0.001 C 
BRANCH   4   9
ATOM      9  C   UNL     1      34.948 -19.255 -21.210  0.00  0.00    +0.000 C 
ATOM     10  C   UNL     1      34.195 -19.285 -22.385  0.00  0.00    +0.006 C 
ATOM     11  C   UNL     1      35.855 -18.219 -20.990  0.00  0.00    +0.000 C 
ATOM     12  C   UNL     1      34.350 -18.279 -23.338  0.00  0.00    +0.075 C 
ATOM     13  C   UNL     1      36.010 -17.213 -21.943  0.00  0.00    +0.000 C 
ATOM     14  C   UNL     1      35.257 -17.243 -23.118  0.00  0.00    +0.006 C 
BRANCH  12  16
ATOM     15  O   UNL     1      32.620 -19.073 -24.788  0.00  0.00    -0.245 OA
ATOM     16  C   UNL     1      33.565 -18.309 -24.562  0.00  0.00    +0.338 C 
BRANCH  16  17
ATOM     17  O   UNL     1      33.982 -17.385 -25.471  0.00  0.00    -0.477 OA
ATOM     18  H   UNL     1      34.550 -17.639 -26.170  0.00  0.00    +0.295 HD
ENDBRANCH  16  17
ENDBRANCH  12  16
ENDBRANCH   4   9
ENDBRANCH   1   3
BRANCH   1  19
ATOM     19  C   UNL     1      36.920 -21.858 -16.309  0.00  0.00    +0.064 C 
BRANCH  19  20
ATOM     20  C   UNL     1      36.760 -23.164 -15.542  0.00  0.00    -0.060 C 
BRANCH  20  21
ATOM     21  N   UNL     1      35.853 -22.982 -14.415  0.00  0.00    +0.387 N 
ATOM     22  H   UNL     1      36.395 -22.721 -13.590  0.00  0.00    -0.084 HD
ATOM     23  H   UNL     1      35.185 -22.248 -14.648  0.00  0.00    -0.084 HD
BRANCH  21  24
ATOM     24  C   UNL     1      35.119 -24.208 -14.136  0.00  0.00    -0.047 C 
BRANCH  24  25
ATOM     25  C   UNL     1      33.874 -23.917 -13.289  0.00  0.00    +0.112 C 
BRANCH  25  27
ATOM     26 CL   UNL     1      28.988 -25.510 -14.087  0.00  0.00    -0.082 Cl
ATOM     27  C   UNL     1      32.623 -23.878 -14.139  0.00  0.00    +0.003 C 
ATOM     28  C   UNL     1      31.522 -24.625 -13.758  0.00  0.00    +0.009 C 
ATOM     29  C   UNL     1      32.606 -23.093 -15.280  0.00  0.00    -0.002 C 
ATOM     30  C   UNL     1      30.369 -24.588 -14.542  0.00  0.00    +0.057 C 
ATOM     31  C   UNL     1      31.453 -23.056 -16.063  0.00  0.00    +0.001 C 
ATOM     32  C   UNL     1      30.334 -23.802 -15.695  0.00  0.00    +0.011 C 
ENDBRANCH  25  27
BRANCH  25  33
ATOM     33  O   UNL     1      33.705 -24.926 -12.295  0.00  0.00    -0.382 OA
ATOM     34  H   UNL     1      33.068 -24.621 -11.629  0.00  0.00    +0.211 HD
ENDBRANCH  25  33
ENDBRANCH  24  25
ENDBRANCH  21  24
ENDBRANCH  20  21
ENDBRANCH  19  20
ENDBRANCH   1  19
TORSDOF 11
ENDMDL
