MODEL 1
REMARK VINA RESULT:     -12.1      0.000      0.000
REMARK  Name = 448317
REMARK  6 active torsions:
REMARK  status: ('A' for Active; 'I' for Inactive)
REMARK    1  A    between atoms: C_1  and  C_18
REMARK    2  A    between atoms: C_4  and  N_24
REMARK    3  A    between atoms: C_5  and  S_25
REMARK    4  A    between atoms: S_25  and  C_26
REMARK    5  A    between atoms: C_27  and  O_32
REMARK    6  A    between atoms: O_32  and  C_33
REMARK                            x       y       z     vdW  Elec       q    Type
REMARK                         _______ _______ _______ _____ _____    ______ ____
ROOT
ATOM      1  C   UNL     1      34.343 -20.901 -19.516  0.00  0.00    +0.002 C 
ATOM      2  C   UNL     1      35.625 -20.356 -19.568  0.00  0.00    +0.025 C 
ATOM      3  C   UNL     1      33.419 -20.606 -20.518  0.00  0.00    +0.001 C 
ATOM      4  C   UNL     1      35.986 -19.518 -20.623  0.00  0.00    +0.149 C 
ATOM      5  C   UNL     1      35.062 -19.223 -21.626  0.00  0.00    +0.052 C 
ATOM      6  C   UNL     1      33.778 -19.767 -21.574  0.00  0.00    +0.008 C 
ENDROOT
BRANCH   1  18
ATOM      7  O   UNL     1      38.679 -23.972 -11.942  0.00  0.00    -0.275 OA
ATOM      8  N   UNL     1      35.559 -23.639 -15.668  0.00  0.00    -0.290 N 
ATOM      9  N   UNL     1      37.488 -24.583 -13.838  0.00  0.00    -0.276 N 
ATOM     10  N   UNL     1      33.246 -23.450 -16.308  0.00  0.00    -0.229 NA
ATOM     11  C   UNL     1      35.365 -24.949 -15.030  0.00  0.00    +0.114 C 
ATOM     12  C   UNL     1      36.384 -22.674 -14.924  0.00  0.00    +0.114 C 
ATOM     13  C   UNL     1      36.711 -25.547 -14.620  0.00  0.00    +0.115 C 
ATOM     14  C   UNL     1      37.712 -23.312 -14.520  0.00  0.00    +0.115 C 
ATOM     15  C   UNL     1      34.566 -23.129 -16.513  0.00  0.00    +0.132 C 
ATOM     16  C   UNL     1      38.013 -24.801 -12.567  0.00  0.00    +0.226 C 
ATOM     17  C   UNL     1      34.944 -22.285 -17.574  0.00  0.00    +0.034 C 
ATOM     18  C   UNL     1      33.969 -21.770 -18.422  0.00  0.00    +0.004 C 
ATOM     19  C   UNL     1      37.727 -26.143 -11.941  0.00  0.00    +0.095 C 
ATOM     20  C   UNL     1      32.633 -22.094 -18.213  0.00  0.00    +0.021 C 
ATOM     21  C   UNL     1      32.326 -22.931 -17.153  0.00  0.00    +0.100 C 
ENDBRANCH   1  18
BRANCH   4  24
ATOM     22  O   UNL     1      37.948 -18.986 -21.711  0.00  0.00    -0.126 OA
ATOM     23  O   UNL     1      37.782 -18.528 -19.570  0.00  0.00    -0.126 OA
ATOM     24  N   UNL     1      37.306 -18.984 -20.635  0.00  0.00    +0.058 N 
ENDBRANCH   4  24
BRANCH   5  25
ATOM     25  S   UNL     1      35.458 -18.155 -23.008  0.00  0.00    -0.082 S 
BRANCH  25  26
ATOM     26  C   UNL     1      34.904 -16.575 -22.387  0.00  0.00    +0.063 C 
ATOM     27  C   UNL     1      34.565 -15.532 -23.250  0.00  0.00    +0.144 C 
ATOM     28  C   UNL     1      34.812 -16.392 -21.005  0.00  0.00    +0.010 C 
ATOM     29  C   UNL     1      34.136 -14.310 -22.734  0.00  0.00    +0.037 C 
ATOM     30  C   UNL     1      34.383 -15.169 -20.490  0.00  0.00    +0.001 C 
ATOM     31  C   UNL     1      34.044 -14.128 -21.354  0.00  0.00    +0.003 C 
BRANCH  27  32
ATOM     32  O   UNL     1      34.640 -15.674 -24.604  0.00  0.00    -0.475 OA
BRANCH  32  33
ATOM     33  C   UNL     1      33.437 -15.475 -25.344  0.00  0.00    +0.206 C 
ATOM     34  C   UNL     1      32.735 -16.805 -25.510  0.00  0.00    +0.051 C 
ENDBRANCH  32  33
ENDBRANCH  27  32
ENDBRANCH  25  26
ENDBRANCH   5  25
TORSDOF 6
ENDMDL
MODEL 2
REMARK VINA RESULT:      -9.7      1.020      2.139
REMARK  Name = 448317
REMARK  6 active torsions:
REMARK  status: ('A' for Active; 'I' for Inactive)
REMARK    1  A    between atoms: C_1  and  C_18
REMARK    2  A    between atoms: C_4  and  N_24
REMARK    3  A    between atoms: C_5  and  S_25
REMARK    4  A    between atoms: S_25  and  C_26
REMARK    5  A    between atoms: C_27  and  O_32
REMARK    6  A    between atoms: O_32  and  C_33
REMARK                            x       y       z     vdW  Elec       q    Type
REMARK                         _______ _______ _______ _____ _____    ______ ____
ROOT
ATOM      1  C   UNL     1      34.435 -20.684 -19.710  0.00  0.00    +0.002 C 
ATOM      2  C   UNL     1      35.737 -20.183 -19.717  0.00  0.00    +0.025 C 
ATOM      3  C   UNL     1      33.540 -20.312 -20.713  0.00  0.00    +0.001 C 
ATOM      4  C   UNL     1      36.145 -19.312 -20.727  0.00  0.00    +0.149 C 
ATOM      5  C   UNL     1      35.249 -18.940 -21.730  0.00  0.00    +0.052 C 
ATOM      6  C   UNL     1      33.947 -19.440 -21.724  0.00  0.00    +0.008 C 
ENDROOT
BRANCH   1  18
ATOM      7  O   UNL     1      38.339 -23.833 -11.936  0.00  0.00    -0.275 OA
ATOM      8  N   UNL     1      35.464 -23.484 -15.852  0.00  0.00    -0.290 N 
ATOM      9  N   UNL     1      37.291 -24.426 -13.920  0.00  0.00    -0.276 N 
ATOM     10  N   UNL     1      33.194 -23.334 -16.640  0.00  0.00    -0.229 NA
ATOM     11  C   UNL     1      35.262 -24.813 -15.258  0.00  0.00    +0.114 C 
ATOM     12  C   UNL     1      36.214 -22.518 -15.034  0.00  0.00    +0.114 C 
ATOM     13  C   UNL     1      36.592 -25.389 -14.773  0.00  0.00    +0.115 C 
ATOM     14  C   UNL     1      37.528 -23.134 -14.557  0.00  0.00    +0.115 C 
ATOM     15  C   UNL     1      34.517 -22.978 -16.750  0.00  0.00    +0.132 C 
ATOM     16  C   UNL     1      37.737 -24.662 -12.622  0.00  0.00    +0.226 C 
ATOM     17  C   UNL     1      34.942 -22.100 -17.764  0.00  0.00    +0.034 C 
ATOM     18  C   UNL     1      34.012 -21.587 -18.663  0.00  0.00    +0.004 C 
ATOM     19  C   UNL     1      37.445 -26.024 -12.046  0.00  0.00    +0.095 C 
ATOM     20  C   UNL     1      32.674 -21.948 -18.551  0.00  0.00    +0.021 C 
ATOM     21  C   UNL     1      32.319 -22.817 -17.532  0.00  0.00    +0.100 C 
ENDBRANCH   1  18
BRANCH   4  24
ATOM     22  O   UNL     1      37.956 -18.436 -19.601  0.00  0.00    -0.126 OA
ATOM     23  O   UNL     1      38.143 -18.803 -21.758  0.00  0.00    -0.126 OA
ATOM     24  N   UNL     1      37.483 -18.825 -20.693  0.00  0.00    +0.058 N 
ENDBRANCH   4  24
BRANCH   5  25
ATOM     25  S   UNL     1      35.707 -17.825 -23.055  0.00  0.00    -0.082 S 
BRANCH  25  26
ATOM     26  C   UNL     1      34.227 -17.858 -24.053  0.00  0.00    +0.063 C 
ATOM     27  C   UNL     1      33.670 -16.686 -24.567  0.00  0.00    +0.144 C 
ATOM     28  C   UNL     1      33.623 -19.089 -24.317  0.00  0.00    +0.010 C 
ATOM     29  C   UNL     1      32.513 -16.744 -25.343  0.00  0.00    +0.037 C 
ATOM     30  C   UNL     1      32.465 -19.147 -25.093  0.00  0.00    +0.001 C 
ATOM     31  C   UNL     1      31.910 -17.975 -25.606  0.00  0.00    +0.003 C 
BRANCH  27  32
ATOM     32  O   UNL     1      34.232 -15.466 -24.333  0.00  0.00    -0.475 OA
BRANCH  32  33
ATOM     33  C   UNL     1      33.506 -14.568 -23.497  0.00  0.00    +0.206 C 
ATOM     34  C   UNL     1      33.808 -13.147 -23.921  0.00  0.00    +0.051 C 
ENDBRANCH  32  33
ENDBRANCH  27  32
ENDBRANCH  25  26
ENDBRANCH   5  25
TORSDOF 6
ENDMDL
MODEL 3
REMARK VINA RESULT:      -9.1      7.324     13.162
REMARK  Name = 448317
REMARK  6 active torsions:
REMARK  status: ('A' for Active; 'I' for Inactive)
REMARK    1  A    between atoms: C_1  and  C_18
REMARK    2  A    between atoms: C_4  and  N_24
REMARK    3  A    between atoms: C_5  and  S_25
REMARK    4  A    between atoms: S_25  and  C_26
REMARK    5  A    between atoms: C_27  and  O_32
REMARK    6  A    between atoms: O_32  and  C_33
REMARK                            x       y       z     vdW  Elec       q    Type
REMARK                         _______ _______ _______ _____ _____    ______ ____
ROOT
ATOM      1  C   UNL     1      32.985 -12.632 -22.258  0.00  0.00    +0.002 C 
ATOM      2  C   UNL     1      32.816 -12.655 -23.642  0.00  0.00    +0.025 C 
ATOM      3  C   UNL     1      33.741 -13.624 -21.632  0.00  0.00    +0.001 C 
ATOM      4  C   UNL     1      33.404 -13.668 -24.401  0.00  0.00    +0.149 C 
ATOM      5  C   UNL     1      34.159 -14.659 -23.775  0.00  0.00    +0.052 C 
ATOM      6  C   UNL     1      34.329 -14.637 -22.390  0.00  0.00    +0.008 C 
ENDROOT
BRANCH   1  18
ATOM      7  O   UNL     1      30.109  -4.033 -24.093  0.00  0.00    -0.275 OA
ATOM      8  N   UNL     1      31.687  -7.966 -21.692  0.00  0.00    -0.290 N 
ATOM      9  N   UNL     1      31.431  -5.348 -22.711  0.00  0.00    -0.276 N 
ATOM     10  N   UNL     1      31.200  -9.555 -19.949  0.00  0.00    -0.229 NA
ATOM     11  C   UNL     1      31.715  -6.827 -20.764  0.00  0.00    +0.114 C 
ATOM     12  C   UNL     1      30.970  -7.749 -22.958  0.00  0.00    +0.114 C 
ATOM     13  C   UNL     1      32.197  -5.566 -21.482  0.00  0.00    +0.115 C 
ATOM     14  C   UNL     1      31.467  -6.475 -23.638  0.00  0.00    +0.115 C 
ATOM     15  C   UNL     1      31.731  -9.270 -21.185  0.00  0.00    +0.132 C 
ATOM     16  C   UNL     1      30.730  -4.190 -23.039  0.00  0.00    +0.226 C 
ATOM     17  C   UNL     1      32.326 -10.282 -21.961  0.00  0.00    +0.034 C 
ATOM     18  C   UNL     1      32.377 -11.583 -21.471  0.00  0.00    +0.004 C 
ATOM     19  C   UNL     1      30.747  -3.080 -22.019  0.00  0.00    +0.095 C 
ATOM     20  C   UNL     1      31.839 -11.870 -20.222  0.00  0.00    +0.021 C 
ATOM     21  C   UNL     1      31.268 -10.830 -19.506  0.00  0.00    +0.100 C 
ENDBRANCH   1  18
BRANCH   4  24
ATOM     22  O   UNL     1      32.362 -14.432 -26.311  0.00  0.00    -0.126 OA
ATOM     23  O   UNL     1      33.877 -12.855 -26.507  0.00  0.00    -0.126 OA
ATOM     24  N   UNL     1      33.204 -13.651 -25.811  0.00  0.00    +0.058 N 
ENDBRANCH   4  24
BRANCH   5  25
ATOM     25  S   UNL     1      34.940 -15.987 -24.689  0.00  0.00    -0.082 S 
BRANCH  25  26
ATOM     26  C   UNL     1      34.803 -17.330 -23.521  0.00  0.00    +0.063 C 
ATOM     27  C   UNL     1      34.131 -18.510 -23.843  0.00  0.00    +0.144 C 
ATOM     28  C   UNL     1      35.385 -17.184 -22.259  0.00  0.00    +0.010 C 
ATOM     29  C   UNL     1      34.041 -19.541 -22.908  0.00  0.00    +0.037 C 
ATOM     30  C   UNL     1      35.294 -18.215 -21.324  0.00  0.00    +0.001 C 
ATOM     31  C   UNL     1      34.622 -19.394 -21.648  0.00  0.00    +0.003 C 
BRANCH  27  32
ATOM     32  O   UNL     1      33.553 -18.690 -25.065  0.00  0.00    -0.475 OA
BRANCH  32  33
ATOM     33  C   UNL     1      32.136 -18.849 -25.094  0.00  0.00    +0.206 C 
ATOM     34  C   UNL     1      31.531 -17.731 -25.915  0.00  0.00    +0.051 C 
ENDBRANCH  32  33
ENDBRANCH  27  32
ENDBRANCH  25  26
ENDBRANCH   5  25
TORSDOF 6
ENDMDL
