MODEL 1
REMARK VINA RESULT:     -12.2      0.000      0.000
REMARK  Name = 25151352
REMARK  5 active torsions:
REMARK  status: ('A' for Active; 'I' for Inactive)
REMARK    1  A    between atoms: N_1  and  C_21
REMARK    2  A    between atoms: C_3  and  C_9
REMARK    3  A    between atoms: C_9  and  C_13
REMARK    4  A    between atoms: C_21  and  C_23
REMARK    5  A    between atoms: C_27  and  C_31
REMARK                            x       y       z     vdW  Elec       q    Type
REMARK                         _______ _______ _______ _____ _____    ______ ____
ROOT
ATOM      1  N   UNL     1      33.088 -22.200 -18.496  0.00  0.00    -0.314 N 
ATOM      2  N   UNL     1      32.996 -20.543 -20.207  0.00  0.00    -0.230 NA
ATOM      3  C   UNL     1      35.051 -19.595 -21.055  0.00  0.00    +0.002 C 
ATOM      4  C   UNL     1      35.787 -20.395 -20.187  0.00  0.00    +0.000 C 
ATOM      5  C   UNL     1      33.671 -19.706 -21.026  0.00  0.00    +0.096 C 
ATOM      6  C   UNL     1      33.745 -21.304 -19.377  0.00  0.00    +0.129 C 
ATOM      7  C   UNL     1      35.129 -21.268 -19.329  0.00  0.00    +0.034 C 
ATOM      8  H   UNL     1      32.106 -22.242 -18.512  0.00  0.00    +0.149 HD
ENDROOT
BRANCH   3   9
ATOM      9  C   UNL     1      35.743 -18.631 -22.008  0.00  0.00    +0.056 C 
BRANCH   9  13
ATOM     10 CL   UNL     1      34.217 -12.994 -23.089  0.00  0.00    -0.081 Cl
ATOM     11  N   UNL     1      33.761 -18.394 -25.072  0.00  0.00    -0.297 N 
ATOM     12  N   UNL     1      33.196 -16.078 -25.420  0.00  0.00    -0.228 NA
ATOM     13  C   UNL     1      34.938 -18.258 -23.189  0.00  0.00    -0.000 C 
ATOM     14  C   UNL     1      34.516 -16.950 -23.546  0.00  0.00    +0.030 C 
ATOM     15  C   UNL     1      33.786 -17.069 -24.724  0.00  0.00    +0.132 C 
ATOM     16  C   UNL     1      34.459 -19.126 -24.146  0.00  0.00    +0.059 C 
ATOM     17  C   UNL     1      34.667 -15.662 -23.006  0.00  0.00    +0.015 C 
ATOM     18  C   UNL     1      34.076 -14.599 -23.687  0.00  0.00    +0.077 C 
ATOM     19  C   UNL     1      33.372 -14.861 -24.854  0.00  0.00    +0.112 C 
ATOM     20  H   UNL     1      33.313 -18.764 -25.866  0.00  0.00    +0.154 HD
ENDBRANCH   9  13
ENDBRANCH   3   9
BRANCH   1  21
ATOM     21  C   UNL     1      33.796 -23.041 -17.587  0.00  0.00    +0.117 C 
BRANCH  21  23
ATOM     22  N   UNL     1      32.730 -24.343 -14.198  0.00  0.00    -0.240 NA
ATOM     23  C   UNL     1      32.923 -23.403 -16.417  0.00  0.00    +0.017 C 
ATOM     24  C   UNL     1      31.554 -23.156 -16.439  0.00  0.00    +0.000 C 
ATOM     25  C   UNL     1      33.457 -23.993 -15.282  0.00  0.00    +0.096 C 
ATOM     26  C   UNL     1      30.773 -23.502 -15.342  0.00  0.00    +0.023 C 
ATOM     27  C   UNL     1      31.403 -24.088 -14.256  0.00  0.00    +0.153 C 
BRANCH  27  31
ATOM     28  F   UNL     1      30.476 -23.473 -12.138  0.00  0.00    -0.164 F 
ATOM     29  F   UNL     1      29.313 -24.834 -13.362  0.00  0.00    -0.164 F 
ATOM     30  F   UNL     1      31.127 -25.532 -12.387  0.00  0.00    -0.164 F 
ATOM     31  C   UNL     1      30.595 -24.472 -13.062  0.00  0.00    +0.435 C 
ENDBRANCH  27  31
ENDBRANCH  21  23
ENDBRANCH   1  21
TORSDOF 5
ENDMDL
MODEL 2
REMARK VINA RESULT:     -11.6      2.090      2.748
REMARK  Name = 25151352
REMARK  5 active torsions:
REMARK  status: ('A' for Active; 'I' for Inactive)
REMARK    1  A    between atoms: N_1  and  C_21
REMARK    2  A    between atoms: C_3  and  C_9
REMARK    3  A    between atoms: C_9  and  C_13
REMARK    4  A    between atoms: C_21  and  C_23
REMARK    5  A    between atoms: C_27  and  C_31
REMARK                            x       y       z     vdW  Elec       q    Type
REMARK                         _______ _______ _______ _____ _____    ______ ____
ROOT
ATOM      1  N   UNL     1      35.027 -21.928 -18.898  0.00  0.00    -0.314 N 
ATOM      2  N   UNL     1      36.348 -20.211 -19.892  0.00  0.00    -0.230 NA
ATOM      3  C   UNL     1      35.356 -18.756 -21.547  0.00  0.00    +0.002 C 
ATOM      4  C   UNL     1      34.145 -19.428 -21.423  0.00  0.00    +0.000 C 
ATOM      5  C   UNL     1      36.418 -19.182 -20.766  0.00  0.00    +0.096 C 
ATOM      6  C   UNL     1      35.156 -20.841 -19.800  0.00  0.00    +0.129 C 
ATOM      7  C   UNL     1      34.035 -20.492 -20.535  0.00  0.00    +0.034 C 
ATOM      8  H   UNL     1      35.810 -22.194 -18.365  0.00  0.00    +0.149 HD
ENDROOT
BRANCH   3   9
ATOM      9  C   UNL     1      35.508 -17.587 -22.509  0.00  0.00    +0.056 C 
BRANCH   9  13
ATOM     10 CL   UNL     1      33.283 -13.579 -26.286  0.00  0.00    -0.081 Cl
ATOM     11  N   UNL     1      34.176 -14.703 -20.697  0.00  0.00    -0.297 N 
ATOM     12  N   UNL     1      33.302 -13.143 -22.311  0.00  0.00    -0.228 NA
ATOM     13  C   UNL     1      34.905 -16.324 -22.035  0.00  0.00    -0.000 C 
ATOM     14  C   UNL     1      34.346 -15.298 -22.842  0.00  0.00    +0.030 C 
ATOM     15  C   UNL     1      33.900 -14.303 -21.978  0.00  0.00    +0.132 C 
ATOM     16  C   UNL     1      34.787 -15.930 -20.719  0.00  0.00    +0.059 C 
ATOM     17  C   UNL     1      34.161 -15.090 -24.219  0.00  0.00    +0.015 C 
ATOM     18  C   UNL     1      33.545 -13.905 -24.620  0.00  0.00    +0.077 C 
ATOM     19  C   UNL     1      33.150 -12.996 -23.648  0.00  0.00    +0.112 C 
ATOM     20  H   UNL     1      33.967 -14.188 -19.884  0.00  0.00    +0.154 HD
ENDBRANCH   9  13
ENDBRANCH   3   9
BRANCH   1  21
ATOM     21  C   UNL     1      33.809 -22.650 -18.733  0.00  0.00    +0.117 C 
BRANCH  21  23
ATOM     22  N   UNL     1      32.027 -23.451 -15.493  0.00  0.00    -0.240 NA
ATOM     23  C   UNL     1      33.581 -22.975 -17.283  0.00  0.00    +0.017 C 
ATOM     24  C   UNL     1      34.648 -23.102 -16.400  0.00  0.00    +0.000 C 
ATOM     25  C   UNL     1      32.302 -23.158 -16.784  0.00  0.00    +0.096 C 
ATOM     26  C   UNL     1      34.406 -23.402 -15.064  0.00  0.00    +0.023 C 
ATOM     27  C   UNL     1      33.090 -23.566 -14.665  0.00  0.00    +0.153 C 
BRANCH  27  31
ATOM     28  F   UNL     1      33.888 -23.825 -12.424  0.00  0.00    -0.164 F 
ATOM     29  F   UNL     1      31.875 -23.056 -12.667  0.00  0.00    -0.164 F 
ATOM     30  F   UNL     1      32.292 -25.150 -13.079  0.00  0.00    -0.164 F 
ATOM     31  C   UNL     1      32.793 -23.890 -13.238  0.00  0.00    +0.435 C 
ENDBRANCH  27  31
ENDBRANCH  21  23
ENDBRANCH   1  21
TORSDOF 5
ENDMDL
MODEL 3
REMARK VINA RESULT:     -11.5      7.766     12.424
REMARK  Name = 25151352
REMARK  5 active torsions:
REMARK  status: ('A' for Active; 'I' for Inactive)
REMARK    1  A    between atoms: N_1  and  C_21
REMARK    2  A    between atoms: C_3  and  C_9
REMARK    3  A    between atoms: C_9  and  C_13
REMARK    4  A    between atoms: C_21  and  C_23
REMARK    5  A    between atoms: C_27  and  C_31
REMARK                            x       y       z     vdW  Elec       q    Type
REMARK                         _______ _______ _______ _____ _____    ______ ____
ROOT
ATOM      1  N   UNL     1      34.156 -13.084 -22.867  0.00  0.00    -0.314 N 
ATOM      2  N   UNL     1      34.592 -15.078 -21.636  0.00  0.00    -0.230 NA
ATOM      3  C   UNL     1      34.668 -17.198 -22.795  0.00  0.00    +0.002 C 
ATOM      4  C   UNL     1      34.402 -16.557 -24.000  0.00  0.00    +0.000 C 
ATOM      5  C   UNL     1      34.753 -16.420 -21.651  0.00  0.00    +0.096 C 
ATOM      6  C   UNL     1      34.333 -14.490 -22.826  0.00  0.00    +0.129 C 
ATOM      7  C   UNL     1      34.230 -15.178 -24.024  0.00  0.00    +0.034 C 
ATOM      8  H   UNL     1      34.225 -12.575 -22.028  0.00  0.00    +0.149 HD
ENDROOT
BRANCH   3   9
ATOM      9  C   UNL     1      34.863 -18.705 -22.736  0.00  0.00    +0.056 C 
BRANCH   9  13
ATOM     10 CL   UNL     1      33.059 -22.531 -18.567  0.00  0.00    -0.081 Cl
ATOM     11  N   UNL     1      37.568 -19.420 -20.380  0.00  0.00    -0.297 N 
ATOM     12  N   UNL     1      36.737 -20.974 -18.737  0.00  0.00    -0.228 NA
ATOM     13  C   UNL     1      35.765 -19.163 -21.659  0.00  0.00    -0.000 C 
ATOM     14  C   UNL     1      35.444 -20.069 -20.615  0.00  0.00    +0.030 C 
ATOM     15  C   UNL     1      36.589 -20.209 -19.836  0.00  0.00    +0.132 C 
ATOM     16  C   UNL     1      37.079 -18.780 -21.489  0.00  0.00    +0.059 C 
ATOM     17  C   UNL     1      34.307 -20.799 -20.230  0.00  0.00    +0.015 C 
ATOM     18  C   UNL     1      34.406 -21.608 -19.100  0.00  0.00    +0.077 C 
ATOM     19  C   UNL     1      35.612 -21.653 -18.413  0.00  0.00    +0.112 C 
ATOM     20  H   UNL     1      38.482 -19.328 -20.030  0.00  0.00    +0.154 HD
ENDBRANCH   9  13
ENDBRANCH   3   9
BRANCH   1  21
ATOM     21  C   UNL     1      33.881 -12.379 -24.076  0.00  0.00    +0.117 C 
BRANCH  21  23
ATOM     22  N   UNL     1      32.980  -8.879 -22.955  0.00  0.00    -0.240 NA
ATOM     23  C   UNL     1      33.969 -10.895 -23.852  0.00  0.00    +0.017 C 
ATOM     24  C   UNL     1      35.065 -10.165 -24.303  0.00  0.00    +0.000 C 
ATOM     25  C   UNL     1      32.964 -10.211 -23.189  0.00  0.00    +0.096 C 
ATOM     26  C   UNL     1      35.118  -8.793 -24.081  0.00  0.00    +0.023 C 
ATOM     27  C   UNL     1      34.060  -8.204 -23.408  0.00  0.00    +0.153 C 
BRANCH  27  31
ATOM     28  F   UNL     1      33.269  -6.021 -23.983  0.00  0.00    -0.164 F 
ATOM     29  F   UNL     1      33.695  -6.392 -21.889  0.00  0.00    -0.164 F 
ATOM     30  F   UNL     1      35.329  -6.195 -23.311  0.00  0.00    -0.164 F 
ATOM     31  C   UNL     1      34.085  -6.734 -23.153  0.00  0.00    +0.435 C 
ENDBRANCH  27  31
ENDBRANCH  21  23
ENDBRANCH   1  21
TORSDOF 5
ENDMDL
MODEL 4
REMARK VINA RESULT:     -11.4      5.818     10.334
REMARK  Name = 25151352
REMARK  5 active torsions:
REMARK  status: ('A' for Active; 'I' for Inactive)
REMARK    1  A    between atoms: N_1  and  C_21
REMARK    2  A    between atoms: C_3  and  C_9
REMARK    3  A    between atoms: C_9  and  C_13
REMARK    4  A    between atoms: C_21  and  C_23
REMARK    5  A    between atoms: C_27  and  C_31
REMARK                            x       y       z     vdW  Elec       q    Type
REMARK                         _______ _______ _______ _____ _____    ______ ____
ROOT
ATOM      1  N   UNL     1      36.114 -17.213 -22.621  0.00  0.00    -0.314 N 
ATOM      2  N   UNL     1      37.189 -18.581 -20.992  0.00  0.00    -0.230 NA
ATOM      3  C   UNL     1      36.011 -20.481 -20.072  0.00  0.00    +0.002 C 
ATOM      4  C   UNL     1      34.905 -20.187 -20.862  0.00  0.00    +0.000 C 
ATOM      5  C   UNL     1      37.118 -19.655 -20.173  0.00  0.00    +0.096 C 
ATOM      6  C   UNL     1      36.094 -18.326 -21.744  0.00  0.00    +0.129 C 
ATOM      7  C   UNL     1      34.939 -19.091 -21.716  0.00  0.00    +0.034 C 
ATOM      8  H   UNL     1      36.924 -16.655 -22.657  0.00  0.00    +0.149 HD
ENDROOT
BRANCH   3   9
ATOM      9  C   UNL     1      36.004 -21.674 -19.128  0.00  0.00    +0.056 C 
BRANCH   9  13
ATOM     10 CL   UNL     1      35.383 -23.964 -13.683  0.00  0.00    -0.081 Cl
ATOM     11  N   UNL     1      32.475 -22.262 -18.368  0.00  0.00    -0.297 N 
ATOM     12  N   UNL     1      32.332 -23.187 -16.149  0.00  0.00    -0.228 NA
ATOM     13  C   UNL     1      34.676 -22.006 -18.572  0.00  0.00    -0.000 C 
ATOM     14  C   UNL     1      34.409 -22.555 -17.291  0.00  0.00    +0.030 C 
ATOM     15  C   UNL     1      33.028 -22.702 -17.195  0.00  0.00    +0.132 C 
ATOM     16  C   UNL     1      33.467 -21.837 -19.213  0.00  0.00    +0.059 C 
ATOM     17  C   UNL     1      35.180 -22.951 -16.185  0.00  0.00    +0.015 C 
ATOM     18  C   UNL     1      34.509 -23.460 -15.074  0.00  0.00    +0.077 C 
ATOM     19  C   UNL     1      33.125 -23.553 -15.114  0.00  0.00    +0.112 C 
ATOM     20  H   UNL     1      31.513 -22.253 -18.574  0.00  0.00    +0.154 HD
ENDBRANCH   9  13
ENDBRANCH   3   9
BRANCH   1  21
ATOM     21  C   UNL     1      35.007 -16.868 -23.451  0.00  0.00    +0.117 C 
BRANCH  21  23
ATOM     22  N   UNL     1      32.860 -13.756 -23.318  0.00  0.00    -0.240 NA
ATOM     23  C   UNL     1      34.305 -15.651 -22.915  0.00  0.00    +0.017 C 
ATOM     24  C   UNL     1      34.428 -15.283 -21.579  0.00  0.00    +0.000 C 
ATOM     25  C   UNL     1      33.516 -14.861 -23.735  0.00  0.00    +0.096 C 
ATOM     26  C   UNL     1      33.767 -14.152 -21.113  0.00  0.00    +0.023 C 
ATOM     27  C   UNL     1      33.002 -13.430 -22.013  0.00  0.00    +0.153 C 
BRANCH  27  31
ATOM     28  F   UNL     1      32.393 -11.989 -20.204  0.00  0.00    -0.164 F 
ATOM     29  F   UNL     1      32.713 -11.058 -22.137  0.00  0.00    -0.164 F 
ATOM     30  F   UNL     1      30.938 -12.268 -21.796  0.00  0.00    -0.164 F 
ATOM     31  C   UNL     1      32.279 -12.211 -21.546  0.00  0.00    +0.435 C 
ENDBRANCH  27  31
ENDBRANCH  21  23
ENDBRANCH   1  21
TORSDOF 5
ENDMDL
MODEL 5
REMARK VINA RESULT:     -11.3      6.656     11.283
REMARK  Name = 25151352
REMARK  5 active torsions:
REMARK  status: ('A' for Active; 'I' for Inactive)
REMARK    1  A    between atoms: N_1  and  C_21
REMARK    2  A    between atoms: C_3  and  C_9
REMARK    3  A    between atoms: C_9  and  C_13
REMARK    4  A    between atoms: C_21  and  C_23
REMARK    5  A    between atoms: C_27  and  C_31
REMARK                            x       y       z     vdW  Elec       q    Type
REMARK                         _______ _______ _______ _____ _____    ______ ____
ROOT
ATOM      1  N   UNL     1      33.845 -19.146 -22.016  0.00  0.00    -0.314 N 
ATOM      2  N   UNL     1      32.842 -20.522 -20.349  0.00  0.00    -0.230 NA
ATOM      3  C   UNL     1      34.250 -21.780 -18.840  0.00  0.00    +0.002 C 
ATOM      4  C   UNL     1      35.385 -21.270 -19.462  0.00  0.00    +0.000 C 
ATOM      5  C   UNL     1      33.013 -21.379 -19.316  0.00  0.00    +0.096 C 
ATOM      6  C   UNL     1      33.967 -20.048 -20.929  0.00  0.00    +0.129 C 
ATOM      7  C   UNL     1      35.249 -20.387 -20.528  0.00  0.00    +0.034 C 
ATOM      8  H   UNL     1      32.944 -18.891 -22.319  0.00  0.00    +0.149 HD
ENDROOT
BRANCH   3   9
ATOM      9  C   UNL     1      34.366 -22.747 -17.671  0.00  0.00    +0.056 C 
BRANCH   9  13
ATOM     10 CL   UNL     1      34.577 -24.602 -12.033  0.00  0.00    -0.081 Cl
ATOM     11  N   UNL     1      37.606 -21.954 -16.170  0.00  0.00    -0.297 N 
ATOM     12  N   UNL     1      37.589 -22.744 -13.894  0.00  0.00    -0.228 NA
ATOM     13  C   UNL     1      35.568 -22.550 -16.833  0.00  0.00    -0.000 C 
ATOM     14  C   UNL     1      35.730 -22.949 -15.480  0.00  0.00    +0.030 C 
ATOM     15  C   UNL     1      37.011 -22.564 -15.097  0.00  0.00    +0.132 C 
ATOM     16  C   UNL     1      36.738 -21.940 -17.231  0.00  0.00    +0.059 C 
ATOM     17  C   UNL     1      34.936 -23.600 -14.521  0.00  0.00    +0.015 C 
ATOM     18  C   UNL     1      35.486 -23.812 -13.258  0.00  0.00    +0.077 C 
ATOM     19  C   UNL     1      36.780 -23.374 -13.010  0.00  0.00    +0.112 C 
ATOM     20  H   UNL     1      38.517 -21.583 -16.178  0.00  0.00    +0.154 HD
ENDBRANCH   9  13
ENDBRANCH   3   9
BRANCH   1  21
ATOM     21  C   UNL     1      34.975 -18.595 -22.688  0.00  0.00    +0.117 C 
BRANCH  21  23
ATOM     22  N   UNL     1      33.635 -16.452 -25.504  0.00  0.00    -0.240 NA
ATOM     23  C   UNL     1      34.577 -17.381 -23.480  0.00  0.00    +0.017 C 
ATOM     24  C   UNL     1      34.761 -16.100 -22.970  0.00  0.00    +0.000 C 
ATOM     25  C   UNL     1      34.015 -17.501 -24.741  0.00  0.00    +0.096 C 
ATOM     26  C   UNL     1      34.382 -14.995 -23.726  0.00  0.00    +0.023 C 
ATOM     27  C   UNL     1      33.829 -15.223 -24.975  0.00  0.00    +0.153 C 
BRANCH  27  31
ATOM     28  F   UNL     1      33.567 -12.855 -25.191  0.00  0.00    -0.164 F 
ATOM     29  F   UNL     1      34.107 -13.952 -26.983  0.00  0.00    -0.164 F 
ATOM     30  F   UNL     1      32.096 -14.120 -26.173  0.00  0.00    -0.164 F 
ATOM     31  C   UNL     1      33.411 -14.061 -25.813  0.00  0.00    +0.435 C 
ENDBRANCH  27  31
ENDBRANCH  21  23
ENDBRANCH   1  21
TORSDOF 5
ENDMDL
MODEL 6
REMARK VINA RESULT:     -11.3      7.596     11.677
REMARK  Name = 25151352
REMARK  5 active torsions:
REMARK  status: ('A' for Active; 'I' for Inactive)
REMARK    1  A    between atoms: N_1  and  C_21
REMARK    2  A    between atoms: C_3  and  C_9
REMARK    3  A    between atoms: C_9  and  C_13
REMARK    4  A    between atoms: C_21  and  C_23
REMARK    5  A    between atoms: C_27  and  C_31
REMARK                            x       y       z     vdW  Elec       q    Type
REMARK                         _______ _______ _______ _____ _____    ______ ____
ROOT
ATOM      1  N   UNL     1      33.041 -12.622 -24.096  0.00  0.00    -0.314 N 
ATOM      2  N   UNL     1      33.015 -10.552 -22.915  0.00  0.00    -0.230 NA
ATOM      3  C   UNL     1      34.599  -8.825 -23.510  0.00  0.00    +0.002 C 
ATOM      4  C   UNL     1      35.135  -9.646 -24.496  0.00  0.00    +0.000 C 
ATOM      5  C   UNL     1      33.550  -9.320 -22.753  0.00  0.00    +0.096 C 
ATOM      6  C   UNL     1      33.563 -11.321 -23.882  0.00  0.00    +0.129 C 
ATOM      7  C   UNL     1      34.613 -10.919 -24.692  0.00  0.00    +0.034 C 
ATOM      8  H   UNL     1      32.295 -12.929 -23.532  0.00  0.00    +0.149 HD
ENDROOT
BRANCH   3   9
ATOM      9  C   UNL     1      35.148  -7.426 -23.272  0.00  0.00    +0.056 C 
BRANCH   9  13
ATOM     10 CL   UNL     1      30.118  -5.068 -21.170  0.00  0.00    -0.081 Cl
ATOM     11  N   UNL     1      33.886  -4.844 -25.534  0.00  0.00    -0.297 N 
ATOM     12  N   UNL     1      31.854  -3.955 -24.595  0.00  0.00    -0.228 NA
ATOM     13  C   UNL     1      34.429  -6.357 -23.996  0.00  0.00    -0.000 C 
ATOM     14  C   UNL     1      33.225  -5.723 -23.591  0.00  0.00    +0.030 C 
ATOM     15  C   UNL     1      32.914  -4.785 -24.571  0.00  0.00    +0.132 C 
ATOM     16  C   UNL     1      34.812  -5.796 -25.195  0.00  0.00    +0.059 C 
ATOM     17  C   UNL     1      32.349  -5.831 -22.498  0.00  0.00    +0.015 C 
ATOM     18  C   UNL     1      31.235  -4.994 -22.473  0.00  0.00    +0.077 C 
ATOM     19  C   UNL     1      31.045  -4.103 -23.520  0.00  0.00    +0.112 C 
ATOM     20  H   UNL     1      33.916  -4.288 -26.345  0.00  0.00    +0.154 HD
ENDBRANCH   9  13
ENDBRANCH   3   9
BRANCH   1  21
ATOM     21  C   UNL     1      33.554 -13.503 -25.093  0.00  0.00    +0.117 C 
BRANCH  21  23
ATOM     22  N   UNL     1      34.133 -17.218 -24.676  0.00  0.00    -0.240 NA
ATOM     23  C   UNL     1      33.956 -14.815 -24.480  0.00  0.00    +0.017 C 
ATOM     24  C   UNL     1      34.505 -14.872 -23.202  0.00  0.00    +0.000 C 
ATOM     25  C   UNL     1      33.793 -16.006 -25.168  0.00  0.00    +0.096 C 
ATOM     26  C   UNL     1      34.867 -16.101 -22.662  0.00  0.00    +0.023 C 
ATOM     27  C   UNL     1      34.663 -17.234 -23.432  0.00  0.00    +0.153 C 
BRANCH  27  31
ATOM     28  F   UNL     1      36.379 -18.703 -22.642  0.00  0.00    -0.164 F 
ATOM     29  F   UNL     1      34.434 -18.863 -21.695  0.00  0.00    -0.164 F 
ATOM     30  F   UNL     1      34.716 -19.594 -23.724  0.00  0.00    -0.164 F 
ATOM     31  C   UNL     1      35.041 -18.569 -22.883  0.00  0.00    +0.435 C 
ENDBRANCH  27  31
ENDBRANCH  21  23
ENDBRANCH   1  21
TORSDOF 5
ENDMDL
MODEL 7
REMARK VINA RESULT:     -11.3      6.414     11.300
REMARK  Name = 25151352
REMARK  5 active torsions:
REMARK  status: ('A' for Active; 'I' for Inactive)
REMARK    1  A    between atoms: N_1  and  C_21
REMARK    2  A    between atoms: C_3  and  C_9
REMARK    3  A    between atoms: C_9  and  C_13
REMARK    4  A    between atoms: C_21  and  C_23
REMARK    5  A    between atoms: C_27  and  C_31
REMARK                            x       y       z     vdW  Elec       q    Type
REMARK                         _______ _______ _______ _____ _____    ______ ____
ROOT
ATOM      1  N   UNL     1      34.107 -19.110 -22.067  0.00  0.00    -0.314 N 
ATOM      2  N   UNL     1      33.235 -20.523 -20.357  0.00  0.00    -0.230 NA
ATOM      3  C   UNL     1      34.759 -21.674 -18.875  0.00  0.00    +0.002 C 
ATOM      4  C   UNL     1      35.843 -21.105 -19.535  0.00  0.00    +0.000 C 
ATOM      5  C   UNL     1      33.487 -21.354 -19.321  0.00  0.00    +0.096 C 
ATOM      6  C   UNL     1      34.313 -19.990 -20.974  0.00  0.00    +0.129 C 
ATOM      7  C   UNL     1      35.624 -20.245 -20.605  0.00  0.00    +0.034 C 
ATOM      8  H   UNL     1      33.185 -18.914 -22.347  0.00  0.00    +0.149 HD
ENDROOT
BRANCH   3   9
ATOM      9  C   UNL     1      34.966 -22.617 -17.699  0.00  0.00    +0.056 C 
BRANCH   9  13
ATOM     10 CL   UNL     1      35.254 -24.667 -12.132  0.00  0.00    -0.081 Cl
ATOM     11  N   UNL     1      31.612 -23.041 -16.302  0.00  0.00    -0.297 N 
ATOM     12  N   UNL     1      31.838 -23.872 -14.053  0.00  0.00    -0.228 NA
ATOM     13  C   UNL     1      33.748 -22.876 -16.903  0.00  0.00    -0.000 C 
ATOM     14  C   UNL     1      33.697 -23.365 -15.571  0.00  0.00    +0.030 C 
ATOM     15  C   UNL     1      32.351 -23.455 -15.226  0.00  0.00    +0.132 C 
ATOM     16  C   UNL     1      32.451 -22.687 -17.327  0.00  0.00    +0.059 C 
ATOM     17  C   UNL     1      34.640 -23.745 -14.602  0.00  0.00    +0.015 C 
ATOM     18  C   UNL     1      34.162 -24.185 -13.368  0.00  0.00    +0.077 C 
ATOM     19  C   UNL     1      32.791 -24.226 -13.158  0.00  0.00    +0.112 C 
ATOM     20  H   UNL     1      30.630 -23.002 -16.335  0.00  0.00    +0.154 HD
ENDBRANCH   9  13
ENDBRANCH   3   9
BRANCH   1  21
ATOM     21  C   UNL     1      35.183 -18.500 -22.777  0.00  0.00    +0.117 C 
BRANCH  21  23
ATOM     22  N   UNL     1      33.683 -16.384 -25.531  0.00  0.00    -0.240 NA
ATOM     23  C   UNL     1      34.698 -17.296 -23.536  0.00  0.00    +0.017 C 
ATOM     24  C   UNL     1      34.798 -16.019 -22.994  0.00  0.00    +0.000 C 
ATOM     25  C   UNL     1      34.137 -17.423 -24.796  0.00  0.00    +0.096 C 
ATOM     26  C   UNL     1      34.341 -14.924 -23.720  0.00  0.00    +0.023 C 
ATOM     27  C   UNL     1      33.796 -15.158 -24.972  0.00  0.00    +0.153 C 
BRANCH  27  31
ATOM     28  F   UNL     1      33.957 -13.838 -26.960  0.00  0.00    -0.164 F 
ATOM     29  F   UNL     1      31.977 -14.109 -26.119  0.00  0.00    -0.164 F 
ATOM     30  F   UNL     1      33.412 -12.816 -25.120  0.00  0.00    -0.164 F 
ATOM     31  C   UNL     1      33.295 -14.006 -25.778  0.00  0.00    +0.435 C 
ENDBRANCH  27  31
ENDBRANCH  21  23
ENDBRANCH   1  21
TORSDOF 5
ENDMDL
MODEL 8
REMARK VINA RESULT:     -11.2      7.725     12.297
REMARK  Name = 25151352
REMARK  5 active torsions:
REMARK  status: ('A' for Active; 'I' for Inactive)
REMARK    1  A    between atoms: N_1  and  C_21
REMARK    2  A    between atoms: C_3  and  C_9
REMARK    3  A    between atoms: C_9  and  C_13
REMARK    4  A    between atoms: C_21  and  C_23
REMARK    5  A    between atoms: C_27  and  C_31
REMARK                            x       y       z     vdW  Elec       q    Type
REMARK                         _______ _______ _______ _____ _____    ______ ____
ROOT
ATOM      1  N   UNL     1      34.127 -12.401 -22.583  0.00  0.00    -0.314 N 
ATOM      2  N   UNL     1      34.505 -14.528 -21.578  0.00  0.00    -0.230 NA
ATOM      3  C   UNL     1      34.594 -16.502 -22.971  0.00  0.00    +0.002 C 
ATOM      4  C   UNL     1      34.371 -15.723 -24.101  0.00  0.00    +0.000 C 
ATOM      5  C   UNL     1      34.653 -15.862 -21.743  0.00  0.00    +0.096 C 
ATOM      6  C   UNL     1      34.288 -13.804 -22.699  0.00  0.00    +0.129 C 
ATOM      7  C   UNL     1      34.213 -14.348 -23.971  0.00  0.00    +0.034 C 
ATOM      8  H   UNL     1      34.176 -11.992 -21.689  0.00  0.00    +0.149 HD
ENDROOT
BRANCH   3   9
ATOM      9  C   UNL     1      34.772 -18.009 -23.081  0.00  0.00    +0.056 C 
BRANCH   9  13
ATOM     10 CL   UNL     1      32.950 -21.889 -18.970  0.00  0.00    -0.081 Cl
ATOM     11  N   UNL     1      37.562 -19.046 -20.956  0.00  0.00    -0.297 N 
ATOM     12  N   UNL     1      36.722 -20.612 -19.330  0.00  0.00    -0.228 NA
ATOM     13  C   UNL     1      35.705 -18.588 -22.092  0.00  0.00    -0.000 C 
ATOM     14  C   UNL     1      35.383 -19.518 -21.069  0.00  0.00    +0.030 C 
ATOM     15  C   UNL     1      36.562 -19.784 -20.380  0.00  0.00    +0.132 C 
ATOM     16  C   UNL     1      37.053 -18.315 -21.998  0.00  0.00    +0.059 C 
ATOM     17  C   UNL     1      34.220 -20.177 -20.638  0.00  0.00    +0.015 C 
ATOM     18  C   UNL     1      34.329 -21.047 -19.555  0.00  0.00    +0.077 C 
ATOM     19  C   UNL     1      35.570 -21.218 -18.958  0.00  0.00    +0.112 C 
ATOM     20  H   UNL     1      38.503 -19.042 -20.668  0.00  0.00    +0.154 HD
ENDBRANCH   9  13
ENDBRANCH   3   9
BRANCH   1  21
ATOM     21  C   UNL     1      33.895 -11.558 -23.709  0.00  0.00    +0.117 C 
BRANCH  21  23
ATOM     22  N   UNL     1      31.887  -8.748 -22.163  0.00  0.00    -0.240 NA
ATOM     23  C   UNL     1      33.497 -10.179 -23.262  0.00  0.00    +0.017 C 
ATOM     24  C   UNL     1      34.314  -9.080 -23.508  0.00  0.00    +0.000 C 
ATOM     25  C   UNL     1      32.304  -9.961 -22.591  0.00  0.00    +0.096 C 
ATOM     26  C   UNL     1      33.919  -7.817 -23.083  0.00  0.00    +0.023 C 
ATOM     27  C   UNL     1      32.708  -7.705 -22.420  0.00  0.00    +0.153 C 
BRANCH  27  31
ATOM     28  F   UNL     1      30.896  -6.252 -21.847  0.00  0.00    -0.164 F 
ATOM     29  F   UNL     1      32.733  -6.026 -20.716  0.00  0.00    -0.164 F 
ATOM     30  F   UNL     1      32.641  -5.356 -22.783  0.00  0.00    -0.164 F 
ATOM     31  C   UNL     1      32.253  -6.364 -21.949  0.00  0.00    +0.435 C 
ENDBRANCH  27  31
ENDBRANCH  21  23
ENDBRANCH   1  21
TORSDOF 5
ENDMDL
MODEL 9
REMARK VINA RESULT:     -11.2      6.420     11.054
REMARK  Name = 25151352
REMARK  5 active torsions:
REMARK  status: ('A' for Active; 'I' for Inactive)
REMARK    1  A    between atoms: N_1  and  C_21
REMARK    2  A    between atoms: C_3  and  C_9
REMARK    3  A    between atoms: C_9  and  C_13
REMARK    4  A    between atoms: C_21  and  C_23
REMARK    5  A    between atoms: C_27  and  C_31
REMARK                            x       y       z     vdW  Elec       q    Type
REMARK                         _______ _______ _______ _____ _____    ______ ____
ROOT
ATOM      1  N   UNL     1      35.714 -17.470 -22.843  0.00  0.00    -0.314 N 
ATOM      2  N   UNL     1      36.925 -18.701 -21.199  0.00  0.00    -0.230 NA
ATOM      3  C   UNL     1      35.853 -20.551 -20.071  0.00  0.00    +0.002 C 
ATOM      4  C   UNL     1      34.691 -20.334 -20.804  0.00  0.00    +0.000 C 
ATOM      5  C   UNL     1      36.933 -19.714 -20.304  0.00  0.00    +0.096 C 
ATOM      6  C   UNL     1      35.778 -18.519 -21.891  0.00  0.00    +0.129 C 
ATOM      7  C   UNL     1      34.644 -19.301 -21.732  0.00  0.00    +0.034 C 
ATOM      8  H   UNL     1      36.507 -16.902 -22.972  0.00  0.00    +0.149 HD
ENDROOT
BRANCH   3   9
ATOM      9  C   UNL     1      35.936 -21.675 -19.049  0.00  0.00    +0.056 C 
BRANCH   9  13
ATOM     10 CL   UNL     1      35.543 -23.856 -13.539  0.00  0.00    -0.081 Cl
ATOM     11  N   UNL     1      32.458 -22.418 -18.198  0.00  0.00    -0.297 N 
ATOM     12  N   UNL     1      32.407 -23.293 -15.954  0.00  0.00    -0.228 NA
ATOM     13  C   UNL     1      34.638 -22.058 -18.456  0.00  0.00    -0.000 C 
ATOM     14  C   UNL     1      34.426 -22.588 -17.156  0.00  0.00    +0.030 C 
ATOM     15  C   UNL     1      33.056 -22.800 -17.026  0.00  0.00    +0.132 C 
ATOM     16  C   UNL     1      33.410 -21.965 -19.074  0.00  0.00    +0.059 C 
ATOM     17  C   UNL     1      35.238 -22.916 -16.058  0.00  0.00    +0.015 C 
ATOM     18  C   UNL     1      34.617 -23.430 -14.921  0.00  0.00    +0.077 C 
ATOM     19  C   UNL     1      33.238 -23.593 -14.928  0.00  0.00    +0.112 C 
ATOM     20  H   UNL     1      31.492 -22.461 -18.382  0.00  0.00    +0.154 HD
ENDBRANCH   9  13
ENDBRANCH   3   9
BRANCH   1  21
ATOM     21  C   UNL     1      34.547 -17.206 -23.618  0.00  0.00    +0.117 C 
BRANCH  21  23
ATOM     22  N   UNL     1      34.431 -13.548 -22.657  0.00  0.00    -0.240 NA
ATOM     23  C   UNL     1      34.292 -15.726 -23.697  0.00  0.00    +0.017 C 
ATOM     24  C   UNL     1      33.706 -15.158 -24.824  0.00  0.00    +0.000 C 
ATOM     25  C   UNL     1      34.633 -14.885 -22.651  0.00  0.00    +0.096 C 
ATOM     26  C   UNL     1      33.482 -13.787 -24.868  0.00  0.00    +0.023 C 
ATOM     27  C   UNL     1      33.860 -13.032 -23.769  0.00  0.00    +0.153 C 
BRANCH  27  31
ATOM     28  F   UNL     1      32.758 -11.129 -22.826  0.00  0.00    -0.164 F 
ATOM     29  F   UNL     1      34.771 -10.828 -23.577  0.00  0.00    -0.164 F 
ATOM     30  F   UNL     1      33.125 -11.115 -24.969  0.00  0.00    -0.164 F 
ATOM     31  C   UNL     1      33.634 -11.557 -23.782  0.00  0.00    +0.435 C 
ENDBRANCH  27  31
ENDBRANCH  21  23
ENDBRANCH   1  21
TORSDOF 5
ENDMDL
