MODEL 1
REMARK VINA RESULT:     -11.7      0.000      0.000
REMARK  Name = 46937030
REMARK  7 active torsions:
REMARK  status: ('A' for Active; 'I' for Inactive)
REMARK    1  A    between atoms: C_3  and  C_10
REMARK    2  A    between atoms: C_7  and  C_25
REMARK    3  A    between atoms: N_9  and  C_12
REMARK    4  A    between atoms: C_12  and  C_13
REMARK    5  A    between atoms: C_18  and  C_21
REMARK    6  A    between atoms: C_25  and  N_26
REMARK    7  A    between atoms: N_26  and  C_29
REMARK                            x       y       z     vdW  Elec       q    Type
REMARK                         _______ _______ _______ _____ _____    ______ ____
ROOT
ATOM      1  O   UNL     1      35.255 -25.386 -11.447  0.00  0.00    -0.277 OA
ATOM      2  N   UNL     1      35.985 -24.204 -13.294  0.00  0.00    -0.275 N 
ATOM      3  C   UNL     1      35.854 -23.168 -14.316  0.00  0.00    +0.152 C 
ATOM      4  C   UNL     1      37.291 -22.826 -14.698  0.00  0.00    +0.031 C 
ATOM      5  C   UNL     1      37.350 -24.708 -13.230  0.00  0.00    +0.094 C 
ATOM      6  C   UNL     1      38.043 -24.132 -14.454  0.00  0.00    +0.024 C 
ATOM      7  C   UNL     1      35.031 -24.599 -12.369  0.00  0.00    +0.204 C 
ENDROOT
BRANCH   3  10
ATOM      8  O   UNL     1      34.951 -24.970 -15.595  0.00  0.00    -0.273 OA
ATOM      9  N   UNL     1      34.707 -22.794 -16.384  0.00  0.00    -0.299 N 
ATOM     10  C   UNL     1      35.122 -23.759 -15.483  0.00  0.00    +0.241 C 
ATOM     11  H   UNL     1      34.903 -21.850 -16.184  0.00  0.00    +0.150 HD
BRANCH   9  12
ATOM     12  C   UNL     1      33.999 -23.104 -17.605  0.00  0.00    +0.116 C 
BRANCH  12  13
ATOM     13  C   UNL     1      34.200 -22.048 -18.654  0.00  0.00    -0.003 C 
ATOM     14  C   UNL     1      35.491 -21.668 -19.022  0.00  0.00    -0.003 C 
ATOM     15  C   UNL     1      33.097 -21.448 -19.261  0.00  0.00    -0.003 C 
ATOM     16  C   UNL     1      35.679 -20.688 -19.996  0.00  0.00    +0.002 C 
ATOM     17  C   UNL     1      33.284 -20.467 -20.235  0.00  0.00    +0.002 C 
ATOM     18  C   UNL     1      34.575 -20.088 -20.603  0.00  0.00    +0.031 C 
BRANCH  18  21
ATOM     19  N   UNL     1      35.285 -17.812 -21.297  0.00  0.00    -0.343 N 
ATOM     20  N   UNL     1      34.451 -19.319 -22.877  0.00  0.00    -0.285 NA
ATOM     21  C   UNL     1      34.770 -19.066 -21.619  0.00  0.00    +0.117 C 
ATOM     22  H   UNL     1      35.409 -17.136 -22.002  0.00  0.00    +0.144 HD
ATOM     23  H   UNL     1      35.525 -17.603 -20.366  0.00  0.00    +0.144 HD
ATOM     24  H   UNL     1      34.582 -18.628 -23.566  0.00  0.00    +0.188 HD
ENDBRANCH  18  21
ENDBRANCH  12  13
ENDBRANCH   9  12
ENDBRANCH   3  10
BRANCH   7  25
ATOM     25  C   UNL     1      33.655 -24.006 -12.541  0.00  0.00    +0.006 C 
BRANCH  25  26
ATOM     26  N   UNL     1      32.848 -24.997 -13.233  0.00  0.00    +0.391 N 
ATOM     27  H   UNL     1      33.128 -25.032 -14.214  0.00  0.00    -0.084 HD
ATOM     28  H   UNL     1      32.993 -25.906 -12.793  0.00  0.00    -0.084 HD
BRANCH  26  29
ATOM     29  C   UNL     1      31.426 -24.653 -13.150  0.00  0.00    -0.061 C 
ATOM     30  C   UNL     1      31.226 -23.147 -13.367  0.00  0.00    -0.021 C 
ATOM     31  C   UNL     1      30.632 -25.596 -14.068  0.00  0.00    -0.021 C 
ATOM     32  C   UNL     1      29.157 -25.229 -14.246  0.00  0.00    -0.002 C 
ATOM     33  C   UNL     1      31.634 -22.566 -14.722  0.00  0.00    -0.002 C 
ATOM     34  C   UNL     1      28.826 -24.566 -15.585  0.00  0.00    -0.000 C 
ATOM     35  C   UNL     1      30.883 -23.061 -15.957  0.00  0.00    -0.000 C 
ATOM     36  C   UNL     1      29.364 -23.149 -15.805  0.00  0.00    -0.000 C 
ENDBRANCH  26  29
ENDBRANCH  25  26
ENDBRANCH   7  25
TORSDOF 7
ENDMDL
MODEL 2
REMARK VINA RESULT:      -9.4      1.604      2.578
REMARK  Name = 46937030
REMARK  7 active torsions:
REMARK  status: ('A' for Active; 'I' for Inactive)
REMARK    1  A    between atoms: C_3  and  C_10
REMARK    2  A    between atoms: C_7  and  C_25
REMARK    3  A    between atoms: N_9  and  C_12
REMARK    4  A    between atoms: C_12  and  C_13
REMARK    5  A    between atoms: C_18  and  C_21
REMARK    6  A    between atoms: C_25  and  N_26
REMARK    7  A    between atoms: N_26  and  C_29
REMARK                            x       y       z     vdW  Elec       q    Type
REMARK                         _______ _______ _______ _____ _____    ______ ____
ROOT
ATOM      1  O   UNL     1      33.259 -24.983 -12.382  0.00  0.00    -0.277 OA
ATOM      2  N   UNL     1      35.376 -24.065 -12.483  0.00  0.00    -0.275 N 
ATOM      3  C   UNL     1      36.342 -23.052 -12.906  0.00  0.00    +0.152 C 
ATOM      4  C   UNL     1      37.428 -23.090 -11.835  0.00  0.00    +0.031 C 
ATOM      5  C   UNL     1      35.920 -24.893 -11.415  0.00  0.00    +0.094 C 
ATOM      6  C   UNL     1      37.397 -24.537 -11.349  0.00  0.00    +0.024 C 
ATOM      7  C   UNL     1      34.055 -24.187 -12.883  0.00  0.00    +0.204 C 
ENDROOT
BRANCH   3  10
ATOM      8  O   UNL     1      37.315 -24.605 -14.437  0.00  0.00    -0.273 OA
ATOM      9  N   UNL     1      36.885 -22.432 -15.153  0.00  0.00    -0.299 N 
ATOM     10  C   UNL     1      36.895 -23.468 -14.236  0.00  0.00    +0.241 C 
ATOM     11  H   UNL     1      36.521 -21.561 -14.874  0.00  0.00    +0.150 HD
BRANCH   9  12
ATOM     12  C   UNL     1      37.385 -22.565 -16.503  0.00  0.00    +0.116 C 
BRANCH  12  13
ATOM     13  C   UNL     1      36.408 -22.046 -17.518  0.00  0.00    -0.003 C 
ATOM     14  C   UNL     1      35.052 -22.349 -17.397  0.00  0.00    -0.003 C 
ATOM     15  C   UNL     1      36.856 -21.263 -18.581  0.00  0.00    -0.003 C 
ATOM     16  C   UNL     1      34.143 -21.867 -18.340  0.00  0.00    +0.002 C 
ATOM     17  C   UNL     1      35.948 -20.781 -19.524  0.00  0.00    +0.002 C 
ATOM     18  C   UNL     1      34.591 -21.083 -19.403  0.00  0.00    +0.031 C 
BRANCH  18  21
ATOM     19  N   UNL     1      34.068 -19.835 -21.485  0.00  0.00    -0.343 N 
ATOM     20  N   UNL     1      32.354 -20.822 -20.241  0.00  0.00    -0.285 NA
ATOM     21  C   UNL     1      33.645 -20.580 -20.385  0.00  0.00    +0.117 C 
ATOM     22  H   UNL     1      33.409 -19.505 -22.138  0.00  0.00    +0.144 HD
ATOM     23  H   UNL     1      35.025 -19.641 -21.609  0.00  0.00    +0.144 HD
ATOM     24  H   UNL     1      31.711 -20.482 -20.905  0.00  0.00    +0.188 HD
ENDBRANCH  18  21
ENDBRANCH  12  13
ENDBRANCH   9  12
ENDBRANCH   3  10
BRANCH   7  25
ATOM     25  C   UNL     1      33.613 -23.272 -13.997  0.00  0.00    +0.006 C 
BRANCH  25  26
ATOM     26  N   UNL     1      32.206 -22.981 -13.775  0.00  0.00    +0.391 N 
ATOM     27  H   UNL     1      31.830 -23.643 -13.095  0.00  0.00    -0.084 HD
ATOM     28  H   UNL     1      32.118 -22.028 -13.424  0.00  0.00    -0.084 HD
BRANCH  26  29
ATOM     29  C   UNL     1      31.452 -23.095 -15.027  0.00  0.00    -0.061 C 
ATOM     30  C   UNL     1      31.290 -24.570 -15.421  0.00  0.00    -0.021 C 
ATOM     31  C   UNL     1      30.165 -22.265 -14.909  0.00  0.00    -0.021 C 
ATOM     32  C   UNL     1      29.173 -22.449 -16.060  0.00  0.00    -0.002 C 
ATOM     33  C   UNL     1      30.504 -25.475 -14.472  0.00  0.00    -0.002 C 
ATOM     34  C   UNL     1      27.965 -23.326 -15.723  0.00  0.00    -0.000 C 
ATOM     35  C   UNL     1      29.028 -25.151 -14.248  0.00  0.00    -0.000 C 
ATOM     36  C   UNL     1      28.234 -24.819 -15.512  0.00  0.00    -0.000 C 
ENDBRANCH  26  29
ENDBRANCH  25  26
ENDBRANCH   7  25
TORSDOF 7
ENDMDL
MODEL 3
REMARK VINA RESULT:      -9.2      2.204      5.402
REMARK  Name = 46937030
REMARK  7 active torsions:
REMARK  status: ('A' for Active; 'I' for Inactive)
REMARK    1  A    between atoms: C_3  and  C_10
REMARK    2  A    between atoms: C_7  and  C_25
REMARK    3  A    between atoms: N_9  and  C_12
REMARK    4  A    between atoms: C_12  and  C_13
REMARK    5  A    between atoms: C_18  and  C_21
REMARK    6  A    between atoms: C_25  and  N_26
REMARK    7  A    between atoms: N_26  and  C_29
REMARK                            x       y       z     vdW  Elec       q    Type
REMARK                         _______ _______ _______ _____ _____    ______ ____
ROOT
ATOM      1  O   UNL     1      32.911 -23.498 -13.525  0.00  0.00    -0.277 OA
ATOM      2  N   UNL     1      33.411 -23.290 -15.770  0.00  0.00    -0.275 N 
ATOM      3  C   UNL     1      34.237 -23.531 -16.952  0.00  0.00    +0.152 C 
ATOM      4  C   UNL     1      33.261 -23.448 -18.122  0.00  0.00    +0.031 C 
ATOM      5  C   UNL     1      32.092 -22.797 -16.145  0.00  0.00    +0.094 C 
ATOM      6  C   UNL     1      32.195 -22.474 -17.627  0.00  0.00    +0.024 C 
ATOM      7  C   UNL     1      33.712 -23.606 -14.455  0.00  0.00    +0.204 C 
ENDROOT
BRANCH   3  10
ATOM      8  O   UNL     1      35.707 -21.893 -16.029  0.00  0.00    -0.273 OA
ATOM      9  N   UNL     1      35.587 -22.126 -18.342  0.00  0.00    -0.299 N 
ATOM     10  C   UNL     1      35.258 -22.437 -17.034  0.00  0.00    +0.241 C 
ATOM     11  H   UNL     1      35.159 -22.635 -19.068  0.00  0.00    +0.150 HD
BRANCH   9  12
ATOM     12  C   UNL     1      36.531 -21.090 -18.696  0.00  0.00    +0.116 C 
BRANCH  12  13
ATOM     13  C   UNL     1      36.074 -20.294 -19.884  0.00  0.00    -0.003 C 
ATOM     14  C   UNL     1      34.761 -20.417 -20.341  0.00  0.00    -0.003 C 
ATOM     15  C   UNL     1      36.960 -19.433 -20.531  0.00  0.00    -0.003 C 
ATOM     16  C   UNL     1      34.336 -19.678 -21.445  0.00  0.00    +0.002 C 
ATOM     17  C   UNL     1      36.535 -18.694 -21.635  0.00  0.00    +0.002 C 
ATOM     18  C   UNL     1      35.222 -18.816 -22.091  0.00  0.00    +0.031 C 
BRANCH  18  21
ATOM     19  N   UNL     1      33.766 -18.510 -24.079  0.00  0.00    -0.343 N 
ATOM     20  N   UNL     1      35.342 -16.881 -23.512  0.00  0.00    -0.285 NA
ATOM     21  C   UNL     1      34.779 -18.046 -23.242  0.00  0.00    +0.117 C 
ATOM     22  H   UNL     1      33.482 -17.971 -24.853  0.00  0.00    +0.144 HD
ATOM     23  H   UNL     1      33.336 -19.376 -23.898  0.00  0.00    +0.144 HD
ATOM     24  H   UNL     1      35.044 -16.358 -24.290  0.00  0.00    +0.188 HD
ENDBRANCH  18  21
ENDBRANCH  12  13
ENDBRANCH   9  12
ENDBRANCH   3  10
BRANCH   7  25
ATOM     25  C   UNL     1      35.110 -24.108 -14.197  0.00  0.00    +0.006 C 
BRANCH  25  26
ATOM     26  N   UNL     1      35.717 -23.200 -13.238  0.00  0.00    +0.391 N 
ATOM     27  H   UNL     1      35.357 -22.258 -13.393  0.00  0.00    -0.084 HD
ATOM     28  H   UNL     1      35.487 -23.515 -12.295  0.00  0.00    -0.084 HD
BRANCH  26  29
ATOM     29  C   UNL     1      37.176 -23.189 -13.390  0.00  0.00    -0.061 C 
ATOM     30  C   UNL     1      37.854 -23.604 -12.078  0.00  0.00    -0.021 C 
ATOM     31  C   UNL     1      37.550 -23.989 -14.647  0.00  0.00    -0.021 C 
ATOM     32  C   UNL     1      39.048 -24.240 -14.828  0.00  0.00    -0.002 C 
ATOM     33  C   UNL     1      37.582 -25.016 -11.557  0.00  0.00    -0.002 C 
ATOM     34  C   UNL     1      39.499 -25.660 -14.478  0.00  0.00    -0.000 C 
ATOM     35  C   UNL     1      38.046 -26.189 -12.418  0.00  0.00    -0.000 C 
ATOM     36  C   UNL     1      39.454 -26.054 -12.999  0.00  0.00    -0.000 C 
ENDBRANCH  26  29
ENDBRANCH  25  26
ENDBRANCH   7  25
TORSDOF 7
ENDMDL
MODEL 4
REMARK VINA RESULT:      -9.1      7.351     12.240
REMARK  Name = 46937030
REMARK  7 active torsions:
REMARK  status: ('A' for Active; 'I' for Inactive)
REMARK    1  A    between atoms: C_3  and  C_10
REMARK    2  A    between atoms: C_7  and  C_25
REMARK    3  A    between atoms: N_9  and  C_12
REMARK    4  A    between atoms: C_12  and  C_13
REMARK    5  A    between atoms: C_18  and  C_21
REMARK    6  A    between atoms: C_25  and  N_26
REMARK    7  A    between atoms: N_26  and  C_29
REMARK                            x       y       z     vdW  Elec       q    Type
REMARK                         _______ _______ _______ _____ _____    ______ ____
ROOT
ATOM      1  O   UNL     1      34.044 -17.554 -25.124  0.00  0.00    -0.277 OA
ATOM      2  N   UNL     1      33.951 -15.287 -24.686  0.00  0.00    -0.275 N 
ATOM      3  C   UNL     1      34.419 -14.061 -24.043  0.00  0.00    +0.152 C 
ATOM      4  C   UNL     1      33.983 -12.945 -24.987  0.00  0.00    +0.031 C 
ATOM      5  C   UNL     1      33.036 -14.988 -25.781  0.00  0.00    +0.094 C 
ATOM      6  C   UNL     1      32.724 -13.507 -25.644  0.00  0.00    +0.024 C 
ATOM      7  C   UNL     1      34.386 -16.581 -24.448  0.00  0.00    +0.204 C 
ENDROOT
BRANCH   3  10
ATOM      8  O   UNL     1      34.052 -14.616 -21.750  0.00  0.00    -0.273 OA
ATOM      9  N   UNL     1      32.694 -13.014 -22.755  0.00  0.00    -0.299 N 
ATOM     10  C   UNL     1      33.724 -13.938 -22.721  0.00  0.00    +0.241 C 
ATOM     11  H   UNL     1      32.525 -12.530 -23.595  0.00  0.00    +0.150 HD
BRANCH   9  12
ATOM     12  C   UNL     1      31.852 -12.725 -21.616  0.00  0.00    +0.116 C 
BRANCH  12  13
ATOM     13  C   UNL     1      31.937 -11.282 -21.207  0.00  0.00    -0.003 C 
ATOM     14  C   UNL     1      31.718 -10.921 -19.877  0.00  0.00    -0.003 C 
ATOM     15  C   UNL     1      32.232 -10.304 -22.157  0.00  0.00    -0.003 C 
ATOM     16  C   UNL     1      31.796  -9.581 -19.497  0.00  0.00    +0.002 C 
ATOM     17  C   UNL     1      32.310  -8.964 -21.776  0.00  0.00    +0.002 C 
ATOM     18  C   UNL     1      32.093  -8.603 -20.447  0.00  0.00    +0.031 C 
BRANCH  18  21
ATOM     19  N   UNL     1      31.373  -6.235 -20.648  0.00  0.00    -0.343 N 
ATOM     20  N   UNL     1      33.027  -6.837 -19.110  0.00  0.00    -0.285 NA
ATOM     21  C   UNL     1      32.175  -7.206 -20.051  0.00  0.00    +0.117 C 
ATOM     22  H   UNL     1      31.445  -5.295 -20.364  0.00  0.00    +0.144 HD
ATOM     23  H   UNL     1      30.735  -6.489 -21.352  0.00  0.00    +0.144 HD
ATOM     24  H   UNL     1      33.084  -5.892 -18.841  0.00  0.00    +0.188 HD
ENDBRANCH  18  21
ENDBRANCH  12  13
ENDBRANCH   9  12
ENDBRANCH   3  10
BRANCH   7  25
ATOM     25  C   UNL     1      35.331 -16.760 -23.288  0.00  0.00    +0.006 C 
BRANCH  25  26
ATOM     26  N   UNL     1      34.561 -17.333 -22.196  0.00  0.00    +0.391 N 
ATOM     27  H   UNL     1      34.895 -16.948 -21.312  0.00  0.00    -0.084 HD
ATOM     28  H   UNL     1      33.577 -17.101 -22.331  0.00  0.00    -0.084 HD
BRANCH  26  29
ATOM     29  C   UNL     1      34.705 -18.791 -22.173  0.00  0.00    -0.061 C 
ATOM     30  C   UNL     1      36.170 -19.188 -22.399  0.00  0.00    -0.021 C 
ATOM     31  C   UNL     1      34.027 -19.338 -20.907  0.00  0.00    -0.021 C 
ATOM     32  C   UNL     1      34.270 -20.824 -20.638  0.00  0.00    -0.002 C 
ATOM     33  C   UNL     1      37.195 -18.733 -21.359  0.00  0.00    -0.002 C 
ATOM     34  C   UNL     1      35.289 -21.109 -19.531  0.00  0.00    -0.000 C 
ATOM     35  C   UNL     1      37.045 -19.270 -19.937  0.00  0.00    -0.000 C 
ATOM     36  C   UNL     1      36.750 -20.767 -19.833  0.00  0.00    -0.000 C 
ENDBRANCH  26  29
ENDBRANCH  25  26
ENDBRANCH   7  25
TORSDOF 7
ENDMDL
MODEL 5
REMARK VINA RESULT:      -9.0      2.882      5.570
REMARK  Name = 46937030
REMARK  7 active torsions:
REMARK  status: ('A' for Active; 'I' for Inactive)
REMARK    1  A    between atoms: C_3  and  C_10
REMARK    2  A    between atoms: C_7  and  C_25
REMARK    3  A    between atoms: N_9  and  C_12
REMARK    4  A    between atoms: C_12  and  C_13
REMARK    5  A    between atoms: C_18  and  C_21
REMARK    6  A    between atoms: C_25  and  N_26
REMARK    7  A    between atoms: N_26  and  C_29
REMARK                            x       y       z     vdW  Elec       q    Type
REMARK                         _______ _______ _______ _____ _____    ______ ____
ROOT
ATOM      1  O   UNL     1      33.904 -23.015 -14.892  0.00  0.00    -0.277 OA
ATOM      2  N   UNL     1      34.198 -22.699 -17.162  0.00  0.00    -0.275 N 
ATOM      3  C   UNL     1      34.954 -22.805 -18.408  0.00  0.00    +0.152 C 
ATOM      4  C   UNL     1      33.888 -22.830 -19.499  0.00  0.00    +0.031 C 
ATOM      5  C   UNL     1      32.801 -22.378 -17.423  0.00  0.00    +0.094 C 
ATOM      6  C   UNL     1      32.746 -22.016 -18.898  0.00  0.00    +0.024 C 
ATOM      7  C   UNL     1      34.638 -22.998 -15.882  0.00  0.00    +0.204 C 
ENDROOT
BRANCH   3  10
ATOM      8  O   UNL     1      36.570 -21.228 -17.634  0.00  0.00    -0.273 OA
ATOM      9  N   UNL     1      35.623 -20.932 -19.739  0.00  0.00    -0.299 N 
ATOM     10  C   UNL     1      35.813 -21.584 -18.533  0.00  0.00    +0.241 C 
ATOM     11  H   UNL     1      34.986 -21.315 -20.385  0.00  0.00    +0.150 HD
BRANCH   9  12
ATOM     12  C   UNL     1      36.315 -19.714 -20.098  0.00  0.00    +0.116 C 
BRANCH  12  13
ATOM     13  C   UNL     1      35.709 -19.059 -21.306  0.00  0.00    -0.003 C 
ATOM     14  C   UNL     1      34.789 -19.756 -22.089  0.00  0.00    -0.003 C 
ATOM     15  C   UNL     1      36.066 -17.754 -21.644  0.00  0.00    -0.003 C 
ATOM     16  C   UNL     1      34.225 -19.148 -23.211  0.00  0.00    +0.002 C 
ATOM     17  C   UNL     1      35.502 -17.145 -22.766  0.00  0.00    +0.002 C 
ATOM     18  C   UNL     1      34.582 -17.842 -23.549  0.00  0.00    +0.031 C 
BRANCH  18  21
ATOM     19  N   UNL     1      32.715 -17.542 -25.158  0.00  0.00    -0.343 N 
ATOM     20  N   UNL     1      34.679 -16.297 -25.387  0.00  0.00    -0.285 NA
ATOM     21  C   UNL     1      33.994 -17.207 -24.717  0.00  0.00    +0.117 C 
ATOM     22  H   UNL     1      32.336 -17.099 -25.952  0.00  0.00    +0.144 HD
ATOM     23  H   UNL     1      32.190 -18.220 -24.675  0.00  0.00    +0.144 HD
ATOM     24  H   UNL     1      34.283 -15.866 -26.179  0.00  0.00    +0.188 HD
ENDBRANCH  18  21
ENDBRANCH  12  13
ENDBRANCH   9  12
ENDBRANCH   3  10
BRANCH   7  25
ATOM     25  C   UNL     1      36.106 -23.315 -15.743  0.00  0.00    +0.006 C 
BRANCH  25  26
ATOM     26  N   UNL     1      36.649 -22.392 -14.760  0.00  0.00    +0.391 N 
ATOM     27  H   UNL     1      37.156 -21.649 -15.242  0.00  0.00    -0.084 HD
ATOM     28  H   UNL     1      35.880 -21.999 -14.217  0.00  0.00    -0.084 HD
BRANCH  26  29
ATOM     29  C   UNL     1      37.563 -23.088 -13.850  0.00  0.00    -0.061 C 
ATOM     30  C   UNL     1      37.103 -22.919 -12.396  0.00  0.00    -0.021 C 
ATOM     31  C   UNL     1      37.762 -24.527 -14.350  0.00  0.00    -0.021 C 
ATOM     32  C   UNL     1      38.529 -25.441 -13.392  0.00  0.00    -0.002 C 
ATOM     33  C   UNL     1      35.741 -23.499 -12.012  0.00  0.00    -0.002 C 
ATOM     34  C   UNL     1      37.652 -26.432 -12.622  0.00  0.00    -0.000 C 
ATOM     35  C   UNL     1      35.563 -25.013 -12.117  0.00  0.00    -0.000 C 
ATOM     36  C   UNL     1      36.718 -25.845 -11.560  0.00  0.00    -0.000 C 
ENDBRANCH  26  29
ENDBRANCH  25  26
ENDBRANCH   7  25
TORSDOF 7
ENDMDL
MODEL 6
REMARK VINA RESULT:      -9.0      2.548      6.819
REMARK  Name = 46937030
REMARK  7 active torsions:
REMARK  status: ('A' for Active; 'I' for Inactive)
REMARK    1  A    between atoms: C_3  and  C_10
REMARK    2  A    between atoms: C_7  and  C_25
REMARK    3  A    between atoms: N_9  and  C_12
REMARK    4  A    between atoms: C_12  and  C_13
REMARK    5  A    between atoms: C_18  and  C_21
REMARK    6  A    between atoms: C_25  and  N_26
REMARK    7  A    between atoms: N_26  and  C_29
REMARK                            x       y       z     vdW  Elec       q    Type
REMARK                         _______ _______ _______ _____ _____    ______ ____
ROOT
ATOM      1  O   UNL     1      32.217 -21.354 -18.668  0.00  0.00    -0.277 OA
ATOM      2  N   UNL     1      34.367 -21.155 -19.491  0.00  0.00    -0.275 N 
ATOM      3  C   UNL     1      35.747 -21.606 -19.663  0.00  0.00    +0.152 C 
ATOM      4  C   UNL     1      36.186 -20.993 -20.989  0.00  0.00    +0.031 C 
ATOM      5  C   UNL     1      34.036 -20.107 -20.447  0.00  0.00    +0.094 C 
ATOM      6  C   UNL     1      35.362 -19.711 -21.077  0.00  0.00    +0.024 C 
ATOM      7  C   UNL     1      33.400 -21.701 -18.662  0.00  0.00    +0.204 C 
ENDROOT
BRANCH   3  10
ATOM      8  O   UNL     1      37.172 -19.996 -18.626  0.00  0.00    -0.273 OA
ATOM      9  N   UNL     1      36.536 -21.882 -17.419  0.00  0.00    -0.299 N 
ATOM     10  C   UNL     1      36.558 -21.055 -18.529  0.00  0.00    +0.241 C 
ATOM     11  H   UNL     1      36.003 -22.710 -17.461  0.00  0.00    +0.150 HD
BRANCH   9  12
ATOM     12  C   UNL     1      37.256 -21.590 -16.200  0.00  0.00    +0.116 C 
BRANCH  12  13
ATOM     13  C   UNL     1      37.260 -22.759 -15.257  0.00  0.00    -0.003 C 
ATOM     14  C   UNL     1      36.211 -22.929 -14.354  0.00  0.00    -0.003 C 
ATOM     15  C   UNL     1      38.313 -23.673 -15.284  0.00  0.00    -0.003 C 
ATOM     16  C   UNL     1      36.215 -24.015 -13.477  0.00  0.00    +0.002 C 
ATOM     17  C   UNL     1      38.317 -24.759 -14.408  0.00  0.00    +0.002 C 
ATOM     18  C   UNL     1      37.268 -24.929 -13.505  0.00  0.00    +0.031 C 
BRANCH  18  21
ATOM     19  N   UNL     1      36.876 -27.331 -13.009  0.00  0.00    -0.343 N 
ATOM     20  N   UNL     1      37.653 -25.895 -11.338  0.00  0.00    -0.285 NA
ATOM     21  C   UNL     1      37.272 -26.061 -12.592  0.00  0.00    +0.117 C 
ATOM     22  H   UNL     1      36.887 -28.083 -12.374  0.00  0.00    +0.144 HD
ATOM     23  H   UNL     1      36.586 -27.475 -13.938  0.00  0.00    +0.144 HD
ATOM     24  H   UNL     1      37.656 -26.660 -10.718  0.00  0.00    +0.188 HD
ENDBRANCH  18  21
ENDBRANCH  12  13
ENDBRANCH   9  12
ENDBRANCH   3  10
BRANCH   7  25
ATOM     25  C   UNL     1      33.868 -22.780 -17.718  0.00  0.00    +0.006 C 
BRANCH  25  26
ATOM     26  N   UNL     1      32.683 -23.481 -17.253  0.00  0.00    +0.391 N 
ATOM     27  H   UNL     1      31.885 -23.211 -17.829  0.00  0.00    -0.084 HD
ATOM     28  H   UNL     1      32.845 -24.486 -17.326  0.00  0.00    -0.084 HD
BRANCH  26  29
ATOM     29  C   UNL     1      32.402 -23.147 -15.853  0.00  0.00    -0.061 C 
ATOM     30  C   UNL     1      30.925 -22.770 -15.679  0.00  0.00    -0.021 C 
ATOM     31  C   UNL     1      32.939 -24.274 -14.956  0.00  0.00    -0.021 C 
ATOM     32  C   UNL     1      32.541 -24.168 -13.483  0.00  0.00    -0.002 C 
ATOM     33  C   UNL     1      29.879 -23.842 -15.985  0.00  0.00    -0.002 C 
ATOM     34  C   UNL     1      31.428 -25.128 -13.057  0.00  0.00    -0.000 C 
ATOM     35  C   UNL     1      29.882 -25.099 -15.116  0.00  0.00    -0.000 C 
ATOM     36  C   UNL     1      30.029 -24.853 -13.614  0.00  0.00    -0.000 C 
ENDBRANCH  26  29
ENDBRANCH  25  26
ENDBRANCH   7  25
TORSDOF 7
ENDMDL
MODEL 7
REMARK VINA RESULT:      -8.8      1.825      2.847
REMARK  Name = 46937030
REMARK  7 active torsions:
REMARK  status: ('A' for Active; 'I' for Inactive)
REMARK    1  A    between atoms: C_3  and  C_10
REMARK    2  A    between atoms: C_7  and  C_25
REMARK    3  A    between atoms: N_9  and  C_12
REMARK    4  A    between atoms: C_12  and  C_13
REMARK    5  A    between atoms: C_18  and  C_21
REMARK    6  A    between atoms: C_25  and  N_26
REMARK    7  A    between atoms: N_26  and  C_29
REMARK                            x       y       z     vdW  Elec       q    Type
REMARK                         _______ _______ _______ _____ _____    ______ ____
ROOT
ATOM      1  O   UNL     1      35.431 -26.650 -15.408  0.00  0.00    -0.277 OA
ATOM      2  N   UNL     1      36.974 -25.616 -14.034  0.00  0.00    -0.275 N 
ATOM      3  C   UNL     1      37.362 -24.697 -12.965  0.00  0.00    +0.152 C 
ATOM      4  C   UNL     1      38.661 -25.278 -12.416  0.00  0.00    +0.031 C 
ATOM      5  C   UNL     1      38.061 -26.531 -14.358  0.00  0.00    +0.094 C 
ATOM      6  C   UNL     1      39.273 -25.982 -13.624  0.00  0.00    +0.024 C 
ATOM      7  C   UNL     1      35.719 -25.761 -14.604  0.00  0.00    +0.204 C 
ENDROOT
BRANCH   3  10
ATOM      8  O   UNL     1      37.588 -22.321 -12.907  0.00  0.00    -0.273 OA
ATOM      9  N   UNL     1      37.806 -23.425 -14.944  0.00  0.00    -0.299 N 
ATOM     10  C   UNL     1      37.601 -23.350 -13.577  0.00  0.00    +0.241 C 
ATOM     11  H   UNL     1      37.794 -24.312 -15.372  0.00  0.00    +0.150 HD
BRANCH   9  12
ATOM     12  C   UNL     1      38.037 -22.265 -15.775  0.00  0.00    +0.116 C 
BRANCH  12  13
ATOM     13  C   UNL     1      36.930 -22.057 -16.768  0.00  0.00    -0.003 C 
ATOM     14  C   UNL     1      35.664 -22.588 -16.522  0.00  0.00    -0.003 C 
ATOM     15  C   UNL     1      37.168 -21.333 -17.937  0.00  0.00    -0.003 C 
ATOM     16  C   UNL     1      34.635 -22.395 -17.445  0.00  0.00    +0.002 C 
ATOM     17  C   UNL     1      36.140 -21.140 -18.859  0.00  0.00    +0.002 C 
ATOM     18  C   UNL     1      34.873 -21.670 -18.613  0.00  0.00    +0.031 C 
BRANCH  18  21
ATOM     19  N   UNL     1      33.904 -20.512 -20.584  0.00  0.00    -0.343 N 
ATOM     20  N   UNL     1      32.701 -22.196 -19.498  0.00  0.00    -0.285 NA
ATOM     21  C   UNL     1      33.801 -21.468 -19.574  0.00  0.00    +0.117 C 
ATOM     22  H   UNL     1      33.165 -20.393 -21.224  0.00  0.00    +0.144 HD
ATOM     23  H   UNL     1      34.713 -19.957 -20.656  0.00  0.00    +0.144 HD
ATOM     24  H   UNL     1      31.974 -22.060 -20.147  0.00  0.00    +0.188 HD
ENDBRANCH  18  21
ENDBRANCH  12  13
ENDBRANCH   9  12
ENDBRANCH   3  10
BRANCH   7  25
ATOM     25  C   UNL     1      34.680 -24.751 -14.187  0.00  0.00    +0.006 C 
BRANCH  25  26
ATOM     26  N   UNL     1      33.380 -25.363 -14.408  0.00  0.00    +0.391 N 
ATOM     27  H   UNL     1      33.188 -25.390 -15.410  0.00  0.00    -0.084 HD
ATOM     28  H   UNL     1      33.392 -26.309 -14.026  0.00  0.00    -0.084 HD
BRANCH  26  29
ATOM     29  C   UNL     1      32.328 -24.595 -13.736  0.00  0.00    -0.061 C 
ATOM     30  C   UNL     1      32.308 -23.150 -14.252  0.00  0.00    -0.021 C 
ATOM     31  C   UNL     1      31.009 -25.379 -13.820  0.00  0.00    -0.021 C 
ATOM     32  C   UNL     1      29.774 -24.613 -13.343  0.00  0.00    -0.002 C 
ATOM     33  C   UNL     1      31.990 -22.931 -15.732  0.00  0.00    -0.002 C 
ATOM     34  C   UNL     1      28.878 -24.090 -14.468  0.00  0.00    -0.000 C 
ATOM     35  C   UNL     1      30.609 -23.355 -16.228  0.00  0.00    -0.000 C 
ATOM     36  C   UNL     1      29.441 -22.953 -15.326  0.00  0.00    -0.000 C 
ENDBRANCH  26  29
ENDBRANCH  25  26
ENDBRANCH   7  25
TORSDOF 7
ENDMDL
