MODEL 1
REMARK VINA RESULT:     -11.4      0.000      0.000
REMARK  Name = 445018
REMARK  7 active torsions:
REMARK  status: ('A' for Active; 'I' for Inactive)
REMARK    1  A    between atoms: N_2  and  S_14
REMARK    2  A    between atoms: N_3  and  C_25
REMARK    3  A    between atoms: C_4  and  C_10
REMARK    4  A    between atoms: N_9  and  O_12
REMARK    5  A    between atoms: S_14  and  C_17
REMARK    6  A    between atoms: C_22  and  O_23
REMARK    7  A    between atoms: C_25  and  C_26
REMARK                            x       y       z     vdW  Elec       q    Type
REMARK                         _______ _______ _______ _____ _____    ______ ____
ROOT
ATOM      1  O   UNL     1      36.192 -22.692 -17.072  0.00  0.00    -0.275 OA
ATOM      2  N   UNL     1      33.138 -23.963 -14.665  0.00  0.00    -0.128 NA
ATOM      3  N   UNL     1      33.933 -23.215 -16.842  0.00  0.00    -0.260 N 
ATOM      4  C   UNL     1      34.433 -23.565 -14.055  0.00  0.00    +0.168 C 
ATOM      5  C   UNL     1      32.804 -23.254 -15.924  0.00  0.00    +0.192 C 
ATOM      6  C   UNL     1      35.218 -22.557 -14.886  0.00  0.00    +0.112 C 
ATOM      7  C   UNL     1      35.188 -22.839 -16.377  0.00  0.00    +0.229 C 
ENDROOT
BRANCH   4  10
ATOM      8  O   UNL     1      35.436 -25.564 -14.867  0.00  0.00    -0.272 OA
ATOM      9  N   UNL     1      35.571 -25.091 -12.608  0.00  0.00    -0.196 N 
ATOM     10  C   UNL     1      35.192 -24.843 -13.902  0.00  0.00    +0.261 C 
ATOM     11  H   UNL     1      35.347 -24.478 -11.871  0.00  0.00    +0.182 HD
BRANCH   9  12
ATOM     12  O   UNL     1      36.298 -26.271 -12.401  0.00  0.00    -0.295 OA
ATOM     13  H   UNL     1      35.706 -27.034 -12.482  0.00  0.00    +0.241 HD
ENDBRANCH   9  12
ENDBRANCH   4  10
BRANCH   2  14
ATOM     14  S   UNL     1      31.836 -24.264 -13.600  0.00  0.00    +0.065 S 
ATOM     15  O   UNL     1      31.802 -23.228 -12.588  0.00  0.00    -0.153 OA
ATOM     16  O   UNL     1      31.839 -25.664 -13.231  0.00  0.00    -0.153 OA
BRANCH  14  17
ATOM     17  C   UNL     1      30.473 -23.995 -14.690  0.00  0.00    +0.122 C 
ATOM     18  C   UNL     1      30.042 -22.700 -14.930  0.00  0.00    +0.023 C 
ATOM     19  C   UNL     1      29.857 -25.083 -15.286  0.00  0.00    +0.023 C 
ATOM     20  C   UNL     1      28.964 -22.488 -15.790  0.00  0.00    +0.038 C 
ATOM     21  C   UNL     1      28.779 -24.871 -16.147  0.00  0.00    +0.038 C 
ATOM     22  C   UNL     1      28.333 -23.573 -16.398  0.00  0.00    +0.139 C 
BRANCH  22  23
ATOM     23  O   UNL     1      27.283 -23.365 -17.239  0.00  0.00    -0.471 OA
ATOM     24  C   UNL     1      26.640 -22.094 -17.172  0.00  0.00    +0.252 C 
ENDBRANCH  22  23
ENDBRANCH  14  17
ENDBRANCH   2  14
BRANCH   3  25
ATOM     25  C   UNL     1      33.679 -23.444 -18.255  0.00  0.00    +0.121 C 
BRANCH  25  26
ATOM     26  C   UNL     1      33.877 -22.198 -19.070  0.00  0.00    -0.002 C 
ATOM     27  C   UNL     1      32.776 -21.437 -19.443  0.00  0.00    -0.003 C 
ATOM     28  C   UNL     1      35.161 -21.819 -19.444  0.00  0.00    -0.003 C 
ATOM     29  C   UNL     1      32.960 -20.281 -20.200  0.00  0.00    -0.000 C 
ATOM     30  C   UNL     1      35.345 -20.662 -20.201  0.00  0.00    -0.000 C 
ATOM     31  C   UNL     1      34.245 -19.893 -20.580  0.00  0.00    -0.000 C 
ENDBRANCH  25  26
ENDBRANCH   3  25
TORSDOF 7
ENDMDL
MODEL 2
REMARK VINA RESULT:      -9.8      2.150      3.314
REMARK  Name = 445018
REMARK  7 active torsions:
REMARK  status: ('A' for Active; 'I' for Inactive)
REMARK    1  A    between atoms: N_2  and  S_14
REMARK    2  A    between atoms: N_3  and  C_25
REMARK    3  A    between atoms: C_4  and  C_10
REMARK    4  A    between atoms: N_9  and  O_12
REMARK    5  A    between atoms: S_14  and  C_17
REMARK    6  A    between atoms: C_22  and  O_23
REMARK    7  A    between atoms: C_25  and  C_26
REMARK                            x       y       z     vdW  Elec       q    Type
REMARK                         _______ _______ _______ _____ _____    ______ ____
ROOT
ATOM      1  O   UNL     1      39.026 -23.619 -15.921  0.00  0.00    -0.275 OA
ATOM      2  N   UNL     1      35.731 -24.121 -13.551  0.00  0.00    -0.128 NA
ATOM      3  N   UNL     1      37.193 -22.666 -14.844  0.00  0.00    -0.260 N 
ATOM      4  C   UNL     1      36.719 -25.223 -13.671  0.00  0.00    +0.168 C 
ATOM      5  C   UNL     1      36.300 -22.761 -13.698  0.00  0.00    +0.192 C 
ATOM      6  C   UNL     1      38.128 -24.749 -14.008  0.00  0.00    +0.112 C 
ATOM      7  C   UNL     1      38.168 -23.637 -15.040  0.00  0.00    +0.229 C 
ENDROOT
BRANCH   4  10
ATOM      8  O   UNL     1      35.010 -26.021 -15.121  0.00  0.00    -0.272 OA
ATOM      9  N   UNL     1      37.111 -26.977 -15.247  0.00  0.00    -0.196 N 
ATOM     10  C   UNL     1      36.178 -26.107 -14.747  0.00  0.00    +0.261 C 
ATOM     11  H   UNL     1      38.035 -27.005 -14.910  0.00  0.00    +0.182 HD
BRANCH   9  12
ATOM     12  O   UNL     1      36.666 -27.826 -16.270  0.00  0.00    -0.295 OA
ATOM     13  H   UNL     1      37.370 -27.937 -16.928  0.00  0.00    +0.241 HD
ENDBRANCH   9  12
ENDBRANCH   4  10
BRANCH   2  14
ATOM     14  S   UNL     1      34.504 -24.303 -12.376  0.00  0.00    +0.065 S 
ATOM     15  O   UNL     1      34.488 -23.135 -11.520  0.00  0.00    -0.153 OA
ATOM     16  O   UNL     1      34.579 -25.635 -11.812  0.00  0.00    -0.153 OA
BRANCH  14  17
ATOM     17  C   UNL     1      33.071 -24.233 -13.407  0.00  0.00    +0.122 C 
ATOM     18  C   UNL     1      32.035 -25.125 -13.189  0.00  0.00    +0.023 C 
ATOM     19  C   UNL     1      33.009 -23.286 -14.415  0.00  0.00    +0.023 C 
ATOM     20  C   UNL     1      30.904 -25.071 -14.003  0.00  0.00    +0.038 C 
ATOM     21  C   UNL     1      31.877 -23.230 -15.231  0.00  0.00    +0.038 C 
ATOM     22  C   UNL     1      30.825 -24.123 -15.024  0.00  0.00    +0.139 C 
BRANCH  22  23
ATOM     23  O   UNL     1      29.721 -24.068 -15.818  0.00  0.00    -0.471 OA
ATOM     24  C   UNL     1      28.996 -22.840 -15.838  0.00  0.00    +0.252 C 
ENDBRANCH  22  23
ENDBRANCH  14  17
ENDBRANCH   2  14
BRANCH   3  25
ATOM     25  C   UNL     1      37.121 -21.476 -15.675  0.00  0.00    +0.121 C 
BRANCH  25  26
ATOM     26  C   UNL     1      36.339 -21.718 -16.934  0.00  0.00    -0.002 C 
ATOM     27  C   UNL     1      36.828 -21.249 -18.148  0.00  0.00    -0.003 C 
ATOM     28  C   UNL     1      35.133 -22.407 -16.874  0.00  0.00    -0.003 C 
ATOM     29  C   UNL     1      36.101 -21.473 -19.317  0.00  0.00    -0.000 C 
ATOM     30  C   UNL     1      34.407 -22.631 -18.043  0.00  0.00    -0.000 C 
ATOM     31  C   UNL     1      34.891 -22.164 -19.265  0.00  0.00    -0.000 C 
ENDBRANCH  25  26
ENDBRANCH   3  25
TORSDOF 7
ENDMDL
MODEL 3
REMARK VINA RESULT:      -9.4      2.051      2.989
REMARK  Name = 445018
REMARK  7 active torsions:
REMARK  status: ('A' for Active; 'I' for Inactive)
REMARK    1  A    between atoms: N_2  and  S_14
REMARK    2  A    between atoms: N_3  and  C_25
REMARK    3  A    between atoms: C_4  and  C_10
REMARK    4  A    between atoms: N_9  and  O_12
REMARK    5  A    between atoms: S_14  and  C_17
REMARK    6  A    between atoms: C_22  and  O_23
REMARK    7  A    between atoms: C_25  and  C_26
REMARK                            x       y       z     vdW  Elec       q    Type
REMARK                         _______ _______ _______ _____ _____    ______ ____
ROOT
ATOM      1  O   UNL     1      37.950 -20.405 -16.883  0.00  0.00    -0.275 OA
ATOM      2  N   UNL     1      36.007 -23.724 -15.491  0.00  0.00    -0.128 NA
ATOM      3  N   UNL     1      36.381 -22.087 -17.254  0.00  0.00    -0.260 N 
ATOM      4  C   UNL     1      36.800 -22.892 -14.549  0.00  0.00    +0.168 C 
ATOM      5  C   UNL     1      35.416 -22.978 -16.627  0.00  0.00    +0.192 C 
ATOM      6  C   UNL     1      36.926 -21.435 -14.976  0.00  0.00    +0.112 C 
ATOM      7  C   UNL     1      37.163 -21.252 -16.464  0.00  0.00    +0.229 C 
ENDROOT
BRANCH   4  10
ATOM      8  O   UNL     1      38.958 -23.426 -15.397  0.00  0.00    -0.272 OA
ATOM      9  N   UNL     1      38.330 -24.276 -13.341  0.00  0.00    -0.196 N 
ATOM     10  C   UNL     1      38.138 -23.553 -14.489  0.00  0.00    +0.261 C 
ATOM     11  H   UNL     1      37.638 -24.345 -12.645  0.00  0.00    +0.182 HD
BRANCH   9  12
ATOM     12  O   UNL     1      39.573 -24.912 -13.220  0.00  0.00    -0.295 OA
ATOM     13  H   UNL     1      39.857 -24.895 -12.294  0.00  0.00    +0.241 HD
ENDBRANCH   9  12
ENDBRANCH   4  10
BRANCH   2  14
ATOM     14  S   UNL     1      35.039 -24.958 -14.812  0.00  0.00    +0.065 S 
ATOM     15  O   UNL     1      35.436 -25.171 -13.436  0.00  0.00    -0.153 OA
ATOM     16  O   UNL     1      34.959 -26.065 -15.742  0.00  0.00    -0.153 OA
BRANCH  14  17
ATOM     17  C   UNL     1      33.468 -24.150 -14.798  0.00  0.00    +0.122 C 
ATOM     18  C   UNL     1      32.866 -23.818 -16.001  0.00  0.00    +0.023 C 
ATOM     19  C   UNL     1      32.865 -23.862 -13.585  0.00  0.00    +0.023 C 
ATOM     20  C   UNL     1      31.626 -23.179 -15.991  0.00  0.00    +0.038 C 
ATOM     21  C   UNL     1      31.624 -23.224 -13.574  0.00  0.00    +0.038 C 
ATOM     22  C   UNL     1      31.005 -22.882 -14.777  0.00  0.00    +0.139 C 
BRANCH  22  23
ATOM     23  O   UNL     1      29.794 -22.260 -14.767  0.00  0.00    -0.471 OA
ATOM     24  C   UNL     1      28.675 -23.012 -15.233  0.00  0.00    +0.252 C 
ENDBRANCH  22  23
ENDBRANCH  14  17
ENDBRANCH   2  14
BRANCH   3  25
ATOM     25  C   UNL     1      36.399 -22.004 -18.704  0.00  0.00    +0.121 C 
BRANCH  25  26
ATOM     26  C   UNL     1      35.127 -21.422 -19.249  0.00  0.00    -0.002 C 
ATOM     27  C   UNL     1      33.903 -21.863 -18.760  0.00  0.00    -0.003 C 
ATOM     28  C   UNL     1      35.184 -20.447 -20.239  0.00  0.00    -0.003 C 
ATOM     29  C   UNL     1      32.721 -21.323 -19.266  0.00  0.00    -0.000 C 
ATOM     30  C   UNL     1      34.002 -19.907 -20.746  0.00  0.00    -0.000 C 
ATOM     31  C   UNL     1      32.770 -20.346 -20.259  0.00  0.00    -0.000 C 
ENDBRANCH  25  26
ENDBRANCH   3  25
TORSDOF 7
ENDMDL
MODEL 4
REMARK VINA RESULT:      -8.4      2.520      7.169
REMARK  Name = 445018
REMARK  7 active torsions:
REMARK  status: ('A' for Active; 'I' for Inactive)
REMARK    1  A    between atoms: N_2  and  S_14
REMARK    2  A    between atoms: N_3  and  C_25
REMARK    3  A    between atoms: C_4  and  C_10
REMARK    4  A    between atoms: N_9  and  O_12
REMARK    5  A    between atoms: S_14  and  C_17
REMARK    6  A    between atoms: C_22  and  O_23
REMARK    7  A    between atoms: C_25  and  C_26
REMARK                            x       y       z     vdW  Elec       q    Type
REMARK                         _______ _______ _______ _____ _____    ______ ____
ROOT
ATOM      1  O   UNL     1      31.343 -23.559 -12.226  0.00  0.00    -0.275 OA
ATOM      2  N   UNL     1      32.605 -23.513 -16.117  0.00  0.00    -0.128 NA
ATOM      3  N   UNL     1      33.015 -24.042 -13.775  0.00  0.00    -0.260 N 
ATOM      4  C   UNL     1      31.394 -22.743 -15.732  0.00  0.00    +0.168 C 
ATOM      5  C   UNL     1      33.617 -23.652 -15.042  0.00  0.00    +0.192 C 
ATOM      6  C   UNL     1      31.383 -22.309 -14.270  0.00  0.00    +0.112 C 
ATOM      7  C   UNL     1      31.887 -23.373 -13.313  0.00  0.00    +0.229 C 
ENDROOT
BRANCH   4  10
ATOM      8  O   UNL     1      30.275 -24.842 -15.711  0.00  0.00    -0.272 OA
ATOM      9  N   UNL     1      29.213 -23.026 -16.667  0.00  0.00    -0.196 N 
ATOM     10  C   UNL     1      30.249 -23.656 -16.030  0.00  0.00    +0.261 C 
ATOM     11  H   UNL     1      29.245 -22.070 -16.901  0.00  0.00    +0.182 HD
BRANCH   9  12
ATOM     12  O   UNL     1      28.102 -23.828 -16.965  0.00  0.00    -0.295 OA
ATOM     13  H   UNL     1      28.402 -24.707 -17.241  0.00  0.00    +0.241 HD
ENDBRANCH   9  12
ENDBRANCH   4  10
BRANCH   2  14
ATOM     14  S   UNL     1      33.209 -23.272 -17.696  0.00  0.00    +0.065 S 
ATOM     15  O   UNL     1      32.394 -22.284 -18.372  0.00  0.00    -0.153 OA
ATOM     16  O   UNL     1      33.473 -24.559 -18.306  0.00  0.00    -0.153 OA
BRANCH  14  17
ATOM     17  C   UNL     1      34.764 -22.521 -17.324  0.00  0.00    +0.122 C 
ATOM     18  C   UNL     1      35.472 -21.891 -18.334  0.00  0.00    +0.023 C 
ATOM     19  C   UNL     1      35.249 -22.575 -16.028  0.00  0.00    +0.023 C 
ATOM     20  C   UNL     1      36.700 -21.299 -18.041  0.00  0.00    +0.038 C 
ATOM     21  C   UNL     1      36.478 -21.982 -15.733  0.00  0.00    +0.038 C 
ATOM     22  C   UNL     1      37.203 -21.344 -16.741  0.00  0.00    +0.139 C 
BRANCH  22  23
ATOM     23  O   UNL     1      38.401 -20.765 -16.454  0.00  0.00    -0.471 OA
ATOM     24  C   UNL     1      38.603 -19.431 -16.915  0.00  0.00    +0.252 C 
ENDBRANCH  22  23
ENDBRANCH  14  17
ENDBRANCH   2  14
BRANCH   3  25
ATOM     25  C   UNL     1      33.699 -25.037 -12.966  0.00  0.00    +0.121 C 
BRANCH  25  26
ATOM     26  C   UNL     1      35.100 -24.617 -12.626  0.00  0.00    -0.002 C 
ATOM     27  C   UNL     1      35.310 -23.637 -11.663  0.00  0.00    -0.003 C 
ATOM     28  C   UNL     1      36.174 -25.211 -13.279  0.00  0.00    -0.003 C 
ATOM     29  C   UNL     1      36.611 -23.246 -11.348  0.00  0.00    -0.000 C 
ATOM     30  C   UNL     1      37.475 -24.820 -12.964  0.00  0.00    -0.000 C 
ATOM     31  C   UNL     1      37.694 -23.838 -11.998  0.00  0.00    -0.000 C 
ENDBRANCH  25  26
ENDBRANCH   3  25
TORSDOF 7
ENDMDL
