MODEL 1
REMARK VINA RESULT:     -12.3      0.000      0.000
REMARK  Name = 448384
REMARK  11 active torsions:
REMARK  status: ('A' for Active; 'I' for Inactive)
REMARK    1  A    between atoms: C_1  and  C_3
REMARK    2  A    between atoms: C_1  and  C_6
REMARK    3  A    between atoms: C_1  and  C_19
REMARK    4  A    between atoms: C_3  and  O_4
REMARK    5  A    between atoms: C_6  and  C_7
REMARK    6  A    between atoms: C_7  and  N_10
REMARK    7  A    between atoms: C_19  and  C_21
REMARK    8  A    between atoms: C_21  and  C_22
REMARK    9  A    between atoms: C_25  and  C_28
REMARK   10  A    between atoms: C_33  and  O_34
REMARK   11  A    between atoms: O_34  and  C_35
REMARK                            x       y       z     vdW  Elec       q    Type
REMARK                         _______ _______ _______ _____ _____    ______ ____
ROOT
ATOM      1  C   UNL     1      32.272 -22.797 -15.924  0.00  0.00    +0.108 C 
ENDROOT
BRANCH   1   3
ATOM      2  O   UNL     1      30.338 -24.205 -15.475  0.00  0.00    -0.250 OA
ATOM      3  C   UNL     1      30.816 -23.227 -16.037  0.00  0.00    +0.314 C 
BRANCH   3   4
ATOM      4  O   UNL     1      30.084 -22.405 -16.830  0.00  0.00    -0.480 OA
ATOM      5  H   UNL     1      30.208 -21.478 -16.783  0.00  0.00    +0.295 HD
ENDBRANCH   3   4
ENDBRANCH   1   3
BRANCH   1   6
ATOM      6  C   UNL     1      32.813 -23.118 -14.516  0.00  0.00    +0.034 C 
BRANCH   6   7
ATOM      7  C   UNL     1      33.173 -24.590 -14.312  0.00  0.00    +0.102 C 
BRANCH   7  10
ATOM      8  O   UNL     1      35.463 -26.038 -15.554  0.00  0.00    -0.269 OA
ATOM      9  O   UNL     1      34.357 -23.656 -11.737  0.00  0.00    -0.269 OA
ATOM     10  N   UNL     1      34.501 -24.784 -13.804  0.00  0.00    -0.223 N 
ATOM     11  C   UNL     1      35.498 -25.478 -14.473  0.00  0.00    +0.255 C 
ATOM     12  C   UNL     1      34.948 -24.298 -12.584  0.00  0.00    +0.255 C 
ATOM     13  C   UNL     1      36.679 -25.423 -13.614  0.00  0.00    +0.058 C 
ATOM     14  C   UNL     1      36.347 -24.709 -12.471  0.00  0.00    +0.058 C 
ATOM     15  C   UNL     1      37.940 -25.950 -13.804  0.00  0.00    +0.005 C 
ATOM     16  C   UNL     1      37.258 -24.485 -11.460  0.00  0.00    +0.005 C 
ATOM     17  C   UNL     1      38.880 -25.735 -12.793  0.00  0.00    +0.000 C 
ATOM     18  C   UNL     1      38.542 -25.010 -11.631  0.00  0.00    +0.000 C 
ENDBRANCH   7  10
ENDBRANCH   6   7
ENDBRANCH   1   6
BRANCH   1  19
ATOM     19  C   UNL     1      33.087 -23.547 -16.996  0.00  0.00    +0.080 C 
BRANCH  19  21
ATOM     20  O   UNL     1      35.436 -23.081 -16.672  0.00  0.00    -0.291 OA
ATOM     21  C   UNL     1      34.414 -22.868 -17.320  0.00  0.00    +0.174 C 
BRANCH  21  22
ATOM     22  C   UNL     1      34.464 -21.905 -18.458  0.00  0.00    +0.035 C 
ATOM     23  C   UNL     1      35.695 -21.466 -18.948  0.00  0.00    +0.003 C 
ATOM     24  C   UNL     1      33.280 -21.444 -19.033  0.00  0.00    +0.003 C 
ATOM     25  C   UNL     1      34.556 -20.105 -20.587  0.00  0.00    +0.000 C 
ATOM     26  C   UNL     1      35.740 -20.566 -20.011  0.00  0.00    +0.000 C 
ATOM     27  C   UNL     1      33.326 -20.544 -20.098  0.00  0.00    +0.000 C 
BRANCH  25  28
ATOM     28  C   UNL     1      34.603 -19.170 -21.691  0.00  0.00    +0.000 C 
ATOM     29  C   UNL     1      35.216 -17.928 -21.525  0.00  0.00    +0.003 C 
ATOM     30  C   UNL     1      34.033 -19.510 -22.918  0.00  0.00    +0.003 C 
ATOM     31  C   UNL     1      35.260 -17.025 -22.588  0.00  0.00    +0.037 C 
ATOM     32  C   UNL     1      34.077 -18.607 -23.980  0.00  0.00    +0.037 C 
ATOM     33  C   UNL     1      34.690 -17.365 -23.815  0.00  0.00    +0.139 C 
BRANCH  33  34
ATOM     34  O   UNL     1      34.736 -16.484 -24.852  0.00  0.00    -0.475 OA
BRANCH  34  35
ATOM     35  C   UNL     1      33.517 -15.831 -25.204  0.00  0.00    +0.206 C 
ATOM     36  C   UNL     1      33.392 -14.554 -24.400  0.00  0.00    +0.051 C 
ENDBRANCH  34  35
ENDBRANCH  33  34
ENDBRANCH  25  28
ENDBRANCH  21  22
ENDBRANCH  19  21
ENDBRANCH   1  19
TORSDOF 11
ENDMDL
MODEL 2
REMARK VINA RESULT:     -11.9      0.682      2.048
REMARK  Name = 448384
REMARK  11 active torsions:
REMARK  status: ('A' for Active; 'I' for Inactive)
REMARK    1  A    between atoms: C_1  and  C_3
REMARK    2  A    between atoms: C_1  and  C_6
REMARK    3  A    between atoms: C_1  and  C_19
REMARK    4  A    between atoms: C_3  and  O_4
REMARK    5  A    between atoms: C_6  and  C_7
REMARK    6  A    between atoms: C_7  and  N_10
REMARK    7  A    between atoms: C_19  and  C_21
REMARK    8  A    between atoms: C_21  and  C_22
REMARK    9  A    between atoms: C_25  and  C_28
REMARK   10  A    between atoms: C_33  and  O_34
REMARK   11  A    between atoms: O_34  and  C_35
REMARK                            x       y       z     vdW  Elec       q    Type
REMARK                         _______ _______ _______ _____ _____    ______ ____
ROOT
ATOM      1  C   UNL     1      32.599 -23.117 -15.817  0.00  0.00    +0.108 C 
ENDROOT
BRANCH   1   3
ATOM      2  O   UNL     1      30.517 -22.427 -16.870  0.00  0.00    -0.250 OA
ATOM      3  C   UNL     1      31.097 -22.885 -15.893  0.00  0.00    +0.314 C 
BRANCH   3   4
ATOM      4  O   UNL     1      30.449 -23.246 -14.757  0.00  0.00    -0.480 OA
ATOM      5  H   UNL     1      30.344 -24.153 -14.547  0.00  0.00    +0.295 HD
ENDBRANCH   3   4
ENDBRANCH   1   3
BRANCH   1   6
ATOM      6  C   UNL     1      32.906 -24.310 -14.888  0.00  0.00    +0.034 C 
BRANCH   6   7
ATOM      7  C   UNL     1      33.658 -23.924 -13.614  0.00  0.00    +0.102 C 
BRANCH   7  10
ATOM      8  O   UNL     1      35.858 -23.196 -11.739  0.00  0.00    -0.269 OA
ATOM      9  O   UNL     1      35.028 -25.825 -15.463  0.00  0.00    -0.269 OA
ATOM     10  N   UNL     1      35.021 -24.374 -13.602  0.00  0.00    -0.223 N 
ATOM     11  C   UNL     1      35.967 -23.968 -12.673  0.00  0.00    +0.255 C 
ATOM     12  C   UNL     1      35.554 -25.270 -14.517  0.00  0.00    +0.255 C 
ATOM     13  C   UNL     1      37.203 -24.670 -13.019  0.00  0.00    +0.058 C 
ATOM     14  C   UNL     1      36.953 -25.458 -14.133  0.00  0.00    +0.058 C 
ATOM     15  C   UNL     1      38.444 -24.629 -12.417  0.00  0.00    +0.005 C 
ATOM     16  C   UNL     1      37.931 -26.245 -14.705  0.00  0.00    +0.005 C 
ATOM     17  C   UNL     1      39.451 -25.419 -12.979  0.00  0.00    +0.000 C 
ATOM     18  C   UNL     1      39.197 -26.219 -14.113  0.00  0.00    +0.000 C 
ENDBRANCH   7  10
ENDBRANCH   6   7
ENDBRANCH   1   6
BRANCH   1  19
ATOM     19  C   UNL     1      33.123 -23.397 -17.239  0.00  0.00    +0.080 C 
BRANCH  19  21
ATOM     20  O   UNL     1      35.441 -22.814 -16.879  0.00  0.00    -0.291 OA
ATOM     21  C   UNL     1      34.424 -22.663 -17.551  0.00  0.00    +0.174 C 
BRANCH  21  22
ATOM     22  C   UNL     1      34.452 -21.722 -18.708  0.00  0.00    +0.035 C 
ATOM     23  C   UNL     1      33.258 -21.256 -19.259  0.00  0.00    +0.003 C 
ATOM     24  C   UNL     1      35.674 -21.307 -19.238  0.00  0.00    +0.003 C 
ATOM     25  C   UNL     1      34.507 -19.961 -20.870  0.00  0.00    +0.000 C 
ATOM     26  C   UNL     1      33.286 -20.376 -20.340  0.00  0.00    +0.000 C 
ATOM     27  C   UNL     1      35.701 -20.426 -20.320  0.00  0.00    +0.000 C 
BRANCH  25  28
ATOM     28  C   UNL     1      34.537 -19.048 -21.993  0.00  0.00    +0.000 C 
ATOM     29  C   UNL     1      34.028 -19.448 -23.230  0.00  0.00    +0.003 C 
ATOM     30  C   UNL     1      35.076 -17.770 -21.841  0.00  0.00    +0.003 C 
ATOM     31  C   UNL     1      34.058 -18.569 -24.312  0.00  0.00    +0.037 C 
ATOM     32  C   UNL     1      35.105 -16.893 -22.924  0.00  0.00    +0.037 C 
ATOM     33  C   UNL     1      34.597 -17.292 -24.160  0.00  0.00    +0.139 C 
BRANCH  33  34
ATOM     34  O   UNL     1      34.623 -16.434 -25.217  0.00  0.00    -0.475 OA
BRANCH  34  35
ATOM     35  C   UNL     1      33.406 -15.762 -25.538  0.00  0.00    +0.206 C 
ATOM     36  C   UNL     1      33.415 -14.392 -24.891  0.00  0.00    +0.051 C 
ENDBRANCH  34  35
ENDBRANCH  33  34
ENDBRANCH  25  28
ENDBRANCH  21  22
ENDBRANCH  19  21
ENDBRANCH   1  19
TORSDOF 11
ENDMDL
MODEL 3
REMARK VINA RESULT:     -11.8      5.174     13.610
REMARK  Name = 448384
REMARK  11 active torsions:
REMARK  status: ('A' for Active; 'I' for Inactive)
REMARK    1  A    between atoms: C_1  and  C_3
REMARK    2  A    between atoms: C_1  and  C_6
REMARK    3  A    between atoms: C_1  and  C_19
REMARK    4  A    between atoms: C_3  and  O_4
REMARK    5  A    between atoms: C_6  and  C_7
REMARK    6  A    between atoms: C_7  and  N_10
REMARK    7  A    between atoms: C_19  and  C_21
REMARK    8  A    between atoms: C_21  and  C_22
REMARK    9  A    between atoms: C_25  and  C_28
REMARK   10  A    between atoms: C_33  and  O_34
REMARK   11  A    between atoms: O_34  and  C_35
REMARK                            x       y       z     vdW  Elec       q    Type
REMARK                         _______ _______ _______ _____ _____    ______ ____
ROOT
ATOM      1  C   UNL     1      33.424 -13.734 -23.658  0.00  0.00    +0.108 C 
ENDROOT
BRANCH   1   3
ATOM      2  O   UNL     1      33.653 -14.084 -21.261  0.00  0.00    -0.250 OA
ATOM      3  C   UNL     1      32.955 -13.749 -22.209  0.00  0.00    +0.314 C 
BRANCH   3   4
ATOM      4  O   UNL     1      31.668 -13.344 -22.068  0.00  0.00    -0.480 OA
ATOM      5  H   UNL     1      31.006 -13.679 -22.640  0.00  0.00    +0.295 HD
ENDBRANCH   3   4
ENDBRANCH   1   3
BRANCH   1   6
ATOM      6  C   UNL     1      33.539 -12.281 -24.163  0.00  0.00    +0.034 C 
BRANCH   6   7
ATOM      7  C   UNL     1      34.287 -11.351 -23.207  0.00  0.00    +0.102 C 
BRANCH   7  10
ATOM      8  O   UNL     1      35.390  -8.747 -24.149  0.00  0.00    -0.269 OA
ATOM      9  O   UNL     1      31.671 -10.524 -22.033  0.00  0.00    -0.269 OA
ATOM     10  N   UNL     1      33.708 -10.041 -23.121  0.00  0.00    -0.223 N 
ATOM     11  C   UNL     1      34.314  -8.888 -23.599  0.00  0.00    +0.255 C 
ATOM     12  C   UNL     1      32.472  -9.770 -22.552  0.00  0.00    +0.255 C 
ATOM     13  C   UNL     1      33.384  -7.794 -23.319  0.00  0.00    +0.058 C 
ATOM     14  C   UNL     1      32.270  -8.327 -22.686  0.00  0.00    +0.058 C 
ATOM     15  C   UNL     1      33.494  -6.446 -23.590  0.00  0.00    +0.005 C 
ATOM     16  C   UNL     1      31.210  -7.540 -22.291  0.00  0.00    +0.005 C 
ATOM     17  C   UNL     1      32.431  -5.629 -23.199  0.00  0.00    +0.000 C 
ATOM     18  C   UNL     1      31.299  -6.170 -22.554  0.00  0.00    +0.000 C 
ENDBRANCH   7  10
ENDBRANCH   6   7
ENDBRANCH   1   6
BRANCH   1  19
ATOM     19  C   UNL     1      34.792 -14.439 -23.736  0.00  0.00    +0.080 C 
BRANCH  19  21
ATOM     20  O   UNL     1      34.638 -16.131 -25.455  0.00  0.00    -0.291 OA
ATOM     21  C   UNL     1      34.696 -15.870 -24.256  0.00  0.00    +0.174 C 
BRANCH  21  22
ATOM     22  C   UNL     1      34.661 -16.987 -23.268  0.00  0.00    +0.035 C 
ATOM     23  C   UNL     1      34.166 -18.237 -23.643  0.00  0.00    +0.003 C 
ATOM     24  C   UNL     1      35.125 -16.783 -21.968  0.00  0.00    +0.003 C 
ATOM     25  C   UNL     1      34.597 -19.076 -21.420  0.00  0.00    +0.000 C 
ATOM     26  C   UNL     1      34.134 -19.280 -22.719  0.00  0.00    +0.000 C 
ATOM     27  C   UNL     1      35.092 -17.827 -21.043  0.00  0.00    +0.000 C 
BRANCH  25  28
ATOM     28  C   UNL     1      34.564 -20.158 -20.460  0.00  0.00    +0.000 C 
ATOM     29  C   UNL     1      35.757 -20.699 -19.978  0.00  0.00    +0.003 C 
ATOM     30  C   UNL     1      33.340 -20.663 -20.019  0.00  0.00    +0.003 C 
ATOM     31  C   UNL     1      35.725 -21.744 -19.054  0.00  0.00    +0.037 C 
ATOM     32  C   UNL     1      33.310 -21.707 -19.095  0.00  0.00    +0.037 C 
ATOM     33  C   UNL     1      34.501 -22.248 -18.613  0.00  0.00    +0.139 C 
BRANCH  33  34
ATOM     34  O   UNL     1      34.472 -23.267 -17.710  0.00  0.00    -0.475 OA
BRANCH  34  35
ATOM     35  C   UNL     1      33.416 -23.252 -16.750  0.00  0.00    +0.206 C 
ATOM     36  C   UNL     1      34.015 -23.238 -15.359  0.00  0.00    +0.051 C 
ENDBRANCH  34  35
ENDBRANCH  33  34
ENDBRANCH  25  28
ENDBRANCH  21  22
ENDBRANCH  19  21
ENDBRANCH   1  19
TORSDOF 11
ENDMDL
MODEL 4
REMARK VINA RESULT:     -11.6      1.940      4.591
REMARK  Name = 448384
REMARK  11 active torsions:
REMARK  status: ('A' for Active; 'I' for Inactive)
REMARK    1  A    between atoms: C_1  and  C_3
REMARK    2  A    between atoms: C_1  and  C_6
REMARK    3  A    between atoms: C_1  and  C_19
REMARK    4  A    between atoms: C_3  and  O_4
REMARK    5  A    between atoms: C_6  and  C_7
REMARK    6  A    between atoms: C_7  and  N_10
REMARK    7  A    between atoms: C_19  and  C_21
REMARK    8  A    between atoms: C_21  and  C_22
REMARK    9  A    between atoms: C_25  and  C_28
REMARK   10  A    between atoms: C_33  and  O_34
REMARK   11  A    between atoms: O_34  and  C_35
REMARK                            x       y       z     vdW  Elec       q    Type
REMARK                         _______ _______ _______ _____ _____    ______ ____
ROOT
ATOM      1  C   UNL     1      36.199 -23.440 -15.835  0.00  0.00    +0.108 C 
ENDROOT
BRANCH   1   3
ATOM      2  O   UNL     1      37.473 -22.712 -13.893  0.00  0.00    -0.250 OA
ATOM      3  C   UNL     1      37.462 -23.100 -15.055  0.00  0.00    +0.314 C 
BRANCH   3   4
ATOM      4  O   UNL     1      38.593 -23.279 -15.781  0.00  0.00    -0.480 OA
ATOM      5  H   UNL     1      38.769 -24.110 -16.177  0.00  0.00    +0.295 HD
ENDBRANCH   3   4
ENDBRANCH   1   3
BRANCH   1   6
ATOM      6  C   UNL     1      35.071 -23.852 -14.866  0.00  0.00    +0.034 C 
BRANCH   6   7
ATOM      7  C   UNL     1      33.973 -22.799 -14.711  0.00  0.00    +0.102 C 
BRANCH   7  10
ATOM      8  O   UNL     1      31.834 -22.399 -16.747  0.00  0.00    -0.269 OA
ATOM      9  O   UNL     1      32.644 -24.637 -12.772  0.00  0.00    -0.269 OA
ATOM     10  N   UNL     1      32.649 -23.351 -14.750  0.00  0.00    -0.223 N 
ATOM     11  C   UNL     1      31.729 -23.097 -15.755  0.00  0.00    +0.255 C 
ATOM     12  C   UNL     1      32.132 -24.205 -13.787  0.00  0.00    +0.255 C 
ATOM     13  C   UNL     1      30.529 -23.859 -15.410  0.00  0.00    +0.058 C 
ATOM     14  C   UNL     1      30.773 -24.530 -14.220  0.00  0.00    +0.058 C 
ATOM     15  C   UNL     1      29.323 -23.963 -16.073  0.00  0.00    +0.005 C 
ATOM     16  C   UNL     1      29.824 -25.338 -13.631  0.00  0.00    +0.005 C 
ATOM     17  C   UNL     1      28.346 -24.777 -15.494  0.00  0.00    +0.000 C 
ATOM     18  C   UNL     1      28.594 -25.458 -14.284  0.00  0.00    +0.000 C 
ENDBRANCH   7  10
ENDBRANCH   6   7
ENDBRANCH   1   6
BRANCH   1  19
ATOM     19  C   UNL     1      35.780 -22.200 -16.650  0.00  0.00    +0.080 C 
BRANCH  19  21
ATOM     20  O   UNL     1      34.301 -23.597 -17.954  0.00  0.00    -0.291 OA
ATOM     21  C   UNL     1      34.932 -22.546 -17.869  0.00  0.00    +0.174 C 
BRANCH  21  22
ATOM     22  C   UNL     1      34.880 -21.576 -19.001  0.00  0.00    +0.035 C 
ATOM     23  C   UNL     1      36.062 -21.056 -19.530  0.00  0.00    +0.003 C 
ATOM     24  C   UNL     1      33.649 -21.188 -19.530  0.00  0.00    +0.003 C 
ATOM     25  C   UNL     1      34.781 -19.762 -21.117  0.00  0.00    +0.000 C 
ATOM     26  C   UNL     1      36.012 -20.149 -20.588  0.00  0.00    +0.000 C 
ATOM     27  C   UNL     1      33.599 -20.281 -20.589  0.00  0.00    +0.000 C 
BRANCH  25  28
ATOM     28  C   UNL     1      34.728 -18.820 -22.215  0.00  0.00    +0.000 C 
ATOM     29  C   UNL     1      35.268 -17.542 -22.062  0.00  0.00    +0.003 C 
ATOM     30  C   UNL     1      34.137 -19.187 -23.423  0.00  0.00    +0.003 C 
ATOM     31  C   UNL     1      35.216 -16.633 -23.119  0.00  0.00    +0.037 C 
ATOM     32  C   UNL     1      34.085 -18.278 -24.479  0.00  0.00    +0.037 C 
ATOM     33  C   UNL     1      34.624 -17.001 -24.327  0.00  0.00    +0.139 C 
BRANCH  33  34
ATOM     34  O   UNL     1      34.577 -16.113 -25.359  0.00  0.00    -0.475 OA
BRANCH  34  35
ATOM     35  C   UNL     1      33.314 -15.512 -25.640  0.00  0.00    +0.206 C 
ATOM     36  C   UNL     1      33.297 -14.109 -25.071  0.00  0.00    +0.051 C 
ENDBRANCH  34  35
ENDBRANCH  33  34
ENDBRANCH  25  28
ENDBRANCH  21  22
ENDBRANCH  19  21
ENDBRANCH   1  19
TORSDOF 11
ENDMDL
MODEL 5
REMARK VINA RESULT:     -11.6      1.930      4.736
REMARK  Name = 448384
REMARK  11 active torsions:
REMARK  status: ('A' for Active; 'I' for Inactive)
REMARK    1  A    between atoms: C_1  and  C_3
REMARK    2  A    between atoms: C_1  and  C_6
REMARK    3  A    between atoms: C_1  and  C_19
REMARK    4  A    between atoms: C_3  and  O_4
REMARK    5  A    between atoms: C_6  and  C_7
REMARK    6  A    between atoms: C_7  and  N_10
REMARK    7  A    between atoms: C_19  and  C_21
REMARK    8  A    between atoms: C_21  and  C_22
REMARK    9  A    between atoms: C_25  and  C_28
REMARK   10  A    between atoms: C_33  and  O_34
REMARK   11  A    between atoms: O_34  and  C_35
REMARK                            x       y       z     vdW  Elec       q    Type
REMARK                         _______ _______ _______ _____ _____    ______ ____
ROOT
ATOM      1  C   UNL     1      36.222 -23.451 -15.840  0.00  0.00    +0.108 C 
ENDROOT
BRANCH   1   3
ATOM      2  O   UNL     1      37.530 -22.824 -13.885  0.00  0.00    -0.250 OA
ATOM      3  C   UNL     1      37.493 -23.096 -15.079  0.00  0.00    +0.314 C 
BRANCH   3   4
ATOM      4  O   UNL     1      38.599 -23.118 -15.863  0.00  0.00    -0.480 OA
ATOM      5  H   UNL     1      38.748 -22.430 -16.481  0.00  0.00    +0.295 HD
ENDBRANCH   3   4
ENDBRANCH   1   3
BRANCH   1   6
ATOM      6  C   UNL     1      35.122 -23.900 -14.856  0.00  0.00    +0.034 C 
BRANCH   6   7
ATOM      7  C   UNL     1      34.034 -22.852 -14.623  0.00  0.00    +0.102 C 
BRANCH   7  10
ATOM      8  O   UNL     1      32.702 -24.731 -12.732  0.00  0.00    -0.269 OA
ATOM      9  O   UNL     1      31.892 -22.395 -16.650  0.00  0.00    -0.269 OA
ATOM     10  N   UNL     1      32.706 -23.393 -14.673  0.00  0.00    -0.223 N 
ATOM     11  C   UNL     1      32.184 -24.265 -13.730  0.00  0.00    +0.255 C 
ATOM     12  C   UNL     1      31.784 -23.107 -15.670  0.00  0.00    +0.255 C 
ATOM     13  C   UNL     1      30.814 -24.552 -14.155  0.00  0.00    +0.058 C 
ATOM     14  C   UNL     1      30.572 -23.852 -15.328  0.00  0.00    +0.058 C 
ATOM     15  C   UNL     1      29.855 -25.356 -13.574  0.00  0.00    +0.005 C 
ATOM     16  C   UNL     1      29.360 -23.918 -15.981  0.00  0.00    +0.005 C 
ATOM     17  C   UNL     1      28.618 -25.438 -14.218  0.00  0.00    +0.000 C 
ATOM     18  C   UNL     1      28.372 -24.727 -15.411  0.00  0.00    +0.000 C 
ENDBRANCH   7  10
ENDBRANCH   6   7
ENDBRANCH   1   6
BRANCH   1  19
ATOM     19  C   UNL     1      35.763 -22.208 -16.628  0.00  0.00    +0.080 C 
BRANCH  19  21
ATOM     20  O   UNL     1      34.291 -23.608 -17.938  0.00  0.00    -0.291 OA
ATOM     21  C   UNL     1      34.918 -22.555 -17.850  0.00  0.00    +0.174 C 
BRANCH  21  22
ATOM     22  C   UNL     1      34.866 -21.583 -18.980  0.00  0.00    +0.035 C 
ATOM     23  C   UNL     1      36.048 -21.069 -19.515  0.00  0.00    +0.003 C 
ATOM     24  C   UNL     1      33.634 -21.188 -19.502  0.00  0.00    +0.003 C 
ATOM     25  C   UNL     1      34.765 -19.766 -21.094  0.00  0.00    +0.000 C 
ATOM     26  C   UNL     1      35.997 -20.160 -20.571  0.00  0.00    +0.000 C 
ATOM     27  C   UNL     1      33.584 -20.279 -20.560  0.00  0.00    +0.000 C 
BRANCH  25  28
ATOM     28  C   UNL     1      34.713 -18.822 -22.190  0.00  0.00    +0.000 C 
ATOM     29  C   UNL     1      34.134 -19.196 -23.404  0.00  0.00    +0.003 C 
ATOM     30  C   UNL     1      35.242 -17.541 -22.034  0.00  0.00    +0.003 C 
ATOM     31  C   UNL     1      34.085 -18.288 -24.461  0.00  0.00    +0.037 C 
ATOM     32  C   UNL     1      35.192 -16.633 -23.092  0.00  0.00    +0.037 C 
ATOM     33  C   UNL     1      34.614 -17.007 -24.306  0.00  0.00    +0.139 C 
BRANCH  33  34
ATOM     34  O   UNL     1      34.562 -16.120 -25.338  0.00  0.00    -0.475 OA
BRANCH  34  35
ATOM     35  C   UNL     1      33.306 -15.494 -25.594  0.00  0.00    +0.206 C 
ATOM     36  C   UNL     1      33.299 -14.123 -24.951  0.00  0.00    +0.051 C 
ENDBRANCH  34  35
ENDBRANCH  33  34
ENDBRANCH  25  28
ENDBRANCH  21  22
ENDBRANCH  19  21
ENDBRANCH   1  19
TORSDOF 11
ENDMDL
MODEL 6
REMARK VINA RESULT:     -11.5      3.167     11.918
REMARK  Name = 448384
REMARK  11 active torsions:
REMARK  status: ('A' for Active; 'I' for Inactive)
REMARK    1  A    between atoms: C_1  and  C_3
REMARK    2  A    between atoms: C_1  and  C_6
REMARK    3  A    between atoms: C_1  and  C_19
REMARK    4  A    between atoms: C_3  and  O_4
REMARK    5  A    between atoms: C_6  and  C_7
REMARK    6  A    between atoms: C_7  and  N_10
REMARK    7  A    between atoms: C_19  and  C_21
REMARK    8  A    between atoms: C_21  and  C_22
REMARK    9  A    between atoms: C_25  and  C_28
REMARK   10  A    between atoms: C_33  and  O_34
REMARK   11  A    between atoms: O_34  and  C_35
REMARK                            x       y       z     vdW  Elec       q    Type
REMARK                         _______ _______ _______ _____ _____    ______ ____
ROOT
ATOM      1  C   UNL     1      35.744 -18.705 -21.459  0.00  0.00    +0.108 C 
ENDROOT
BRANCH   1   3
ATOM      2  O   UNL     1      37.477 -18.600 -19.754  0.00  0.00    -0.250 OA
ATOM      3  C   UNL     1      37.172 -18.608 -20.940  0.00  0.00    +0.314 C 
BRANCH   3   4
ATOM      4  O   UNL     1      38.090 -18.535 -21.936  0.00  0.00    -0.480 OA
ATOM      5  H   UNL     1      38.276 -19.292 -22.457  0.00  0.00    +0.295 HD
ENDBRANCH   3   4
ENDBRANCH   1   3
BRANCH   1   6
ATOM      6  C   UNL     1      35.643 -18.067 -22.860  0.00  0.00    +0.034 C 
BRANCH   6   7
ATOM      7  C   UNL     1      34.219 -17.686 -23.265  0.00  0.00    +0.102 C 
BRANCH   7  10
ATOM      8  O   UNL     1      33.463 -16.504 -25.895  0.00  0.00    -0.269 OA
ATOM      9  O   UNL     1      34.626 -15.251 -21.589  0.00  0.00    -0.269 OA
ATOM     10  N   UNL     1      34.083 -16.305 -23.628  0.00  0.00    -0.223 N 
ATOM     11  C   UNL     1      33.720 -15.863 -24.892  0.00  0.00    +0.255 C 
ATOM     12  C   UNL     1      34.295 -15.245 -22.759  0.00  0.00    +0.255 C 
ATOM     13  C   UNL     1      33.691 -14.403 -24.821  0.00  0.00    +0.058 C 
ATOM     14  C   UNL     1      34.039 -14.029 -23.530  0.00  0.00    +0.058 C 
ATOM     15  C   UNL     1      33.389 -13.473 -25.794  0.00  0.00    +0.005 C 
ATOM     16  C   UNL     1      34.103 -12.706 -23.147  0.00  0.00    +0.005 C 
ATOM     17  C   UNL     1      33.447 -12.126 -25.427  0.00  0.00    +0.000 C 
ATOM     18  C   UNL     1      33.802 -11.745 -24.117  0.00  0.00    +0.000 C 
ENDBRANCH   7  10
ENDBRANCH   6   7
ENDBRANCH   1   6
BRANCH   1  19
ATOM     19  C   UNL     1      35.345 -20.193 -21.516  0.00  0.00    +0.080 C 
BRANCH  19  21
ATOM     20  O   UNL     1      33.032 -20.224 -20.815  0.00  0.00    -0.291 OA
ATOM     21  C   UNL     1      34.195 -20.539 -20.576  0.00  0.00    +0.174 C 
BRANCH  21  22
ATOM     22  C   UNL     1      34.502 -21.278 -19.316  0.00  0.00    +0.035 C 
ATOM     23  C   UNL     1      33.488 -21.959 -18.641  0.00  0.00    +0.003 C 
ATOM     24  C   UNL     1      35.803 -21.289 -18.814  0.00  0.00    +0.003 C 
ATOM     25  C   UNL     1      35.077 -22.660 -16.963  0.00  0.00    +0.000 C 
ATOM     26  C   UNL     1      33.776 -22.649 -17.465  0.00  0.00    +0.000 C 
ATOM     27  C   UNL     1      36.091 -21.980 -17.637  0.00  0.00    +0.000 C 
BRANCH  25  28
ATOM     28  C   UNL     1      35.376 -23.375 -15.741  0.00  0.00    +0.000 C 
ATOM     29  C   UNL     1      34.341 -23.930 -14.987  0.00  0.00    +0.003 C 
ATOM     30  C   UNL     1      36.698 -23.508 -15.315  0.00  0.00    +0.003 C 
ATOM     31  C   UNL     1      34.628 -24.618 -13.809  0.00  0.00    +0.037 C 
ATOM     32  C   UNL     1      36.984 -24.196 -14.136  0.00  0.00    +0.037 C 
ATOM     33  C   UNL     1      35.950 -24.751 -13.383  0.00  0.00    +0.139 C 
BRANCH  33  34
ATOM     34  O   UNL     1      36.229 -25.425 -12.233  0.00  0.00    -0.475 OA
BRANCH  34  35
ATOM     35  C   UNL     1      36.759 -24.666 -11.147  0.00  0.00    +0.206 C 
ATOM     36  C   UNL     1      35.640 -24.343 -10.179  0.00  0.00    +0.051 C 
ENDBRANCH  34  35
ENDBRANCH  33  34
ENDBRANCH  25  28
ENDBRANCH  21  22
ENDBRANCH  19  21
ENDBRANCH   1  19
TORSDOF 11
ENDMDL
MODEL 7
REMARK VINA RESULT:     -11.5      4.912     13.743
REMARK  Name = 448384
REMARK  11 active torsions:
REMARK  status: ('A' for Active; 'I' for Inactive)
REMARK    1  A    between atoms: C_1  and  C_3
REMARK    2  A    between atoms: C_1  and  C_6
REMARK    3  A    between atoms: C_1  and  C_19
REMARK    4  A    between atoms: C_3  and  O_4
REMARK    5  A    between atoms: C_6  and  C_7
REMARK    6  A    between atoms: C_7  and  N_10
REMARK    7  A    between atoms: C_19  and  C_21
REMARK    8  A    between atoms: C_21  and  C_22
REMARK    9  A    between atoms: C_25  and  C_28
REMARK   10  A    between atoms: C_33  and  O_34
REMARK   11  A    between atoms: O_34  and  C_35
REMARK                            x       y       z     vdW  Elec       q    Type
REMARK                         _______ _______ _______ _____ _____    ______ ____
ROOT
ATOM      1  C   UNL     1      33.680 -13.718 -25.040  0.00  0.00    +0.108 C 
ENDROOT
BRANCH   1   3
ATOM      2  O   UNL     1      32.312 -12.762 -26.811  0.00  0.00    -0.250 OA
ATOM      3  C   UNL     1      33.319 -13.375 -26.479  0.00  0.00    +0.314 C 
BRANCH   3   4
ATOM      4  O   UNL     1      34.240 -13.814 -27.372  0.00  0.00    -0.480 OA
ATOM      5  H   UNL     1      34.008 -13.910 -28.275  0.00  0.00    +0.295 HD
ENDBRANCH   3   4
ENDBRANCH   1   3
BRANCH   1   6
ATOM      6  C   UNL     1      32.964 -12.757 -24.069  0.00  0.00    +0.034 C 
BRANCH   6   7
ATOM      7  C   UNL     1      33.911 -11.998 -23.139  0.00  0.00    +0.102 C 
BRANCH   7  10
ATOM      8  O   UNL     1      31.658 -10.617 -21.762  0.00  0.00    -0.269 OA
ATOM      9  O   UNL     1      35.412  -9.705 -24.320  0.00  0.00    -0.269 OA
ATOM     10  N   UNL     1      33.625 -10.594 -23.061  0.00  0.00    -0.223 N 
ATOM     11  C   UNL     1      32.541 -10.056 -22.385  0.00  0.00    +0.255 C 
ATOM     12  C   UNL     1      34.400  -9.607 -23.651  0.00  0.00    +0.255 C 
ATOM     13  C   UNL     1      32.636  -8.606 -22.550  0.00  0.00    +0.058 C 
ATOM     14  C   UNL     1      33.761  -8.334 -23.316  0.00  0.00    +0.058 C 
ATOM     15  C   UNL     1      31.816  -7.603 -22.077  0.00  0.00    +0.005 C 
ATOM     16  C   UNL     1      34.123  -7.046 -23.648  0.00  0.00    +0.005 C 
ATOM     17  C   UNL     1      32.163  -6.290 -22.401  0.00  0.00    +0.000 C 
ATOM     18  C   UNL     1      33.306  -6.013 -23.180  0.00  0.00    +0.000 C 
ENDBRANCH   7  10
ENDBRANCH   6   7
ENDBRANCH   1   6
BRANCH   1  19
ATOM     19  C   UNL     1      33.256 -15.174 -24.765  0.00  0.00    +0.080 C 
BRANCH  19  21
ATOM     20  O   UNL     1      35.306 -16.122 -25.624  0.00  0.00    -0.291 OA
ATOM     21  C   UNL     1      34.430 -16.148 -24.764  0.00  0.00    +0.174 C 
BRANCH  21  22
ATOM     22  C   UNL     1      34.505 -17.174 -23.683  0.00  0.00    +0.035 C 
ATOM     23  C   UNL     1      34.070 -18.477 -23.926  0.00  0.00    +0.003 C 
ATOM     24  C   UNL     1      35.013 -16.830 -22.430  0.00  0.00    +0.003 C 
ATOM     25  C   UNL     1      34.648 -19.091 -21.662  0.00  0.00    +0.000 C 
ATOM     26  C   UNL     1      34.141 -19.435 -22.915  0.00  0.00    +0.000 C 
ATOM     27  C   UNL     1      35.084 -17.788 -21.419  0.00  0.00    +0.000 C 
BRANCH  25  28
ATOM     28  C   UNL     1      34.721 -20.085 -20.612  0.00  0.00    +0.000 C 
ATOM     29  C   UNL     1      33.550 -20.643 -20.099  0.00  0.00    +0.003 C 
ATOM     30  C   UNL     1      35.961 -20.482 -20.112  0.00  0.00    +0.003 C 
ATOM     31  C   UNL     1      33.619 -21.599 -19.086  0.00  0.00    +0.037 C 
ATOM     32  C   UNL     1      36.030 -21.438 -19.100  0.00  0.00    +0.037 C 
ATOM     33  C   UNL     1      34.859 -21.996 -18.586  0.00  0.00    +0.139 C 
BRANCH  33  34
ATOM     34  O   UNL     1      34.926 -22.932 -17.599  0.00  0.00    -0.475 OA
BRANCH  34  35
ATOM     35  C   UNL     1      33.739 -23.164 -16.842  0.00  0.00    +0.206 C 
ATOM     36  C   UNL     1      34.121 -23.502 -15.417  0.00  0.00    +0.051 C 
ENDBRANCH  34  35
ENDBRANCH  33  34
ENDBRANCH  25  28
ENDBRANCH  21  22
ENDBRANCH  19  21
ENDBRANCH   1  19
TORSDOF 11
ENDMDL
MODEL 8
REMARK VINA RESULT:     -11.5      4.249      8.031
REMARK  Name = 448384
REMARK  11 active torsions:
REMARK  status: ('A' for Active; 'I' for Inactive)
REMARK    1  A    between atoms: C_1  and  C_3
REMARK    2  A    between atoms: C_1  and  C_6
REMARK    3  A    between atoms: C_1  and  C_19
REMARK    4  A    between atoms: C_3  and  O_4
REMARK    5  A    between atoms: C_6  and  C_7
REMARK    6  A    between atoms: C_7  and  N_10
REMARK    7  A    between atoms: C_19  and  C_21
REMARK    8  A    between atoms: C_21  and  C_22
REMARK    9  A    between atoms: C_25  and  C_28
REMARK   10  A    between atoms: C_33  and  O_34
REMARK   11  A    between atoms: O_34  and  C_35
REMARK                            x       y       z     vdW  Elec       q    Type
REMARK                         _______ _______ _______ _____ _____    ______ ____
ROOT
ATOM      1  C   UNL     1      35.653 -18.627 -21.356  0.00  0.00    +0.108 C 
ENDROOT
BRANCH   1   3
ATOM      2  O   UNL     1      37.379 -18.840 -19.654  0.00  0.00    -0.250 OA
ATOM      3  C   UNL     1      37.080 -18.727 -20.836  0.00  0.00    +0.314 C 
BRANCH   3   4
ATOM      4  O   UNL     1      38.005 -18.684 -21.827  0.00  0.00    -0.480 OA
ATOM      5  H   UNL     1      38.879 -18.400 -21.640  0.00  0.00    +0.295 HD
ENDBRANCH   3   4
ENDBRANCH   1   3
BRANCH   1   6
ATOM      6  C   UNL     1      34.738 -19.602 -20.586  0.00  0.00    +0.034 C 
BRANCH   6   7
ATOM      7  C   UNL     1      35.359 -20.980 -20.353  0.00  0.00    +0.102 C 
BRANCH   7  10
ATOM      8  O   UNL     1      36.907 -21.709 -17.913  0.00  0.00    -0.269 OA
ATOM      9  O   UNL     1      32.614 -21.913 -19.644  0.00  0.00    -0.269 OA
ATOM     10  N   UNL     1      34.901 -21.612 -19.149  0.00  0.00    -0.223 N 
ATOM     11  C   UNL     1      35.715 -21.905 -18.065  0.00  0.00    +0.255 C 
ATOM     12  C   UNL     1      33.590 -22.004 -18.924  0.00  0.00    +0.255 C 
ATOM     13  C   UNL     1      34.850 -22.527 -17.063  0.00  0.00    +0.058 C 
ATOM     14  C   UNL     1      33.565 -22.587 -17.582  0.00  0.00    +0.058 C 
ATOM     15  C   UNL     1      35.152 -23.004 -15.804  0.00  0.00    +0.005 C 
ATOM     16  C   UNL     1      32.515 -23.127 -16.870  0.00  0.00    +0.005 C 
ATOM     17  C   UNL     1      34.103 -23.555 -15.063  0.00  0.00    +0.000 C 
ATOM     18  C   UNL     1      32.797 -23.617 -15.591  0.00  0.00    +0.000 C 
ENDBRANCH   7  10
ENDBRANCH   6   7
ENDBRANCH   1   6
BRANCH   1  19
ATOM     19  C   UNL     1      35.166 -17.176 -21.172  0.00  0.00    +0.080 C 
BRANCH  19  21
ATOM     20  O   UNL     1      35.200 -16.962 -23.579  0.00  0.00    -0.291 OA
ATOM     21  C   UNL     1      34.920 -16.458 -22.495  0.00  0.00    +0.174 C 
BRANCH  21  22
ATOM     22  C   UNL     1      34.327 -15.089 -22.463  0.00  0.00    +0.035 C 
ATOM     23  C   UNL     1      33.870 -14.553 -21.259  0.00  0.00    +0.003 C 
ATOM     24  C   UNL     1      34.230 -14.345 -23.639  0.00  0.00    +0.003 C 
ATOM     25  C   UNL     1      33.219 -12.530 -22.406  0.00  0.00    +0.000 C 
ATOM     26  C   UNL     1      33.316 -13.274 -21.230  0.00  0.00    +0.000 C 
ATOM     27  C   UNL     1      33.675 -13.065 -23.611  0.00  0.00    +0.000 C 
BRANCH  25  28
ATOM     28  C   UNL     1      32.644 -11.202 -22.378  0.00  0.00    +0.000 C 
ATOM     29  C   UNL     1      33.115 -10.220 -23.250  0.00  0.00    +0.003 C 
ATOM     30  C   UNL     1      31.621 -10.903 -21.477  0.00  0.00    +0.003 C 
ATOM     31  C   UNL     1      32.562  -8.940 -23.222  0.00  0.00    +0.037 C 
ATOM     32  C   UNL     1      31.069  -9.623 -21.450  0.00  0.00    +0.037 C 
ATOM     33  C   UNL     1      31.540  -8.641 -22.321  0.00  0.00    +0.139 C 
BRANCH  33  34
ATOM     34  O   UNL     1      30.999  -7.391 -22.297  0.00  0.00    -0.475 OA
BRANCH  34  35
ATOM     35  C   UNL     1      31.513  -6.481 -21.325  0.00  0.00    +0.206 C 
ATOM     36  C   UNL     1      30.486  -5.397 -21.075  0.00  0.00    +0.051 C 
ENDBRANCH  34  35
ENDBRANCH  33  34
ENDBRANCH  25  28
ENDBRANCH  21  22
ENDBRANCH  19  21
ENDBRANCH   1  19
TORSDOF 11
ENDMDL
MODEL 9
REMARK VINA RESULT:     -11.4      4.822     12.915
REMARK  Name = 448384
REMARK  11 active torsions:
REMARK  status: ('A' for Active; 'I' for Inactive)
REMARK    1  A    between atoms: C_1  and  C_3
REMARK    2  A    between atoms: C_1  and  C_6
REMARK    3  A    between atoms: C_1  and  C_19
REMARK    4  A    between atoms: C_3  and  O_4
REMARK    5  A    between atoms: C_6  and  C_7
REMARK    6  A    between atoms: C_7  and  N_10
REMARK    7  A    between atoms: C_19  and  C_21
REMARK    8  A    between atoms: C_21  and  C_22
REMARK    9  A    between atoms: C_25  and  C_28
REMARK   10  A    between atoms: C_33  and  O_34
REMARK   11  A    between atoms: O_34  and  C_35
REMARK                            x       y       z     vdW  Elec       q    Type
REMARK                         _______ _______ _______ _____ _____    ______ ____
ROOT
ATOM      1  C   UNL     1      34.197 -13.738 -24.233  0.00  0.00    +0.108 C 
ENDROOT
BRANCH   1   3
ATOM      2  O   UNL     1      32.902 -13.144 -26.206  0.00  0.00    -0.250 OA
ATOM      3  C   UNL     1      33.726 -12.826 -25.357  0.00  0.00    +0.314 C 
BRANCH   3   4
ATOM      4  O   UNL     1      34.312 -11.603 -25.324  0.00  0.00    -0.480 OA
ATOM      5  H   UNL     1      34.811 -11.343 -24.575  0.00  0.00    +0.295 HD
ENDBRANCH   3   4
ENDBRANCH   1   3
BRANCH   1   6
ATOM      6  C   UNL     1      33.895 -13.093 -22.864  0.00  0.00    +0.034 C 
BRANCH   6   7
ATOM      7  C   UNL     1      32.453 -12.608 -22.714  0.00  0.00    +0.102 C 
BRANCH   7  10
ATOM      8  O   UNL     1      32.985  -9.862 -23.745  0.00  0.00    -0.269 OA
ATOM      9  O   UNL     1      31.650 -12.062 -19.892  0.00  0.00    -0.269 OA
ATOM     10  N   UNL     1      32.346 -11.350 -22.031  0.00  0.00    -0.223 N 
ATOM     11  C   UNL     1      32.618 -10.121 -22.614  0.00  0.00    +0.255 C 
ATOM     12  C   UNL     1      31.957 -11.212 -20.706  0.00  0.00    +0.255 C 
ATOM     13  C   UNL     1      32.374  -9.117 -21.579  0.00  0.00    +0.058 C 
ATOM     14  C   UNL     1      31.974  -9.777 -20.425  0.00  0.00    +0.058 C 
ATOM     15  C   UNL     1      32.490  -7.743 -21.631  0.00  0.00    +0.005 C 
ATOM     16  C   UNL     1      31.669  -9.097 -19.265  0.00  0.00    +0.005 C 
ATOM     17  C   UNL     1      32.185  -7.034 -20.466  0.00  0.00    +0.000 C 
ATOM     18  C   UNL     1      31.780  -7.704 -19.294  0.00  0.00    +0.000 C 
ENDBRANCH   7  10
ENDBRANCH   6   7
ENDBRANCH   1   6
BRANCH   1  19
ATOM     19  C   UNL     1      33.467 -15.089 -24.362  0.00  0.00    +0.080 C 
BRANCH  19  21
ATOM     20  O   UNL     1      35.113 -16.402 -25.549  0.00  0.00    -0.291 OA
ATOM     21  C   UNL     1      34.420 -16.267 -24.544  0.00  0.00    +0.174 C 
BRANCH  21  22
ATOM     22  C   UNL     1      34.499 -17.293 -23.465  0.00  0.00    +0.035 C 
ATOM     23  C   UNL     1      34.954 -16.937 -22.194  0.00  0.00    +0.003 C 
ATOM     24  C   UNL     1      34.118 -18.609 -23.725  0.00  0.00    +0.003 C 
ATOM     25  C   UNL     1      34.647 -19.214 -21.447  0.00  0.00    +0.000 C 
ATOM     26  C   UNL     1      35.028 -17.898 -21.186  0.00  0.00    +0.000 C 
ATOM     27  C   UNL     1      34.192 -19.570 -22.717  0.00  0.00    +0.000 C 
BRANCH  25  28
ATOM     28  C   UNL     1      34.724 -20.211 -20.401  0.00  0.00    +0.000 C 
ATOM     29  C   UNL     1      33.554 -20.754 -19.869  0.00  0.00    +0.003 C 
ATOM     30  C   UNL     1      35.967 -20.628 -19.924  0.00  0.00    +0.003 C 
ATOM     31  C   UNL     1      33.627 -21.714 -18.859  0.00  0.00    +0.037 C 
ATOM     32  C   UNL     1      36.039 -21.588 -18.915  0.00  0.00    +0.037 C 
ATOM     33  C   UNL     1      34.870 -22.130 -18.382  0.00  0.00    +0.139 C 
BRANCH  33  34
ATOM     34  O   UNL     1      34.940 -23.069 -17.398  0.00  0.00    -0.475 OA
BRANCH  34  35
ATOM     35  C   UNL     1      33.805 -23.202 -16.545  0.00  0.00    +0.206 C 
ATOM     36  C   UNL     1      34.275 -23.578 -15.155  0.00  0.00    +0.051 C 
ENDBRANCH  34  35
ENDBRANCH  33  34
ENDBRANCH  25  28
ENDBRANCH  21  22
ENDBRANCH  19  21
ENDBRANCH   1  19
TORSDOF 11
ENDMDL
