MODEL 1
REMARK VINA RESULT:     -12.4      0.000      0.000
REMARK  Name = 5288711
REMARK  4 active torsions:
REMARK  status: ('A' for Active; 'I' for Inactive)
REMARK    1  A    between atoms: C_1  and  S_7
REMARK    2  A    between atoms: C_2  and  N_17
REMARK    3  A    between atoms: S_7  and  N_11
REMARK    4  A    between atoms: N_17  and  C_25
REMARK                            x       y       z     vdW  Elec       q    Type
REMARK                         _______ _______ _______ _____ _____    ______ ____
ROOT
ATOM      1  C   UNL     1      34.248 -21.909 -18.823  0.00  0.00    +0.125 C 
ATOM      2  C   UNL     1      35.230 -20.051 -20.667  0.00  0.00    +0.048 C 
ATOM      3  C   UNL     1      33.363 -21.148 -19.587  0.00  0.00    +0.021 C 
ATOM      4  C   UNL     1      35.624 -21.743 -18.980  0.00  0.00    +0.021 C 
ATOM      5  C   UNL     1      33.852 -20.222 -20.507  0.00  0.00    +0.016 C 
ATOM      6  C   UNL     1      36.115 -20.816 -19.900  0.00  0.00    +0.016 C 
ENDROOT
BRANCH   1   7
ATOM      7  S   UNL     1      33.635 -23.069 -17.671  0.00  0.00    +0.075 S 
ATOM      8  O   UNL     1      33.403 -24.329 -18.365  0.00  0.00    -0.150 OA
ATOM      9  O   UNL     1      34.512 -23.042 -16.507  0.00  0.00    -0.150 OA
BRANCH   7  11
ATOM     10  S   UNL     1      29.733 -23.194 -16.115  0.00  0.00    -0.050 S 
ATOM     11  N   UNL     1      32.117 -22.370 -17.271  0.00  0.00    -0.194 N 
ATOM     12  N   UNL     1      32.080 -23.313 -15.039  0.00  0.00    -0.221 NA
ATOM     13  C   UNL     1      31.421 -22.958 -16.106  0.00  0.00    +0.179 C 
ATOM     14  C   UNL     1      29.858 -23.842 -14.532  0.00  0.00    +0.059 C 
ATOM     15  C   UNL     1      31.177 -23.824 -14.128  0.00  0.00    +0.108 C 
ATOM     16  H   UNL     1      31.734 -21.622 -17.785  0.00  0.00    +0.176 HD
ENDBRANCH   7  11
ENDBRANCH   1   7
BRANCH   2  17
ATOM     17  N   UNL     1      35.723 -19.117 -21.593  0.00  0.00    -0.311 N 
ATOM     18  H   UNL     1      36.400 -19.457 -22.222  0.00  0.00    +0.152 HD
BRANCH  17  25
ATOM     19  O   UNL     1      34.525 -19.155 -24.233  0.00  0.00    -0.270 OA
ATOM     20  N   UNL     1      33.809 -16.984 -24.829  0.00  0.00    -0.280 N 
ATOM     21  C   UNL     1      34.431 -15.820 -22.946  0.00  0.00    +0.019 C 
ATOM     22  C   UNL     1      34.795 -17.224 -22.778  0.00  0.00    +0.069 C 
ATOM     23  C   UNL     1      33.836 -15.730 -24.208  0.00  0.00    +0.051 C 
ATOM     24  C   UNL     1      34.382 -17.967 -24.015  0.00  0.00    +0.251 C 
ATOM     25  C   UNL     1      35.390 -17.809 -21.737  0.00  0.00    +0.066 C 
ATOM     26  C   UNL     1      34.567 -14.700 -22.148  0.00  0.00    +0.001 C 
ATOM     27  C   UNL     1      33.360 -14.539 -24.718  0.00  0.00    +0.015 C 
ATOM     28  C   UNL     1      34.091 -13.482 -22.645  0.00  0.00    +0.000 C 
ATOM     29  C   UNL     1      33.494 -13.402 -23.917  0.00  0.00    +0.001 C 
ATOM     30  H   UNL     1      33.435 -17.153 -25.724  0.00  0.00    +0.155 HD
ENDBRANCH  17  25
ENDBRANCH   2  17
TORSDOF 4
ENDMDL
MODEL 2
REMARK VINA RESULT:     -11.5      2.804      9.706
REMARK  Name = 5288711
REMARK  4 active torsions:
REMARK  status: ('A' for Active; 'I' for Inactive)
REMARK    1  A    between atoms: C_1  and  S_7
REMARK    2  A    between atoms: C_2  and  N_17
REMARK    3  A    between atoms: S_7  and  N_11
REMARK    4  A    between atoms: N_17  and  C_25
REMARK                            x       y       z     vdW  Elec       q    Type
REMARK                         _______ _______ _______ _____ _____    ______ ____
ROOT
ATOM      1  C   UNL     1      35.439 -19.701 -20.594  0.00  0.00    +0.125 C 
ATOM      2  C   UNL     1      34.508 -21.953 -19.225  0.00  0.00    +0.048 C 
ATOM      3  C   UNL     1      36.339 -20.542 -19.940  0.00  0.00    +0.021 C 
ATOM      4  C   UNL     1      34.074 -19.984 -20.565  0.00  0.00    +0.021 C 
ATOM      5  C   UNL     1      35.875 -21.666 -19.258  0.00  0.00    +0.016 C 
ATOM      6  C   UNL     1      33.608 -21.108 -19.882  0.00  0.00    +0.016 C 
ENDROOT
BRANCH   1   7
ATOM      7  S   UNL     1      36.020 -18.293 -21.448  0.00  0.00    +0.075 S 
ATOM      8  O   UNL     1      35.288 -17.128 -20.969  0.00  0.00    -0.150 OA
ATOM      9  O   UNL     1      37.476 -18.304 -21.380  0.00  0.00    -0.150 OA
BRANCH   7  11
ATOM     10  S   UNL     1      33.454 -17.884 -24.752  0.00  0.00    -0.050 S 
ATOM     11  N   UNL     1      35.511 -18.645 -23.052  0.00  0.00    -0.194 N 
ATOM     12  N   UNL     1      35.181 -16.316 -23.638  0.00  0.00    -0.221 NA
ATOM     13  C   UNL     1      34.799 -17.557 -23.757  0.00  0.00    +0.179 C 
ATOM     14  C   UNL     1      33.340 -16.205 -25.078  0.00  0.00    +0.059 C 
ATOM     15  C   UNL     1      34.337 -15.533 -24.402  0.00  0.00    +0.108 C 
ATOM     16  H   UNL     1      35.684 -19.516 -23.476  0.00  0.00    +0.176 HD
ENDBRANCH   7  11
ENDBRANCH   1   7
BRANCH   2  17
ATOM     17  N   UNL     1      34.040 -23.085 -18.537  0.00  0.00    -0.311 N 
ATOM     18  H   UNL     1      34.503 -23.930 -18.740  0.00  0.00    +0.152 HD
BRANCH  17  25
ATOM     19  O   UNL     1      35.555 -23.283 -16.073  0.00  0.00    -0.270 OA
ATOM     20  N   UNL     1      34.087 -23.450 -14.230  0.00  0.00    -0.280 N 
ATOM     21  C   UNL     1      32.062 -23.372 -15.316  0.00  0.00    +0.019 C 
ATOM     22  C   UNL     1      33.133 -23.280 -16.303  0.00  0.00    +0.069 C 
ATOM     23  C   UNL     1      32.696 -23.472 -14.075  0.00  0.00    +0.051 C 
ATOM     24  C   UNL     1      34.446 -23.333 -15.577  0.00  0.00    +0.251 C 
ATOM     25  C   UNL     1      33.034 -23.169 -17.629  0.00  0.00    +0.066 C 
ATOM     26  C   UNL     1      30.683 -23.374 -15.406  0.00  0.00    +0.001 C 
ATOM     27  C   UNL     1      31.994 -23.578 -12.891  0.00  0.00    +0.015 C 
ATOM     28  C   UNL     1      29.950 -23.480 -14.218  0.00  0.00    +0.000 C 
ATOM     29  C   UNL     1      30.599 -23.581 -12.974  0.00  0.00    +0.001 C 
ATOM     30  H   UNL     1      34.730 -23.508 -13.487  0.00  0.00    +0.155 HD
ENDBRANCH  17  25
ENDBRANCH   2  17
TORSDOF 4
ENDMDL
MODEL 3
REMARK VINA RESULT:     -11.4      1.875      2.365
REMARK  Name = 5288711
REMARK  4 active torsions:
REMARK  status: ('A' for Active; 'I' for Inactive)
REMARK    1  A    between atoms: C_1  and  S_7
REMARK    2  A    between atoms: C_2  and  N_17
REMARK    3  A    between atoms: S_7  and  N_11
REMARK    4  A    between atoms: N_17  and  C_25
REMARK                            x       y       z     vdW  Elec       q    Type
REMARK                         _______ _______ _______ _____ _____    ______ ____
ROOT
ATOM      1  C   UNL     1      34.319 -21.592 -19.151  0.00  0.00    +0.125 C 
ATOM      2  C   UNL     1      35.096 -19.737 -21.093  0.00  0.00    +0.048 C 
ATOM      3  C   UNL     1      35.673 -21.367 -19.399  0.00  0.00    +0.021 C 
ATOM      4  C   UNL     1      33.352 -20.890 -19.871  0.00  0.00    +0.021 C 
ATOM      5  C   UNL     1      36.060 -20.441 -20.367  0.00  0.00    +0.016 C 
ATOM      6  C   UNL     1      33.739 -19.964 -20.840  0.00  0.00    +0.016 C 
ENDROOT
BRANCH   1   7
ATOM      7  S   UNL     1      33.832 -22.751 -17.939  0.00  0.00    +0.075 S 
ATOM      8  O   UNL     1      32.682 -22.214 -17.222  0.00  0.00    -0.150 OA
ATOM      9  O   UNL     1      33.730 -24.052 -18.587  0.00  0.00    -0.150 OA
BRANCH   7  11
ATOM     10  S   UNL     1      35.669 -22.779 -14.158  0.00  0.00    -0.050 S 
ATOM     11  N   UNL     1      35.196 -22.728 -16.892  0.00  0.00    -0.194 N 
ATOM     12  N   UNL     1      34.389 -24.560 -15.526  0.00  0.00    -0.221 NA
ATOM     13  C   UNL     1      35.029 -23.427 -15.599  0.00  0.00    +0.179 C 
ATOM     14  C   UNL     1      35.039 -24.135 -13.319  0.00  0.00    +0.059 C 
ATOM     15  C   UNL     1      34.394 -24.971 -14.207  0.00  0.00    +0.108 C 
ATOM     16  H   UNL     1      36.036 -22.278 -17.138  0.00  0.00    +0.176 HD
ENDBRANCH   7  11
ENDBRANCH   1   7
BRANCH   2  17
ATOM     17  N   UNL     1      35.486 -18.805 -22.068  0.00  0.00    -0.311 N 
ATOM     18  H   UNL     1      36.041 -19.159 -22.800  0.00  0.00    +0.152 HD
BRANCH  17  25
ATOM     19  O   UNL     1      34.235 -18.656 -24.679  0.00  0.00    -0.270 OA
ATOM     20  N   UNL     1      33.592 -16.431 -25.144  0.00  0.00    -0.280 N 
ATOM     21  C   UNL     1      34.296 -15.394 -23.217  0.00  0.00    +0.019 C 
ATOM     22  C   UNL     1      34.609 -16.817 -23.130  0.00  0.00    +0.069 C 
ATOM     23  C   UNL     1      33.680 -15.214 -24.459  0.00  0.00    +0.051 C 
ATOM     24  C   UNL     1      34.142 -17.477 -24.396  0.00  0.00    +0.251 C 
ATOM     25  C   UNL     1      35.201 -17.479 -22.135  0.00  0.00    +0.066 C 
ATOM     26  C   UNL     1      34.492 -14.324 -22.364  0.00  0.00    +0.001 C 
ATOM     27  C   UNL     1      33.241 -13.980 -24.895  0.00  0.00    +0.015 C 
ATOM     28  C   UNL     1      34.054 -13.063 -22.786  0.00  0.00    +0.000 C 
ATOM     29  C   UNL     1      33.435 -12.894 -24.039  0.00  0.00    +0.001 C 
ATOM     30  H   UNL     1      33.194 -16.538 -26.038  0.00  0.00    +0.155 HD
ENDBRANCH  17  25
ENDBRANCH   2  17
TORSDOF 4
ENDMDL
MODEL 4
REMARK VINA RESULT:     -10.8      7.396     12.254
REMARK  Name = 5288711
REMARK  4 active torsions:
REMARK  status: ('A' for Active; 'I' for Inactive)
REMARK    1  A    between atoms: C_1  and  S_7
REMARK    2  A    between atoms: C_2  and  N_17
REMARK    3  A    between atoms: S_7  and  N_11
REMARK    4  A    between atoms: N_17  and  C_25
REMARK                            x       y       z     vdW  Elec       q    Type
REMARK                         _______ _______ _______ _____ _____    ______ ____
ROOT
ATOM      1  C   UNL     1      32.728  -9.785 -22.631  0.00  0.00    +0.125 C 
ATOM      2  C   UNL     1      33.680 -12.280 -23.458  0.00  0.00    +0.048 C 
ATOM      3  C   UNL     1      32.248 -10.950 -22.031  0.00  0.00    +0.021 C 
ATOM      4  C   UNL     1      33.683  -9.866 -23.643  0.00  0.00    +0.021 C 
ATOM      5  C   UNL     1      32.723 -12.194 -22.443  0.00  0.00    +0.016 C 
ATOM      6  C   UNL     1      34.160 -11.110 -24.056  0.00  0.00    +0.016 C 
ENDROOT
BRANCH   1   7
ATOM      7  S   UNL     1      32.132  -8.227 -22.115  0.00  0.00    +0.075 S 
ATOM      8  O   UNL     1      30.784  -8.051 -22.640  0.00  0.00    -0.150 OA
ATOM      9  O   UNL     1      32.363  -8.118 -20.680  0.00  0.00    -0.150 OA
BRANCH   7  11
ATOM     10  S   UNL     1      32.982  -5.108 -24.801  0.00  0.00    -0.050 S 
ATOM     11  N   UNL     1      33.195  -7.170 -22.957  0.00  0.00    -0.194 N 
ATOM     12  N   UNL     1      31.890  -5.189 -22.460  0.00  0.00    -0.221 NA
ATOM     13  C   UNL     1      32.646  -5.839 -23.299  0.00  0.00    +0.179 C 
ATOM     14  C   UNL     1      32.027  -3.769 -24.315  0.00  0.00    +0.059 C 
ATOM     15  C   UNL     1      31.532  -3.991 -23.047  0.00  0.00    +0.108 C 
ATOM     16  H   UNL     1      34.113  -7.433 -23.195  0.00  0.00    +0.176 HD
ENDBRANCH   7  11
ENDBRANCH   1   7
BRANCH   2  17
ATOM     17  N   UNL     1      34.159 -13.533 -23.874  0.00  0.00    -0.311 N 
ATOM     18  H   UNL     1      34.289 -13.641 -24.844  0.00  0.00    +0.152 HD
BRANCH  17  25
ATOM     19  O   UNL     1      33.757 -15.666 -25.796  0.00  0.00    -0.270 OA
ATOM     20  N   UNL     1      34.214 -17.756 -24.794  0.00  0.00    -0.280 N 
ATOM     21  C   UNL     1      34.787 -17.074 -22.674  0.00  0.00    +0.019 C 
ATOM     22  C   UNL     1      34.459 -15.900 -23.478  0.00  0.00    +0.069 C 
ATOM     23  C   UNL     1      34.622 -18.173 -23.522  0.00  0.00    +0.051 C 
ATOM     24  C   UNL     1      34.088 -16.364 -24.857  0.00  0.00    +0.251 C 
ATOM     25  C   UNL     1      34.466 -14.616 -23.115  0.00  0.00    +0.066 C 
ATOM     26  C   UNL     1      35.186 -17.247 -21.363  0.00  0.00    +0.001 C 
ATOM     27  C   UNL     1      34.845 -19.470 -23.103  0.00  0.00    +0.015 C 
ATOM     28  C   UNL     1      35.418 -18.554 -20.917  0.00  0.00    +0.000 C 
ATOM     29  C   UNL     1      35.249 -19.653 -21.779  0.00  0.00    +0.001 C 
ATOM     30  H   UNL     1      34.038 -18.364 -25.548  0.00  0.00    +0.155 HD
ENDBRANCH  17  25
ENDBRANCH   2  17
TORSDOF 4
ENDMDL
MODEL 5
REMARK VINA RESULT:     -10.8      3.068      9.928
REMARK  Name = 5288711
REMARK  4 active torsions:
REMARK  status: ('A' for Active; 'I' for Inactive)
REMARK    1  A    between atoms: C_1  and  S_7
REMARK    2  A    between atoms: C_2  and  N_17
REMARK    3  A    between atoms: S_7  and  N_11
REMARK    4  A    between atoms: N_17  and  C_25
REMARK                            x       y       z     vdW  Elec       q    Type
REMARK                         _______ _______ _______ _____ _____    ______ ____
ROOT
ATOM      1  C   UNL     1      34.906 -19.540 -21.005  0.00  0.00    +0.125 C 
ATOM      2  C   UNL     1      33.939 -21.589 -19.367  0.00  0.00    +0.048 C 
ATOM      3  C   UNL     1      33.532 -19.756 -20.895  0.00  0.00    +0.021 C 
ATOM      4  C   UNL     1      35.797 -20.346 -20.297  0.00  0.00    +0.021 C 
ATOM      5  C   UNL     1      33.050 -20.778 -20.078  0.00  0.00    +0.016 C 
ATOM      6  C   UNL     1      35.315 -21.368 -19.479  0.00  0.00    +0.016 C 
ENDROOT
BRANCH   1   7
ATOM      7  S   UNL     1      35.510 -18.261 -22.029  0.00  0.00    +0.075 S 
ATOM      8  O   UNL     1      35.007 -16.990 -21.524  0.00  0.00    -0.150 OA
ATOM      9  O   UNL     1      36.947 -18.455 -22.178  0.00  0.00    -0.150 OA
BRANCH   7  11
ATOM     10  S   UNL     1      32.760 -17.472 -25.108  0.00  0.00    -0.050 S 
ATOM     11  N   UNL     1      34.718 -18.620 -23.512  0.00  0.00    -0.194 N 
ATOM     12  N   UNL     1      34.991 -16.379 -24.394  0.00  0.00    -0.221 NA
ATOM     13  C   UNL     1      34.260 -17.454 -24.298  0.00  0.00    +0.179 C 
ATOM     14  C   UNL     1      33.087 -15.882 -25.661  0.00  0.00    +0.059 C 
ATOM     15  C   UNL     1      34.314 -15.469 -25.182  0.00  0.00    +0.108 C 
ATOM     16  H   UNL     1      34.580 -19.544 -23.819  0.00  0.00    +0.176 HD
ENDBRANCH   7  11
ENDBRANCH   1   7
BRANCH   2  17
ATOM     17  N   UNL     1      33.453 -22.618 -18.544  0.00  0.00    -0.311 N 
ATOM     18  H   UNL     1      32.633 -23.064 -18.857  0.00  0.00    +0.152 HD
BRANCH  17  25
ATOM     19  O   UNL     1      31.088 -22.565 -16.868  0.00  0.00    -0.270 OA
ATOM     20  N   UNL     1      31.618 -23.326 -14.695  0.00  0.00    -0.280 N 
ATOM     21  C   UNL     1      33.860 -23.767 -14.955  0.00  0.00    +0.019 C 
ATOM     22  C   UNL     1      33.324 -23.272 -16.219  0.00  0.00    +0.069 C 
ATOM     23  C   UNL     1      32.782 -23.780 -14.065  0.00  0.00    +0.051 C 
ATOM     24  C   UNL     1      31.862 -22.990 -16.031  0.00  0.00    +0.251 C 
ATOM     25  C   UNL     1      33.964 -23.080 -17.374  0.00  0.00    +0.066 C 
ATOM     26  C   UNL     1      35.116 -24.176 -14.548  0.00  0.00    +0.001 C 
ATOM     27  C   UNL     1      32.910 -24.194 -12.754  0.00  0.00    +0.015 C 
ATOM     28  C   UNL     1      35.269 -24.600 -13.224  0.00  0.00    +0.000 C 
ATOM     29  C   UNL     1      34.177 -24.609 -12.336  0.00  0.00    +0.001 C 
ATOM     30  H   UNL     1      30.740 -23.253 -14.256  0.00  0.00    +0.155 HD
ENDBRANCH  17  25
ENDBRANCH   2  17
TORSDOF 4
ENDMDL
MODEL 6
REMARK VINA RESULT:     -10.7      3.472      4.600
REMARK  Name = 5288711
REMARK  4 active torsions:
REMARK  status: ('A' for Active; 'I' for Inactive)
REMARK    1  A    between atoms: C_1  and  S_7
REMARK    2  A    between atoms: C_2  and  N_17
REMARK    3  A    between atoms: S_7  and  N_11
REMARK    4  A    between atoms: N_17  and  C_25
REMARK                            x       y       z     vdW  Elec       q    Type
REMARK                         _______ _______ _______ _____ _____    ______ ____
ROOT
ATOM      1  C   UNL     1      34.934 -23.104 -16.183  0.00  0.00    +0.125 C 
ATOM      2  C   UNL     1      35.817 -21.666 -18.413  0.00  0.00    +0.048 C 
ATOM      3  C   UNL     1      36.223 -22.570 -16.204  0.00  0.00    +0.021 C 
ATOM      4  C   UNL     1      34.086 -22.919 -17.274  0.00  0.00    +0.021 C 
ATOM      5  C   UNL     1      36.663 -21.853 -17.316  0.00  0.00    +0.016 C 
ATOM      6  C   UNL     1      34.525 -22.202 -18.387  0.00  0.00    +0.016 C 
ENDROOT
BRANCH   1   7
ATOM      7  S   UNL     1      34.383 -24.002 -14.791  0.00  0.00    +0.075 S 
ATOM      8  O   UNL     1      32.931 -23.901 -14.722  0.00  0.00    -0.150 OA
ATOM      9  O   UNL     1      35.009 -25.318 -14.837  0.00  0.00    -0.150 OA
BRANCH   7  11
ATOM     10  S   UNL     1      36.430 -23.571 -11.146  0.00  0.00    -0.050 S 
ATOM     11  N   UNL     1      35.062 -23.080 -13.510  0.00  0.00    -0.194 N 
ATOM     12  N   UNL     1      37.157 -24.300 -13.517  0.00  0.00    -0.221 NA
ATOM     13  C   UNL     1      36.236 -23.677 -12.835  0.00  0.00    +0.179 C 
ATOM     14  C   UNL     1      37.897 -24.445 -11.302  0.00  0.00    +0.059 C 
ATOM     15  C   UNL     1      38.118 -24.745 -12.630  0.00  0.00    +0.108 C 
ATOM     16  H   UNL     1      34.693 -22.208 -13.241  0.00  0.00    +0.176 HD
ENDBRANCH   7  11
ENDBRANCH   1   7
BRANCH   2  17
ATOM     17  N   UNL     1      36.260 -20.944 -19.532  0.00  0.00    -0.311 N 
ATOM     18  H   UNL     1      37.215 -20.703 -19.534  0.00  0.00    +0.152 HD
BRANCH  17  25
ATOM     19  O   UNL     1      37.578 -18.430 -20.123  0.00  0.00    -0.270 OA
ATOM     20  N   UNL     1      36.571 -17.408 -22.000  0.00  0.00    -0.280 N 
ATOM     21  C   UNL     1      34.950 -18.965 -22.488  0.00  0.00    +0.019 C 
ATOM     22  C   UNL     1      35.708 -19.418 -21.326  0.00  0.00    +0.069 C 
ATOM     23  C   UNL     1      35.515 -17.741 -22.857  0.00  0.00    +0.051 C 
ATOM     24  C   UNL     1      36.760 -18.391 -21.022  0.00  0.00    +0.251 C 
ATOM     25  C   UNL     1      35.548 -20.534 -20.613  0.00  0.00    +0.066 C 
ATOM     26  C   UNL     1      33.888 -19.494 -23.197  0.00  0.00    +0.001 C 
ATOM     27  C   UNL     1      35.052 -17.006 -23.929  0.00  0.00    +0.015 C 
ATOM     28  C   UNL     1      33.402 -18.765 -24.288  0.00  0.00    +0.000 C 
ATOM     29  C   UNL     1      33.979 -17.534 -24.651  0.00  0.00    +0.001 C 
ATOM     30  H   UNL     1      37.110 -16.589 -22.075  0.00  0.00    +0.155 HD
ENDBRANCH  17  25
ENDBRANCH   2  17
TORSDOF 4
ENDMDL
MODEL 7
REMARK VINA RESULT:     -10.7      2.714      3.293
REMARK  Name = 5288711
REMARK  4 active torsions:
REMARK  status: ('A' for Active; 'I' for Inactive)
REMARK    1  A    between atoms: C_1  and  S_7
REMARK    2  A    between atoms: C_2  and  N_17
REMARK    3  A    between atoms: S_7  and  N_11
REMARK    4  A    between atoms: N_17  and  C_25
REMARK                            x       y       z     vdW  Elec       q    Type
REMARK                         _______ _______ _______ _____ _____    ______ ____
ROOT
ATOM      1  C   UNL     1      34.432 -22.403 -17.515  0.00  0.00    +0.125 C 
ATOM      2  C   UNL     1      35.049 -20.910 -19.797  0.00  0.00    +0.048 C 
ATOM      3  C   UNL     1      35.755 -22.052 -17.783  0.00  0.00    +0.021 C 
ATOM      4  C   UNL     1      33.417 -22.008 -18.385  0.00  0.00    +0.021 C 
ATOM      5  C   UNL     1      36.063 -21.307 -18.920  0.00  0.00    +0.016 C 
ATOM      6  C   UNL     1      33.724 -21.262 -19.524  0.00  0.00    +0.016 C 
ENDROOT
BRANCH   1   7
ATOM      7  S   UNL     1      34.046 -23.336 -16.091  0.00  0.00    +0.075 S 
ATOM      8  O   UNL     1      32.650 -23.097 -15.746  0.00  0.00    -0.150 OA
ATOM      9  O   UNL     1      34.505 -24.701 -16.318  0.00  0.00    -0.150 OA
BRANCH   7  11
ATOM     10  S   UNL     1      36.514 -23.338 -12.688  0.00  0.00    -0.050 S 
ATOM     11  N   UNL     1      35.044 -22.576 -14.915  0.00  0.00    -0.194 N 
ATOM     12  N   UNL     1      36.807 -24.230 -15.097  0.00  0.00    -0.221 NA
ATOM     13  C   UNL     1      36.123 -23.412 -14.346  0.00  0.00    +0.179 C 
ATOM     14  C   UNL     1      37.728 -24.516 -12.965  0.00  0.00    +0.059 C 
ATOM     15  C   UNL     1      37.735 -24.869 -14.299  0.00  0.00    +0.108 C 
ATOM     16  H   UNL     1      34.906 -21.642 -14.638  0.00  0.00    +0.176 HD
ENDBRANCH   7  11
ENDBRANCH   1   7
BRANCH   2  17
ATOM     17  N   UNL     1      35.359 -20.159 -20.943  0.00  0.00    -0.311 N 
ATOM     18  H   UNL     1      35.768 -20.662 -21.684  0.00  0.00    +0.152 HD
BRANCH  17  25
ATOM     19  O   UNL     1      34.733 -20.171 -23.774  0.00  0.00    -0.270 OA
ATOM     20  N   UNL     1      34.334 -17.967 -24.524  0.00  0.00    -0.280 N 
ATOM     21  C   UNL     1      34.646 -16.808 -22.563  0.00  0.00    +0.019 C 
ATOM     22  C   UNL     1      34.852 -18.230 -22.311  0.00  0.00    +0.069 C 
ATOM     23  C   UNL     1      34.334 -16.704 -23.922  0.00  0.00    +0.051 C 
ATOM     24  C   UNL     1      34.645 -18.971 -23.600  0.00  0.00    +0.251 C 
ATOM     25  C   UNL     1      35.170 -18.834 -21.164  0.00  0.00    +0.066 C 
ATOM     26  C   UNL     1      34.705 -15.681 -21.765  0.00  0.00    +0.001 C 
ATOM     27  C   UNL     1      34.072 -15.493 -24.530  0.00  0.00    +0.015 C 
ATOM     28  C   UNL     1      34.442 -14.443 -22.361  0.00  0.00    +0.000 C 
ATOM     29  C   UNL     1      34.129 -14.350 -23.729  0.00  0.00    +0.001 C 
ATOM     30  H   UNL     1      34.140 -18.129 -25.475  0.00  0.00    +0.155 HD
ENDBRANCH  17  25
ENDBRANCH   2  17
TORSDOF 4
ENDMDL
MODEL 8
REMARK VINA RESULT:     -10.6      3.721      9.611
REMARK  Name = 5288711
REMARK  4 active torsions:
REMARK  status: ('A' for Active; 'I' for Inactive)
REMARK    1  A    between atoms: C_1  and  S_7
REMARK    2  A    between atoms: C_2  and  N_17
REMARK    3  A    between atoms: S_7  and  N_11
REMARK    4  A    between atoms: N_17  and  C_25
REMARK                            x       y       z     vdW  Elec       q    Type
REMARK                         _______ _______ _______ _____ _____    ______ ____
ROOT
ATOM      1  C   UNL     1      34.610 -17.328 -23.275  0.00  0.00    +0.125 C 
ATOM      2  C   UNL     1      34.666 -19.638 -21.702  0.00  0.00    +0.048 C 
ATOM      3  C   UNL     1      34.204 -18.550 -23.814  0.00  0.00    +0.021 C 
ATOM      4  C   UNL     1      35.043 -17.260 -21.952  0.00  0.00    +0.021 C 
ATOM      5  C   UNL     1      34.232 -19.702 -23.029  0.00  0.00    +0.016 C 
ATOM      6  C   UNL     1      35.071 -18.412 -21.166  0.00  0.00    +0.016 C 
ENDROOT
BRANCH   1   7
ATOM      7  S   UNL     1      34.576 -15.885 -24.258  0.00  0.00    +0.075 S 
ATOM      8  O   UNL     1      35.718 -15.055 -23.897  0.00  0.00    -0.150 OA
ATOM      9  O   UNL     1      34.399 -16.298 -25.645  0.00  0.00    -0.150 OA
BRANCH   7  11
ATOM     10  S   UNL     1      32.473 -12.936 -22.127  0.00  0.00    -0.050 S 
ATOM     11  N   UNL     1      33.141 -15.129 -23.689  0.00  0.00    -0.194 N 
ATOM     12  N   UNL     1      33.872 -12.901 -24.300  0.00  0.00    -0.221 NA
ATOM     13  C   UNL     1      33.223 -13.669 -23.470  0.00  0.00    +0.179 C 
ATOM     14  C   UNL     1      33.058 -11.422 -22.679  0.00  0.00    +0.059 C 
ATOM     15  C   UNL     1      33.776 -11.601 -23.843  0.00  0.00    +0.108 C 
ATOM     16  H   UNL     1      32.315 -15.637 -23.521  0.00  0.00    +0.176 HD
ENDBRANCH   7  11
ENDBRANCH   1   7
BRANCH   2  17
ATOM     17  N   UNL     1      34.694 -20.799 -20.911  0.00  0.00    -0.311 N 
ATOM     18  H   UNL     1      34.108 -21.532 -21.209  0.00  0.00    +0.152 HD
BRANCH  17  25
ATOM     19  O   UNL     1      32.787 -22.335 -19.359  0.00  0.00    -0.270 OA
ATOM     20  N   UNL     1      33.738 -22.950 -17.286  0.00  0.00    -0.280 N 
ATOM     21  C   UNL     1      35.820 -21.994 -17.495  0.00  0.00    +0.019 C 
ATOM     22  C   UNL     1      35.050 -21.724 -18.705  0.00  0.00    +0.069 C 
ATOM     23  C   UNL     1      34.977 -22.742 -16.667  0.00  0.00    +0.051 C 
ATOM     24  C   UNL     1      33.696 -22.354 -18.551  0.00  0.00    +0.251 C 
ATOM     25  C   UNL     1      35.421 -21.044 -19.791  0.00  0.00    +0.066 C 
ATOM     26  C   UNL     1      37.099 -21.666 -17.087  0.00  0.00    +0.001 C 
ATOM     27  C   UNL     1      35.368 -23.186 -15.420  0.00  0.00    +0.015 C 
ATOM     28  C   UNL     1      37.517 -22.106 -15.826  0.00  0.00    +0.000 C 
ATOM     29  C   UNL     1      36.660 -22.858 -15.002  0.00  0.00    +0.001 C 
ATOM     30  H   UNL     1      32.993 -23.451 -16.883  0.00  0.00    +0.155 HD
ENDBRANCH  17  25
ENDBRANCH   2  17
TORSDOF 4
ENDMDL
MODEL 9
REMARK VINA RESULT:     -10.6      4.726      9.674
REMARK  Name = 5288711
REMARK  4 active torsions:
REMARK  status: ('A' for Active; 'I' for Inactive)
REMARK    1  A    between atoms: C_1  and  S_7
REMARK    2  A    between atoms: C_2  and  N_17
REMARK    3  A    between atoms: S_7  and  N_11
REMARK    4  A    between atoms: N_17  and  C_25
REMARK                            x       y       z     vdW  Elec       q    Type
REMARK                         _______ _______ _______ _____ _____    ______ ____
ROOT
ATOM      1  C   UNL     1      33.985 -14.532 -23.452  0.00  0.00    +0.125 C 
ATOM      2  C   UNL     1      34.663 -17.222 -23.105  0.00  0.00    +0.048 C 
ATOM      3  C   UNL     1      34.530 -14.964 -22.243  0.00  0.00    +0.021 C 
ATOM      4  C   UNL     1      33.779 -15.441 -24.488  0.00  0.00    +0.021 C 
ATOM      5  C   UNL     1      34.868 -16.305 -22.070  0.00  0.00    +0.016 C 
ATOM      6  C   UNL     1      34.118 -16.784 -24.316  0.00  0.00    +0.016 C 
ENDROOT
BRANCH   1   7
ATOM      7  S   UNL     1      33.561 -12.852 -23.669  0.00  0.00    +0.075 S 
ATOM      8  O   UNL     1      34.639 -12.031 -23.133  0.00  0.00    -0.150 OA
ATOM      9  O   UNL     1      33.146 -12.676 -25.055  0.00  0.00    -0.150 OA
BRANCH   7  11
ATOM     10  S   UNL     1      31.523 -11.346 -20.316  0.00  0.00    -0.050 S 
ATOM     11  N   UNL     1      32.197 -12.717 -22.632  0.00  0.00    -0.194 N 
ATOM     12  N   UNL     1      32.285 -10.296 -22.551  0.00  0.00    -0.221 NA
ATOM     13  C   UNL     1      32.037 -11.420 -21.939  0.00  0.00    +0.179 C 
ATOM     14  C   UNL     1      31.632  -9.637 -20.403  0.00  0.00    +0.059 C 
ATOM     15  C   UNL     1      32.051  -9.264 -21.664  0.00  0.00    +0.108 C 
ATOM     16  H   UNL     1      31.559 -13.457 -22.508  0.00  0.00    +0.176 HD
ENDBRANCH   7  11
ENDBRANCH   1   7
BRANCH   2  17
ATOM     17  N   UNL     1      35.004 -18.573 -22.931  0.00  0.00    -0.311 N 
ATOM     18  H   UNL     1      35.638 -18.941 -23.587  0.00  0.00    +0.152 HD
BRANCH  17  25
ATOM     19  O   UNL     1      37.397 -18.822 -21.313  0.00  0.00    -0.270 OA
ATOM     20  N   UNL     1      37.005 -20.296 -19.509  0.00  0.00    -0.280 N 
ATOM     21  C   UNL     1      34.812 -20.858 -19.912  0.00  0.00    +0.019 C 
ATOM     22  C   UNL     1      35.260 -19.927 -20.943  0.00  0.00    +0.069 C 
ATOM     23  C   UNL     1      35.909 -21.047 -19.068  0.00  0.00    +0.051 C 
ATOM     24  C   UNL     1      36.692 -19.572 -20.664  0.00  0.00    +0.251 C 
ATOM     25  C   UNL     1      34.574 -19.439 -21.978  0.00  0.00    +0.066 C 
ATOM     26  C   UNL     1      33.615 -21.504 -19.670  0.00  0.00    +0.001 C 
ATOM     27  C   UNL     1      35.859 -21.875 -17.964  0.00  0.00    +0.015 C 
ATOM     28  C   UNL     1      33.541 -22.349 -18.556  0.00  0.00    +0.000 C 
ATOM     29  C   UNL     1      34.653 -22.532 -17.712  0.00  0.00    +0.001 C 
ATOM     30  H   UNL     1      37.882 -20.279 -19.064  0.00  0.00    +0.155 HD
ENDBRANCH  17  25
ENDBRANCH   2  17
TORSDOF 4
ENDMDL
