MODEL 1
REMARK VINA RESULT:     -11.1      0.000      0.000
REMARK  Name = 24995524
REMARK  4 active torsions:
REMARK  status: ('A' for Active; 'I' for Inactive)
REMARK    1  A    between atoms: N_5  and  C_13
REMARK    2  A    between atoms: C_6  and  C_19
REMARK    3  A    between atoms: C_19  and  C_20
REMARK    4  A    between atoms: C_20  and  N_22
REMARK                            x       y       z     vdW  Elec       q    Type
REMARK                         _______ _______ _______ _____ _____    ______ ____
ROOT
ATOM      1  S   UNL     1      36.440 -20.637 -19.483  0.00  0.00    -0.056 S 
ATOM      2  O   UNL     1      35.216 -23.453 -15.965  0.00  0.00    -0.252 OA
ATOM      3  N   UNL     1      34.461 -21.933 -18.439  0.00  0.00    -0.223 NA
ATOM      4  N   UNL     1      36.588 -22.112 -17.321  0.00  0.00    -0.248 N 
ATOM      5  N   UNL     1      37.479 -23.174 -15.442  0.00  0.00    -0.268 N 
ATOM      6  C   UNL     1      34.913 -20.530 -20.256  0.00  0.00    +0.031 C 
ATOM      7  C   UNL     1      33.988 -21.281 -19.561  0.00  0.00    +0.103 C 
ATOM      8  C   UNL     1      35.741 -21.667 -18.300  0.00  0.00    +0.166 C 
ATOM      9  C   UNL     1      36.318 -22.970 -16.206  0.00  0.00    +0.310 C 
ATOM     10  H   UNL     1      37.518 -21.797 -17.394  0.00  0.00    +0.158 HD
ATOM     11  H   UNL     1      38.291 -22.719 -15.762  0.00  0.00    +0.156 HD
ENDROOT
BRANCH   5  13
ATOM     12 CL   UNL     1      36.224 -23.947 -10.524  0.00  0.00    -0.082 Cl
ATOM     13  C   UNL     1      37.624 -23.954 -14.271  0.00  0.00    +0.052 C 
ATOM     14  C   UNL     1      36.932 -23.606 -13.111  0.00  0.00    +0.026 C 
ATOM     15  C   UNL     1      38.461 -25.071 -14.276  0.00  0.00    +0.015 C 
ATOM     16  C   UNL     1      37.077 -24.376 -11.956  0.00  0.00    +0.059 C 
ATOM     17  C   UNL     1      38.606 -25.839 -13.122  0.00  0.00    +0.002 C 
ATOM     18  C   UNL     1      37.914 -25.492 -11.962  0.00  0.00    +0.011 C 
ENDBRANCH   5  13
BRANCH   6  19
ATOM     19  C   UNL     1      34.741 -19.700 -21.505  0.00  0.00    +0.056 C 
BRANCH  19  20
ATOM     20  C   UNL     1      35.850 -18.667 -21.695  0.00  0.00    +0.093 C 
BRANCH  20  22
ATOM     21  S   UNL     1      34.176 -14.348 -21.401  0.00  0.00    -0.101 S 
ATOM     22  N   UNL     1      35.321 -17.336 -21.672  0.00  0.00    -0.320 N 
ATOM     23  N   UNL     1      34.841 -17.332 -24.002  0.00  0.00    -0.233 NA
ATOM     24  N   UNL     1      33.848 -15.428 -25.118  0.00  0.00    -0.247 NA
ATOM     25  C   UNL     1      34.825 -16.689 -22.818  0.00  0.00    +0.118 C 
ATOM     26  C   UNL     1      34.318 -15.396 -22.753  0.00  0.00    +0.145 C 
ATOM     27  C   UNL     1      33.839 -14.793 -23.915  0.00  0.00    +0.073 C 
ATOM     28  C   UNL     1      33.358 -13.471 -23.671  0.00  0.00    +0.022 C 
ATOM     29  C   UNL     1      33.483 -13.108 -22.349  0.00  0.00    +0.033 C 
ATOM     30  C   UNL     1      34.356 -16.670 -25.069  0.00  0.00    +0.251 C 
ATOM     31  H   UNL     1      35.303 -16.853 -20.814  0.00  0.00    +0.148 HD
ENDBRANCH  20  22
ENDBRANCH  19  20
ENDBRANCH   6  19
TORSDOF 4
ENDMDL
MODEL 2
REMARK VINA RESULT:     -11.0      4.848     11.366
REMARK  Name = 24995524
REMARK  4 active torsions:
REMARK  status: ('A' for Active; 'I' for Inactive)
REMARK    1  A    between atoms: N_5  and  C_13
REMARK    2  A    between atoms: C_6  and  C_19
REMARK    3  A    between atoms: C_19  and  C_20
REMARK    4  A    between atoms: C_20  and  N_22
REMARK                            x       y       z     vdW  Elec       q    Type
REMARK                         _______ _______ _______ _____ _____    ______ ____
ROOT
ATOM      1  S   UNL     1      33.555 -23.653 -16.065  0.00  0.00    -0.056 S 
ATOM      2  O   UNL     1      32.666 -20.708 -19.577  0.00  0.00    -0.252 OA
ATOM      3  N   UNL     1      31.666 -22.415 -17.321  0.00  0.00    -0.223 NA
ATOM      4  N   UNL     1      33.914 -22.046 -18.104  0.00  0.00    -0.248 N 
ATOM      5  N   UNL     1      34.994 -20.822 -19.774  0.00  0.00    -0.268 N 
ATOM      6  C   UNL     1      31.943 -23.896 -15.531  0.00  0.00    +0.031 C 
ATOM      7  C   UNL     1      31.080 -23.161 -16.316  0.00  0.00    +0.103 C 
ATOM      8  C   UNL     1      32.967 -22.598 -17.283  0.00  0.00    +0.166 C 
ATOM      9  C   UNL     1      33.751 -21.139 -19.201  0.00  0.00    +0.310 C 
ATOM     10  H   UNL     1      34.843 -22.310 -17.911  0.00  0.00    +0.158 HD
ATOM     11  H   UNL     1      35.780 -21.248 -19.362  0.00  0.00    +0.156 HD
ENDROOT
BRANCH   5  13
ATOM     12 CL   UNL     1      33.466 -18.922 -24.293  0.00  0.00    -0.082 Cl
ATOM     13  C   UNL     1      35.254 -19.967 -20.870  0.00  0.00    +0.052 C 
ATOM     14  C   UNL     1      34.338 -19.877 -21.918  0.00  0.00    +0.026 C 
ATOM     15  C   UNL     1      36.428 -19.213 -20.903  0.00  0.00    +0.015 C 
ATOM     16  C   UNL     1      34.597 -19.033 -22.999  0.00  0.00    +0.059 C 
ATOM     17  C   UNL     1      36.686 -18.371 -21.983  0.00  0.00    +0.002 C 
ATOM     18  C   UNL     1      35.770 -18.280 -23.031  0.00  0.00    +0.011 C 
ENDBRANCH   5  13
BRANCH   6  19
ATOM     19  C   UNL     1      31.650 -24.808 -14.365  0.00  0.00    +0.056 C 
BRANCH  19  20
ATOM     20  C   UNL     1      32.575 -24.571 -13.172  0.00  0.00    +0.093 C 
BRANCH  20  22
ATOM     21  S   UNL     1      36.868 -25.846 -14.392  0.00  0.00    -0.101 S 
ATOM     22  N   UNL     1      33.921 -24.945 -13.486  0.00  0.00    -0.320 N 
ATOM     23  N   UNL     1      34.755 -24.279 -11.359  0.00  0.00    -0.233 NA
ATOM     24  N   UNL     1      37.091 -24.484 -10.760  0.00  0.00    -0.247 NA
ATOM     25  C   UNL     1      34.989 -24.795 -12.582  0.00  0.00    +0.118 C 
ATOM     26  C   UNL     1      36.283 -25.171 -12.926  0.00  0.00    +0.145 C 
ATOM     27  C   UNL     1      37.310 -25.003 -11.998  0.00  0.00    +0.073 C 
ATOM     28  C   UNL     1      38.569 -25.437 -12.513  0.00  0.00    +0.022 C 
ATOM     29  C   UNL     1      38.469 -25.916 -13.800  0.00  0.00    +0.033 C 
ATOM     30  C   UNL     1      35.809 -24.156 -10.532  0.00  0.00    +0.251 C 
ATOM     31  H   UNL     1      34.108 -25.323 -14.376  0.00  0.00    +0.148 HD
ENDBRANCH  20  22
ENDBRANCH  19  20
ENDBRANCH   6  19
TORSDOF 4
ENDMDL
MODEL 3
REMARK VINA RESULT:     -10.9      1.246      1.651
REMARK  Name = 24995524
REMARK  4 active torsions:
REMARK  status: ('A' for Active; 'I' for Inactive)
REMARK    1  A    between atoms: N_5  and  C_13
REMARK    2  A    between atoms: C_6  and  C_19
REMARK    3  A    between atoms: C_19  and  C_20
REMARK    4  A    between atoms: C_20  and  N_22
REMARK                            x       y       z     vdW  Elec       q    Type
REMARK                         _______ _______ _______ _____ _____    ______ ____
ROOT
ATOM      1  S   UNL     1      36.333 -20.677 -19.605  0.00  0.00    -0.056 S 
ATOM      2  O   UNL     1      35.215 -23.401 -15.982  0.00  0.00    -0.252 OA
ATOM      3  N   UNL     1      34.384 -21.933 -18.463  0.00  0.00    -0.223 NA
ATOM      4  N   UNL     1      36.547 -22.102 -17.416  0.00  0.00    -0.248 N 
ATOM      5  N   UNL     1      37.497 -23.128 -15.545  0.00  0.00    -0.268 N 
ATOM      6  C   UNL     1      34.780 -20.576 -20.327  0.00  0.00    +0.031 C 
ATOM      7  C   UNL     1      33.876 -21.303 -19.582  0.00  0.00    +0.103 C 
ATOM      8  C   UNL     1      35.670 -21.674 -18.375  0.00  0.00    +0.166 C 
ATOM      9  C   UNL     1      36.311 -22.933 -16.272  0.00  0.00    +0.310 C 
ATOM     10  H   UNL     1      37.476 -21.796 -17.529  0.00  0.00    +0.158 HD
ATOM     11  H   UNL     1      38.301 -22.686 -15.904  0.00  0.00    +0.156 HD
ENDROOT
BRANCH   5  13
ATOM     12 CL   UNL     1      36.387 -23.794 -10.576  0.00  0.00    -0.082 Cl
ATOM     13  C   UNL     1      37.678 -23.881 -14.362  0.00  0.00    +0.052 C 
ATOM     14  C   UNL     1      37.019 -23.509 -13.190  0.00  0.00    +0.026 C 
ATOM     15  C   UNL     1      38.517 -24.997 -14.367  0.00  0.00    +0.015 C 
ATOM     16  C   UNL     1      37.200 -24.253 -12.023  0.00  0.00    +0.059 C 
ATOM     17  C   UNL     1      38.697 -25.739 -13.201  0.00  0.00    +0.002 C 
ATOM     18  C   UNL     1      38.038 -25.367 -12.029  0.00  0.00    +0.011 C 
ENDBRANCH   5  13
BRANCH   6  19
ATOM     19  C   UNL     1      34.571 -19.774 -21.588  0.00  0.00    +0.056 C 
BRANCH  19  20
ATOM     20  C   UNL     1      35.412 -18.500 -21.635  0.00  0.00    +0.093 C 
BRANCH  20  22
ATOM     21  S   UNL     1      33.961 -15.828 -25.141  0.00  0.00    -0.101 S 
ATOM     22  N   UNL     1      34.957 -17.623 -22.672  0.00  0.00    -0.320 N 
ATOM     23  N   UNL     1      34.687 -15.779 -21.194  0.00  0.00    -0.233 NA
ATOM     24  N   UNL     1      33.902 -13.617 -21.947  0.00  0.00    -0.247 NA
ATOM     25  C   UNL     1      34.602 -16.281 -22.441  0.00  0.00    +0.118 C 
ATOM     26  C   UNL     1      34.165 -15.463 -23.477  0.00  0.00    +0.145 C 
ATOM     27  C   UNL     1      33.823 -14.140 -23.201  0.00  0.00    +0.073 C 
ATOM     28  C   UNL     1      33.396 -13.444 -24.371  0.00  0.00    +0.022 C 
ATOM     29  C   UNL     1      33.424 -14.244 -25.492  0.00  0.00    +0.033 C 
ATOM     30  C   UNL     1      34.335 -14.491 -21.024  0.00  0.00    +0.251 C 
ATOM     31  H   UNL     1      34.890 -17.976 -23.589  0.00  0.00    +0.148 HD
ENDBRANCH  20  22
ENDBRANCH  19  20
ENDBRANCH   6  19
TORSDOF 4
ENDMDL
MODEL 4
REMARK VINA RESULT:     -10.8      3.538      4.039
REMARK  Name = 24995524
REMARK  4 active torsions:
REMARK  status: ('A' for Active; 'I' for Inactive)
REMARK    1  A    between atoms: N_5  and  C_13
REMARK    2  A    between atoms: C_6  and  C_19
REMARK    3  A    between atoms: C_19  and  C_20
REMARK    4  A    between atoms: C_20  and  N_22
REMARK                            x       y       z     vdW  Elec       q    Type
REMARK                         _______ _______ _______ _____ _____    ______ ____
ROOT
ATOM      1  S   UNL     1      33.116 -20.362 -20.566  0.00  0.00    -0.056 S 
ATOM      2  O   UNL     1      33.971 -23.000 -16.810  0.00  0.00    -0.252 OA
ATOM      3  N   UNL     1      34.989 -21.521 -19.214  0.00  0.00    -0.223 NA
ATOM      4  N   UNL     1      32.740 -21.773 -18.389  0.00  0.00    -0.248 N 
ATOM      5  N   UNL     1      31.648 -22.821 -16.611  0.00  0.00    -0.268 N 
ATOM      6  C   UNL     1      34.728 -20.201 -21.128  0.00  0.00    +0.031 C 
ATOM      7  C   UNL     1      35.582 -20.882 -20.286  0.00  0.00    +0.103 C 
ATOM      8  C   UNL     1      33.692 -21.315 -19.260  0.00  0.00    +0.166 C 
ATOM      9  C   UNL     1      32.893 -22.581 -17.216  0.00  0.00    +0.310 C 
ATOM     10  H   UNL     1      31.815 -21.507 -18.599  0.00  0.00    +0.158 HD
ATOM     11  H   UNL     1      30.867 -22.418 -17.056  0.00  0.00    +0.156 HD
ENDROOT
BRANCH   5  13
ATOM     12 CL   UNL     1      28.588 -26.128 -14.149  0.00  0.00    -0.082 Cl
ATOM     13  C   UNL     1      31.379 -23.571 -15.442  0.00  0.00    +0.052 C 
ATOM     14  C   UNL     1      30.248 -24.385 -15.381  0.00  0.00    +0.026 C 
ATOM     15  C   UNL     1      32.245 -23.495 -14.351  0.00  0.00    +0.015 C 
ATOM     16  C   UNL     1      29.984 -25.123 -14.226  0.00  0.00    +0.059 C 
ATOM     17  C   UNL     1      31.980 -24.232 -13.198  0.00  0.00    +0.002 C 
ATOM     18  C   UNL     1      30.849 -25.047 -13.136  0.00  0.00    +0.011 C 
ENDBRANCH   5  13
BRANCH   6  19
ATOM     19  C   UNL     1      35.031 -19.406 -22.375  0.00  0.00    +0.056 C 
BRANCH  19  20
ATOM     20  C   UNL     1      36.045 -18.288 -22.141  0.00  0.00    +0.093 C 
BRANCH  20  22
ATOM     21  S   UNL     1      33.955 -14.280 -21.085  0.00  0.00    -0.101 S 
ATOM     22  N   UNL     1      35.384 -17.043 -21.882  0.00  0.00    -0.320 N 
ATOM     23  N   UNL     1      34.810 -16.707 -24.166  0.00  0.00    -0.233 NA
ATOM     24  N   UNL     1      33.584 -14.762 -24.923  0.00  0.00    -0.247 NA
ATOM     25  C   UNL     1      34.778 -16.272 -22.891  0.00  0.00    +0.118 C 
ATOM     26  C   UNL     1      34.147 -15.070 -22.598  0.00  0.00    +0.145 C 
ATOM     27  C   UNL     1      33.561 -14.338 -23.630  0.00  0.00    +0.073 C 
ATOM     28  C   UNL     1      32.959 -13.134 -23.156  0.00  0.00    +0.022 C 
ATOM     29  C   UNL     1      33.101 -12.982 -21.795  0.00  0.00    +0.033 C 
ATOM     30  C   UNL     1      34.218 -15.934 -25.095  0.00  0.00    +0.251 C 
ATOM     31  H   UNL     1      35.353 -16.712 -20.955  0.00  0.00    +0.148 HD
ENDBRANCH  20  22
ENDBRANCH  19  20
ENDBRANCH   6  19
TORSDOF 4
ENDMDL
MODEL 5
REMARK VINA RESULT:     -10.7      6.178     12.902
REMARK  Name = 24995524
REMARK  4 active torsions:
REMARK  status: ('A' for Active; 'I' for Inactive)
REMARK    1  A    between atoms: N_5  and  C_13
REMARK    2  A    between atoms: C_6  and  C_19
REMARK    3  A    between atoms: C_19  and  C_20
REMARK    4  A    between atoms: C_20  and  N_22
REMARK                            x       y       z     vdW  Elec       q    Type
REMARK                         _______ _______ _______ _____ _____    ______ ____
ROOT
ATOM      1  S   UNL     1      34.545 -15.302 -22.800  0.00  0.00    -0.056 S 
ATOM      2  O   UNL     1      33.441 -11.376 -25.074  0.00  0.00    -0.252 OA
ATOM      3  N   UNL     1      33.667 -14.368 -25.044  0.00  0.00    -0.223 NA
ATOM      4  N   UNL     1      34.173 -12.761 -23.322  0.00  0.00    -0.248 N 
ATOM      5  N   UNL     1      34.110 -10.444 -23.036  0.00  0.00    -0.268 N 
ATOM      6  C   UNL     1      34.176 -16.421 -24.045  0.00  0.00    +0.031 C 
ATOM      7  C   UNL     1      33.726 -15.744 -25.159  0.00  0.00    +0.103 C 
ATOM      8  C   UNL     1      34.075 -14.023 -23.843  0.00  0.00    +0.166 C 
ATOM      9  C   UNL     1      33.863 -11.500 -23.929  0.00  0.00    +0.310 C 
ATOM     10  H   UNL     1      34.503 -12.712 -22.396  0.00  0.00    +0.158 HD
ATOM     11  H   UNL     1      34.449 -10.701 -22.147  0.00  0.00    +0.156 HD
ENDROOT
BRANCH   5  13
ATOM     12 CL   UNL     1      30.981  -6.373 -22.948  0.00  0.00    -0.082 Cl
ATOM     13  C   UNL     1      33.931  -9.058 -23.256  0.00  0.00    +0.052 C 
ATOM     14  C   UNL     1      32.690  -8.469 -23.019  0.00  0.00    +0.026 C 
ATOM     15  C   UNL     1      34.998  -8.281 -23.709  0.00  0.00    +0.015 C 
ATOM     16  C   UNL     1      32.515  -7.102 -23.238  0.00  0.00    +0.059 C 
ATOM     17  C   UNL     1      34.823  -6.915 -23.927  0.00  0.00    +0.002 C 
ATOM     18  C   UNL     1      33.581  -6.326 -23.691  0.00  0.00    +0.011 C 
ENDBRANCH   5  13
BRANCH   6  19
ATOM     19  C   UNL     1      34.364 -17.903 -23.826  0.00  0.00    +0.056 C 
BRANCH  19  20
ATOM     20  C   UNL     1      35.219 -18.224 -22.601  0.00  0.00    +0.093 C 
BRANCH  20  22
ATOM     21  S   UNL     1      32.817 -21.094 -19.857  0.00  0.00    -0.101 S 
ATOM     22  N   UNL     1      34.537 -19.125 -21.722  0.00  0.00    -0.320 N 
ATOM     23  N   UNL     1      36.523 -19.719 -20.555  0.00  0.00    -0.233 NA
ATOM     24  N   UNL     1      36.527 -21.301 -18.723  0.00  0.00    -0.247 NA
ATOM     25  C   UNL     1      35.192 -19.858 -20.715  0.00  0.00    +0.118 C 
ATOM     26  C   UNL     1      34.492 -20.722 -19.882  0.00  0.00    +0.145 C 
ATOM     27  C   UNL     1      35.184 -21.429 -18.898  0.00  0.00    +0.073 C 
ATOM     28  C   UNL     1      34.317 -22.268 -18.136  0.00  0.00    +0.022 C 
ATOM     29  C   UNL     1      33.008 -22.180 -18.552  0.00  0.00    +0.033 C 
ATOM     30  C   UNL     1      37.103 -20.441 -19.579  0.00  0.00    +0.251 C 
ATOM     31  H   UNL     1      33.564 -19.238 -21.827  0.00  0.00    +0.148 HD
ENDBRANCH  20  22
ENDBRANCH  19  20
ENDBRANCH   6  19
TORSDOF 4
ENDMDL
MODEL 6
REMARK VINA RESULT:     -10.6      3.679      4.358
REMARK  Name = 24995524
REMARK  4 active torsions:
REMARK  status: ('A' for Active; 'I' for Inactive)
REMARK    1  A    between atoms: N_5  and  C_13
REMARK    2  A    between atoms: C_6  and  C_19
REMARK    3  A    between atoms: C_19  and  C_20
REMARK    4  A    between atoms: C_20  and  N_22
REMARK                            x       y       z     vdW  Elec       q    Type
REMARK                         _______ _______ _______ _____ _____    ______ ____
ROOT
ATOM      1  S   UNL     1      33.151 -20.351 -20.545  0.00  0.00    -0.056 S 
ATOM      2  O   UNL     1      34.010 -23.044 -16.830  0.00  0.00    -0.252 OA
ATOM      3  N   UNL     1      35.023 -21.546 -19.224  0.00  0.00    -0.223 NA
ATOM      4  N   UNL     1      32.778 -21.785 -18.384  0.00  0.00    -0.248 N 
ATOM      5  N   UNL     1      31.690 -22.844 -16.610  0.00  0.00    -0.268 N 
ATOM      6  C   UNL     1      34.760 -20.199 -21.119  0.00  0.00    +0.031 C 
ATOM      7  C   UNL     1      35.614 -20.899 -20.292  0.00  0.00    +0.103 C 
ATOM      8  C   UNL     1      33.728 -21.326 -19.256  0.00  0.00    +0.166 C 
ATOM      9  C   UNL     1      32.932 -22.609 -17.222  0.00  0.00    +0.310 C 
ATOM     10  H   UNL     1      31.855 -21.506 -18.582  0.00  0.00    +0.158 HD
ATOM     11  H   UNL     1      30.910 -22.427 -17.042  0.00  0.00    +0.156 HD
ENDROOT
BRANCH   5  13
ATOM     12 CL   UNL     1      28.599 -26.125 -14.150  0.00  0.00    -0.082 Cl
ATOM     13  C   UNL     1      31.423 -23.606 -15.448  0.00  0.00    +0.052 C 
ATOM     14  C   UNL     1      30.277 -24.398 -15.381  0.00  0.00    +0.026 C 
ATOM     15  C   UNL     1      32.306 -23.564 -14.369  0.00  0.00    +0.015 C 
ATOM     16  C   UNL     1      30.014 -25.147 -14.234  0.00  0.00    +0.059 C 
ATOM     17  C   UNL     1      32.043 -24.313 -13.223  0.00  0.00    +0.002 C 
ATOM     18  C   UNL     1      30.897 -25.105 -13.156  0.00  0.00    +0.011 C 
ENDBRANCH   5  13
BRANCH   6  19
ATOM     19  C   UNL     1      35.061 -19.392 -22.358  0.00  0.00    +0.056 C 
BRANCH  19  20
ATOM     20  C   UNL     1      35.344 -17.920 -22.061  0.00  0.00    +0.093 C 
BRANCH  20  22
ATOM     21  S   UNL     1      33.736 -15.370 -25.589  0.00  0.00    -0.101 S 
ATOM     22  N   UNL     1      34.841 -17.080 -23.106  0.00  0.00    -0.320 N 
ATOM     23  N   UNL     1      34.575 -15.204 -21.667  0.00  0.00    -0.233 NA
ATOM     24  N   UNL     1      33.724 -13.078 -22.452  0.00  0.00    -0.247 NA
ATOM     25  C   UNL     1      34.465 -15.740 -22.899  0.00  0.00    +0.118 C 
ATOM     26  C   UNL     1      33.981 -14.958 -23.941  0.00  0.00    +0.145 C 
ATOM     27  C   UNL     1      33.619 -13.635 -23.689  0.00  0.00    +0.073 C 
ATOM     28  C   UNL     1      33.144 -12.979 -24.864  0.00  0.00    +0.022 C 
ATOM     29  C   UNL     1      33.156 -13.807 -25.964  0.00  0.00    +0.033 C 
ATOM     30  C   UNL     1      34.202 -13.919 -21.520  0.00  0.00    +0.251 C 
ATOM     31  H   UNL     1      34.754 -17.458 -24.011  0.00  0.00    +0.148 HD
ENDBRANCH  20  22
ENDBRANCH  19  20
ENDBRANCH   6  19
TORSDOF 4
ENDMDL
MODEL 7
REMARK VINA RESULT:     -10.4      4.224     11.648
REMARK  Name = 24995524
REMARK  4 active torsions:
REMARK  status: ('A' for Active; 'I' for Inactive)
REMARK    1  A    between atoms: N_5  and  C_13
REMARK    2  A    between atoms: C_6  and  C_19
REMARK    3  A    between atoms: C_19  and  C_20
REMARK    4  A    between atoms: C_20  and  N_22
REMARK                            x       y       z     vdW  Elec       q    Type
REMARK                         _______ _______ _______ _____ _____    ______ ____
ROOT
ATOM      1  S   UNL     1      34.939 -22.430 -17.456  0.00  0.00    -0.056 S 
ATOM      2  O   UNL     1      32.644 -20.128 -20.807  0.00  0.00    -0.252 OA
ATOM      3  N   UNL     1      32.591 -21.953 -18.425  0.00  0.00    -0.223 NA
ATOM      4  N   UNL     1      34.457 -20.900 -19.528  0.00  0.00    -0.248 N 
ATOM      5  N   UNL     1      34.825 -19.475 -21.341  0.00  0.00    -0.268 N 
ATOM      6  C   UNL     1      33.590 -23.166 -16.692  0.00  0.00    +0.031 C 
ATOM      7  C   UNL     1      32.432 -22.798 -17.344  0.00  0.00    +0.103 C 
ATOM      8  C   UNL     1      33.871 -21.692 -18.577  0.00  0.00    +0.166 C 
ATOM      9  C   UNL     1      33.851 -20.156 -20.592  0.00  0.00    +0.310 C 
ATOM     10  H   UNL     1      35.437 -20.832 -19.472  0.00  0.00    +0.158 HD
ATOM     11  H   UNL     1      35.757 -19.595 -21.046  0.00  0.00    +0.156 HD
ENDROOT
BRANCH   5  13
ATOM     12 CL   UNL     1      34.814 -14.732 -23.308  0.00  0.00    -0.082 Cl
ATOM     13  C   UNL     1      34.631 -18.638 -22.465  0.00  0.00    +0.052 C 
ATOM     14  C   UNL     1      34.800 -17.259 -22.345  0.00  0.00    +0.026 C 
ATOM     15  C   UNL     1      34.271 -19.194 -23.693  0.00  0.00    +0.015 C 
ATOM     16  C   UNL     1      34.607 -16.435 -23.455  0.00  0.00    +0.059 C 
ATOM     17  C   UNL     1      34.079 -18.370 -24.801  0.00  0.00    +0.002 C 
ATOM     18  C   UNL     1      34.247 -16.991 -24.682  0.00  0.00    +0.011 C 
ENDBRANCH   5  13
BRANCH   6  19
ATOM     19  C   UNL     1      33.782 -24.062 -15.493  0.00  0.00    +0.056 C 
BRANCH  19  20
ATOM     20  C   UNL     1      34.658 -23.436 -14.410  0.00  0.00    +0.093 C 
BRANCH  20  22
ATOM     21  S   UNL     1      39.115 -24.463 -15.195  0.00  0.00    -0.101 S 
ATOM     22  N   UNL     1      36.033 -23.790 -14.594  0.00  0.00    -0.320 N 
ATOM     23  N   UNL     1      36.110 -25.106 -12.613  0.00  0.00    -0.233 NA
ATOM     24  N   UNL     1      38.114 -26.260 -11.900  0.00  0.00    -0.247 NA
ATOM     25  C   UNL     1      36.739 -24.616 -13.700  0.00  0.00    +0.118 C 
ATOM     26  C   UNL     1      38.074 -24.937 -13.916  0.00  0.00    +0.145 C 
ATOM     27  C   UNL     1      38.734 -25.757 -13.002  0.00  0.00    +0.073 C 
ATOM     28  C   UNL     1      40.093 -25.984 -13.373  0.00  0.00    +0.022 C 
ATOM     29  C   UNL     1      40.428 -25.340 -14.543  0.00  0.00    +0.033 C 
ATOM     30  C   UNL     1      36.828 -25.889 -11.788  0.00  0.00    +0.251 C 
ATOM     31  H   UNL     1      36.507 -23.440 -15.384  0.00  0.00    +0.148 HD
ENDBRANCH  20  22
ENDBRANCH  19  20
ENDBRANCH   6  19
TORSDOF 4
ENDMDL
MODEL 8
REMARK VINA RESULT:     -10.4      4.600      7.679
REMARK  Name = 24995524
REMARK  4 active torsions:
REMARK  status: ('A' for Active; 'I' for Inactive)
REMARK    1  A    between atoms: N_5  and  C_13
REMARK    2  A    between atoms: C_6  and  C_19
REMARK    3  A    between atoms: C_19  and  C_20
REMARK    4  A    between atoms: C_20  and  N_22
REMARK                            x       y       z     vdW  Elec       q    Type
REMARK                         _______ _______ _______ _____ _____    ______ ____
ROOT
ATOM      1  S   UNL     1      33.917 -15.520 -24.571  0.00  0.00    -0.056 S 
ATOM      2  O   UNL     1      35.063 -17.176 -20.359  0.00  0.00    -0.252 OA
ATOM      3  N   UNL     1      34.538 -14.832 -22.158  0.00  0.00    -0.223 NA
ATOM      4  N   UNL     1      34.464 -17.194 -22.630  0.00  0.00    -0.248 N 
ATOM      5  N   UNL     1      34.808 -19.205 -21.494  0.00  0.00    -0.268 N 
ATOM      6  C   UNL     1      33.978 -13.845 -24.203  0.00  0.00    +0.031 C 
ATOM      7  C   UNL     1      34.324 -13.674 -22.879  0.00  0.00    +0.103 C 
ATOM      8  C   UNL     1      34.352 -15.867 -22.947  0.00  0.00    +0.166 C 
ATOM      9  C   UNL     1      34.807 -17.805 -21.380  0.00  0.00    +0.310 C 
ATOM     10  H   UNL     1      34.282 -17.819 -23.368  0.00  0.00    +0.158 HD
ATOM     11  H   UNL     1      34.581 -19.566 -22.382  0.00  0.00    +0.156 HD
ENDROOT
BRANCH   5  13
ATOM     12 CL   UNL     1      33.053 -22.624 -18.088  0.00  0.00    -0.082 Cl
ATOM     13  C   UNL     1      35.094 -20.159 -20.490  0.00  0.00    +0.052 C 
ATOM     14  C   UNL     1      34.053 -20.841 -19.859  0.00  0.00    +0.026 C 
ATOM     15  C   UNL     1      36.417 -20.418 -20.131  0.00  0.00    +0.015 C 
ATOM     16  C   UNL     1      34.337 -21.782 -18.868  0.00  0.00    +0.059 C 
ATOM     17  C   UNL     1      36.700 -21.358 -19.140  0.00  0.00    +0.002 C 
ATOM     18  C   UNL     1      35.660 -22.040 -18.510  0.00  0.00    +0.011 C 
ENDBRANCH   5  13
BRANCH   6  19
ATOM     19  C   UNL     1      33.678 -12.815 -25.265  0.00  0.00    +0.056 C 
BRANCH  19  20
ATOM     20  C   UNL     1      34.279 -11.445 -24.956  0.00  0.00    +0.093 C 
BRANCH  20  22
ATOM     21  S   UNL     1      31.715  -9.448 -21.643  0.00  0.00    -0.101 S 
ATOM     22  N   UNL     1      33.530 -10.774 -23.937  0.00  0.00    -0.320 N 
ATOM     23  N   UNL     1      34.928  -8.849 -23.974  0.00  0.00    -0.233 NA
ATOM     24  N   UNL     1      34.546  -6.941 -22.534  0.00  0.00    -0.247 NA
ATOM     25  C   UNL     1      33.860  -9.491 -23.461  0.00  0.00    +0.118 C 
ATOM     26  C   UNL     1      33.106  -8.875 -22.469  0.00  0.00    +0.145 C 
ATOM     27  C   UNL     1      33.472  -7.604 -22.027  0.00  0.00    +0.073 C 
ATOM     28  C   UNL     1      32.595  -7.120 -21.011  0.00  0.00    +0.022 C 
ATOM     29  C   UNL     1      31.599  -8.022 -20.709  0.00  0.00    +0.033 C 
ATOM     30  C   UNL     1      35.203  -7.626 -23.485  0.00  0.00    +0.251 C 
ATOM     31  H   UNL     1      32.748 -11.231 -23.551  0.00  0.00    +0.148 HD
ENDBRANCH  20  22
ENDBRANCH  19  20
ENDBRANCH   6  19
TORSDOF 4
ENDMDL
MODEL 9
REMARK VINA RESULT:     -10.3      4.778     11.901
REMARK  Name = 24995524
REMARK  4 active torsions:
REMARK  status: ('A' for Active; 'I' for Inactive)
REMARK    1  A    between atoms: N_5  and  C_13
REMARK    2  A    between atoms: C_6  and  C_19
REMARK    3  A    between atoms: C_19  and  C_20
REMARK    4  A    between atoms: C_20  and  N_22
REMARK                            x       y       z     vdW  Elec       q    Type
REMARK                         _______ _______ _______ _____ _____    ______ ____
ROOT
ATOM      1  S   UNL     1      34.362 -19.878 -21.045  0.00  0.00    -0.056 S 
ATOM      2  O   UNL     1      35.901 -15.929 -23.004  0.00  0.00    -0.252 OA
ATOM      3  N   UNL     1      36.442 -18.375 -21.351  0.00  0.00    -0.223 NA
ATOM      4  N   UNL     1      34.404 -17.637 -22.403  0.00  0.00    -0.248 N 
ATOM      5  N   UNL     1      33.674 -15.845 -23.712  0.00  0.00    -0.268 N 
ATOM      6  C   UNL     1      35.828 -20.377 -20.308  0.00  0.00    +0.031 C 
ATOM      7  C   UNL     1      36.818 -19.456 -20.578  0.00  0.00    +0.103 C 
ATOM      8  C   UNL     1      35.168 -18.492 -21.656  0.00  0.00    +0.166 C 
ATOM      9  C   UNL     1      34.774 -16.409 -23.044  0.00  0.00    +0.310 C 
ATOM     10  H   UNL     1      33.463 -17.904 -22.518  0.00  0.00    +0.158 HD
ATOM     11  H   UNL     1      32.829 -16.349 -23.653  0.00  0.00    +0.156 HD
ENDROOT
BRANCH   5  13
ATOM     12 CL   UNL     1      33.975 -10.720 -23.762  0.00  0.00    -0.082 Cl
ATOM     13  C   UNL     1      33.631 -14.645 -24.457  0.00  0.00    +0.052 C 
ATOM     14  C   UNL     1      33.805 -13.418 -23.816  0.00  0.00    +0.026 C 
ATOM     15  C   UNL     1      33.415 -14.687 -25.835  0.00  0.00    +0.015 C 
ATOM     16  C   UNL     1      33.762 -12.234 -24.554  0.00  0.00    +0.059 C 
ATOM     17  C   UNL     1      33.371 -13.504 -26.572  0.00  0.00    +0.002 C 
ATOM     18  C   UNL     1      33.545 -12.278 -25.930  0.00  0.00    +0.011 C 
ENDBRANCH   5  13
BRANCH   6  19
ATOM     19  C   UNL     1      35.888 -21.655 -19.507  0.00  0.00    +0.056 C 
BRANCH  19  20
ATOM     20  C   UNL     1      34.552 -22.024 -18.866  0.00  0.00    +0.093 C 
BRANCH  20  22
ATOM     21  S   UNL     1      35.394 -23.708 -14.624  0.00  0.00    -0.101 S 
ATOM     22  N   UNL     1      34.743 -22.550 -17.548  0.00  0.00    -0.320 N 
ATOM     23  N   UNL     1      32.410 -22.773 -17.141  0.00  0.00    -0.233 NA
ATOM     24  N   UNL     1      31.533 -23.633 -15.056  0.00  0.00    -0.247 NA
ATOM     25  C   UNL     1      33.677 -22.916 -16.706  0.00  0.00    +0.118 C 
ATOM     26  C   UNL     1      33.906 -23.423 -15.432  0.00  0.00    +0.145 C 
ATOM     27  C   UNL     1      32.819 -23.771 -14.632  0.00  0.00    +0.073 C 
ATOM     28  C   UNL     1      33.231 -24.271 -13.360  0.00  0.00    +0.022 C 
ATOM     29  C   UNL     1      34.601 -24.290 -13.227  0.00  0.00    +0.033 C 
ATOM     30  C   UNL     1      31.425 -23.137 -16.299  0.00  0.00    +0.251 C 
ATOM     31  H   UNL     1      35.664 -22.659 -17.215  0.00  0.00    +0.148 HD
ENDBRANCH  20  22
ENDBRANCH  19  20
ENDBRANCH   6  19
TORSDOF 4
ENDMDL
