MODEL 1
REMARK VINA RESULT:     -11.7      0.000      0.000
REMARK  Name = 42628063
REMARK  6 active torsions:
REMARK  status: ('A' for Active; 'I' for Inactive)
REMARK    1  A    between atoms: C_1  and  N_3
REMARK    2  A    between atoms: C_1  and  C_21
REMARK    3  A    between atoms: C_4  and  N_10
REMARK    4  A    between atoms: C_11  and  C_15
REMARK    5  A    between atoms: N_20  and  C_24
REMARK    6  A    between atoms: C_27  and  N_31
REMARK                            x       y       z     vdW  Elec       q    Type
REMARK                         _______ _______ _______ _____ _____    ______ ____
ROOT
ATOM      1  C   UNL     1      34.095 -17.356 -23.871  0.00  0.00    +0.010 C 
ENDROOT
BRANCH   1   3
ATOM      2  F   UNL     1      37.290 -18.549 -20.970  0.00  0.00    -0.238 F 
ATOM      3  N   UNL     1      34.972 -18.134 -23.008  0.00  0.00    +0.396 N 
ATOM      4  C   UNL     1      35.295 -19.724 -21.353  0.00  0.00    +0.082 C 
ATOM      5  C   UNL     1      35.939 -18.422 -20.887  0.00  0.00    +0.156 C 
ATOM      6  C   UNL     1      34.295 -19.289 -22.417  0.00  0.00    -0.054 C 
ATOM      7  C   UNL     1      35.473 -17.356 -21.870  0.00  0.00    -0.039 C 
ATOM      8  H   UNL     1      35.732 -18.422 -23.624  0.00  0.00    -0.079 HD
BRANCH   4  10
ATOM      9  O   UNL     1      36.577 -21.515 -19.511  0.00  0.00    -0.270 OA
ATOM     10  N   UNL     1      34.666 -20.451 -20.286  0.00  0.00    -0.302 N 
ATOM     11  C   UNL     1      35.370 -21.301 -19.439  0.00  0.00    +0.252 C 
ATOM     12  H   UNL     1      33.698 -20.344 -20.148  0.00  0.00    +0.150 HD
BRANCH  11  15
ATOM     13 CL   UNL     1      33.853 -23.920 -14.809  0.00  0.00    -0.075 Cl
ATOM     14  S   UNL     1      35.341 -22.520 -16.963  0.00  0.00    -0.071 S 
ATOM     15  C   UNL     1      34.569 -21.999 -18.400  0.00  0.00    +0.084 C 
ATOM     16  C   UNL     1      33.228 -22.310 -18.408  0.00  0.00    +0.012 C 
ATOM     17  C   UNL     1      32.827 -22.986 -17.220  0.00  0.00    +0.019 C 
ATOM     18  C   UNL     1      33.879 -23.165 -16.347  0.00  0.00    +0.087 C 
ENDBRANCH  11  15
ENDBRANCH   4  10
ENDBRANCH   1   3
BRANCH   1  21
ATOM     19  O   UNL     1      35.674 -15.535 -23.981  0.00  0.00    -0.277 OA
ATOM     20  N   UNL     1      33.401 -15.085 -23.607  0.00  0.00    -0.284 N 
ATOM     21  C   UNL     1      34.512 -15.895 -23.829  0.00  0.00    +0.205 C 
ATOM     22  H   UNL     1      32.537 -15.546 -23.512  0.00  0.00    +0.155 HD
BRANCH  20  24
ATOM     23  F   UNL     1      32.474 -13.813 -21.306  0.00  0.00    -0.203 F 
ATOM     24  C   UNL     1      33.370 -13.674 -23.503  0.00  0.00    +0.078 C 
ATOM     25  C   UNL     1      32.900 -13.067 -22.337  0.00  0.00    +0.155 C 
ATOM     26  C   UNL     1      33.809 -12.888 -24.568  0.00  0.00    +0.018 C 
ATOM     27  C   UNL     1      33.311 -10.892 -23.302  0.00  0.00    +0.061 C 
ATOM     28  C   UNL     1      32.870 -11.677 -22.237  0.00  0.00    +0.046 C 
ATOM     29  C   UNL     1      33.780 -11.497 -24.467  0.00  0.00    +0.017 C 
BRANCH  27  31
ATOM     30  O   UNL     1      35.570  -9.137 -23.725  0.00  0.00    -0.269 OA
ATOM     31  N   UNL     1      33.280  -9.446 -23.197  0.00  0.00    -0.233 N 
ATOM     32  C   UNL     1      34.471  -8.697 -23.391  0.00  0.00    +0.257 C 
ATOM     33  C   UNL     1      32.083  -8.779 -22.930  0.00  0.00    +0.072 C 
ATOM     34  C   UNL     1      34.361  -7.216 -23.219  0.00  0.00    +0.059 C 
ATOM     35  C   UNL     1      32.003  -7.450 -22.814  0.00  0.00    +0.017 C 
ATOM     36  C   UNL     1      33.181  -6.648 -22.957  0.00  0.00    +0.006 C 
ENDBRANCH  27  31
ENDBRANCH  20  24
ENDBRANCH   1  21
TORSDOF 6
ENDMDL
MODEL 2
REMARK VINA RESULT:     -11.7      3.544      6.062
REMARK  Name = 42628063
REMARK  6 active torsions:
REMARK  status: ('A' for Active; 'I' for Inactive)
REMARK    1  A    between atoms: C_1  and  N_3
REMARK    2  A    between atoms: C_1  and  C_21
REMARK    3  A    between atoms: C_4  and  N_10
REMARK    4  A    between atoms: C_11  and  C_15
REMARK    5  A    between atoms: N_20  and  C_24
REMARK    6  A    between atoms: C_27  and  N_31
REMARK                            x       y       z     vdW  Elec       q    Type
REMARK                         _______ _______ _______ _____ _____    ______ ____
ROOT
ATOM      1  C   UNL     1      35.300 -21.431 -20.071  0.00  0.00    +0.010 C 
ENDROOT
BRANCH   1   3
ATOM      2  F   UNL     1      33.108 -22.651 -16.363  0.00  0.00    -0.238 F 
ATOM      3  N   UNL     1      34.933 -21.651 -18.680  0.00  0.00    +0.396 N 
ATOM      4  C   UNL     1      35.435 -22.410 -16.549  0.00  0.00    +0.082 C 
ATOM      5  C   UNL     1      34.186 -23.145 -17.028  0.00  0.00    +0.156 C 
ATOM      6  C   UNL     1      36.095 -21.914 -17.830  0.00  0.00    -0.054 C 
ATOM      7  C   UNL     1      34.058 -22.816 -18.510  0.00  0.00    -0.039 C 
ATOM      8  H   UNL     1      34.461 -20.789 -18.410  0.00  0.00    -0.079 HD
BRANCH   4  10
ATOM      9  O   UNL     1      35.113 -23.152 -13.795  0.00  0.00    -0.270 OA
ATOM     10  N   UNL     1      36.314 -23.244 -15.777  0.00  0.00    -0.302 N 
ATOM     11  C   UNL     1      36.077 -23.552 -14.442  0.00  0.00    +0.252 C 
ATOM     12  H   UNL     1      37.116 -23.614 -16.211  0.00  0.00    +0.150 HD
BRANCH  11  15
ATOM     13 CL   UNL     1      40.664 -26.456 -13.380  0.00  0.00    -0.075 Cl
ATOM     14  S   UNL     1      38.551 -24.766 -14.602  0.00  0.00    -0.071 S 
ATOM     15  C   UNL     1      37.094 -24.407 -13.777  0.00  0.00    +0.084 C 
ATOM     16  C   UNL     1      37.050 -24.988 -12.529  0.00  0.00    +0.012 C 
ATOM     17  C   UNL     1      38.228 -25.740 -12.246  0.00  0.00    +0.019 C 
ATOM     18  C   UNL     1      39.127 -25.703 -13.290  0.00  0.00    +0.087 C 
ENDBRANCH  11  15
ENDBRANCH   4  10
ENDBRANCH   1   3
BRANCH   1  21
ATOM     19  O   UNL     1      33.355 -20.031 -20.344  0.00  0.00    -0.277 OA
ATOM     20  N   UNL     1      35.363 -19.457 -21.416  0.00  0.00    -0.284 N 
ATOM     21  C   UNL     1      34.534 -20.236 -20.613  0.00  0.00    +0.205 C 
ATOM     22  H   UNL     1      36.290 -19.770 -21.519  0.00  0.00    +0.155 HD
BRANCH  20  24
ATOM     23  F   UNL     1      34.457 -19.495 -24.052  0.00  0.00    -0.203 F 
ATOM     24  C   UNL     1      35.028 -18.264 -22.101  0.00  0.00    +0.078 C 
ATOM     25  C   UNL     1      34.577 -18.318 -23.421  0.00  0.00    +0.155 C 
ATOM     26  C   UNL     1      35.149 -17.034 -21.456  0.00  0.00    +0.018 C 
ATOM     27  C   UNL     1      34.367 -15.912 -23.448  0.00  0.00    +0.061 C 
ATOM     28  C   UNL     1      34.247 -17.142 -24.094  0.00  0.00    +0.046 C 
ATOM     29  C   UNL     1      34.818 -15.858 -22.129  0.00  0.00    +0.017 C 
BRANCH  27  31
ATOM     30  O   UNL     1      33.398 -15.758 -26.168  0.00  0.00    -0.269 OA
ATOM     31  N   UNL     1      34.024 -14.689 -24.147  0.00  0.00    -0.233 N 
ATOM     32  C   UNL     1      33.596 -14.744 -25.499  0.00  0.00    +0.257 C 
ATOM     33  C   UNL     1      34.090 -13.456 -23.495  0.00  0.00    +0.072 C 
ATOM     34  C   UNL     1      33.307 -13.434 -26.160  0.00  0.00    +0.059 C 
ATOM     35  C   UNL     1      33.794 -12.300 -24.098  0.00  0.00    +0.017 C 
ATOM     36  C   UNL     1      33.398 -12.292 -25.474  0.00  0.00    +0.006 C 
ENDBRANCH  27  31
ENDBRANCH  20  24
ENDBRANCH   1  21
TORSDOF 6
ENDMDL
MODEL 3
REMARK VINA RESULT:     -11.5      3.472      5.941
REMARK  Name = 42628063
REMARK  6 active torsions:
REMARK  status: ('A' for Active; 'I' for Inactive)
REMARK    1  A    between atoms: C_1  and  N_3
REMARK    2  A    between atoms: C_1  and  C_21
REMARK    3  A    between atoms: C_4  and  N_10
REMARK    4  A    between atoms: C_11  and  C_15
REMARK    5  A    between atoms: N_20  and  C_24
REMARK    6  A    between atoms: C_27  and  N_31
REMARK                            x       y       z     vdW  Elec       q    Type
REMARK                         _______ _______ _______ _____ _____    ______ ____
ROOT
ATOM      1  C   UNL     1      35.197 -21.439 -20.119  0.00  0.00    +0.010 C 
ENDROOT
BRANCH   1   3
ATOM      2  F   UNL     1      33.034 -22.699 -16.407  0.00  0.00    -0.238 F 
ATOM      3  N   UNL     1      34.834 -21.662 -18.727  0.00  0.00    +0.396 N 
ATOM      4  C   UNL     1      35.354 -22.398 -16.592  0.00  0.00    +0.082 C 
ATOM      5  C   UNL     1      34.126 -23.167 -17.069  0.00  0.00    +0.156 C 
ATOM      6  C   UNL     1      36.002 -21.891 -17.875  0.00  0.00    -0.054 C 
ATOM      7  C   UNL     1      33.989 -22.848 -18.552  0.00  0.00    -0.039 C 
ATOM      8  H   UNL     1      34.340 -20.811 -18.462  0.00  0.00    -0.079 HD
BRANCH   4  10
ATOM      9  O   UNL     1      34.923 -23.362 -13.923  0.00  0.00    -0.270 OA
ATOM     10  N   UNL     1      36.254 -23.206 -15.816  0.00  0.00    -0.302 N 
ATOM     11  C   UNL     1      35.960 -23.628 -14.524  0.00  0.00    +0.252 C 
ATOM     12  H   UNL     1      37.113 -23.471 -16.215  0.00  0.00    +0.150 HD
BRANCH  11  15
ATOM     13 CL   UNL     1      40.641 -26.360 -13.420  0.00  0.00    -0.075 Cl
ATOM     14  S   UNL     1      38.471 -24.764 -14.669  0.00  0.00    -0.071 S 
ATOM     15  C   UNL     1      37.006 -24.436 -13.846  0.00  0.00    +0.084 C 
ATOM     16  C   UNL     1      36.983 -24.994 -12.587  0.00  0.00    +0.012 C 
ATOM     17  C   UNL     1      38.185 -25.702 -12.293  0.00  0.00    +0.019 C 
ATOM     18  C   UNL     1      39.081 -25.656 -13.340  0.00  0.00    +0.087 C 
ENDBRANCH  11  15
ENDBRANCH   4  10
ENDBRANCH   1   3
BRANCH   1  21
ATOM     19  O   UNL     1      33.290 -19.978 -20.344  0.00  0.00    -0.277 OA
ATOM     20  N   UNL     1      35.283 -19.475 -21.478  0.00  0.00    -0.284 N 
ATOM     21  C   UNL     1      34.453 -20.222 -20.646  0.00  0.00    +0.205 C 
ATOM     22  H   UNL     1      36.196 -19.819 -21.605  0.00  0.00    +0.155 HD
BRANCH  20  24
ATOM     23  F   UNL     1      35.325 -17.005 -20.185  0.00  0.00    -0.203 F 
ATOM     24  C   UNL     1      34.966 -18.276 -22.160  0.00  0.00    +0.078 C 
ATOM     25  C   UNL     1      34.997 -17.055 -21.484  0.00  0.00    +0.155 C 
ATOM     26  C   UNL     1      34.622 -18.315 -23.512  0.00  0.00    +0.018 C 
ATOM     27  C   UNL     1      34.341 -15.916 -23.510  0.00  0.00    +0.061 C 
ATOM     28  C   UNL     1      34.684 -15.876 -22.159  0.00  0.00    +0.046 C 
ATOM     29  C   UNL     1      34.310 -17.135 -24.186  0.00  0.00    +0.017 C 
BRANCH  27  31
ATOM     30  O   UNL     1      33.346 -15.754 -26.221  0.00  0.00    -0.269 OA
ATOM     31  N   UNL     1      34.016 -14.689 -24.212  0.00  0.00    -0.233 N 
ATOM     32  C   UNL     1      33.572 -14.741 -25.559  0.00  0.00    +0.257 C 
ATOM     33  C   UNL     1      34.115 -13.455 -23.566  0.00  0.00    +0.072 C 
ATOM     34  C   UNL     1      33.303 -13.429 -26.223  0.00  0.00    +0.059 C 
ATOM     35  C   UNL     1      33.837 -12.296 -24.171  0.00  0.00    +0.017 C 
ATOM     36  C   UNL     1      33.425 -12.286 -25.543  0.00  0.00    +0.006 C 
ENDBRANCH  27  31
ENDBRANCH  20  24
ENDBRANCH   1  21
TORSDOF 6
ENDMDL
MODEL 4
REMARK VINA RESULT:     -11.5      5.621     11.882
REMARK  Name = 42628063
REMARK  6 active torsions:
REMARK  status: ('A' for Active; 'I' for Inactive)
REMARK    1  A    between atoms: C_1  and  N_3
REMARK    2  A    between atoms: C_1  and  C_21
REMARK    3  A    between atoms: C_4  and  N_10
REMARK    4  A    between atoms: C_11  and  C_15
REMARK    5  A    between atoms: N_20  and  C_24
REMARK    6  A    between atoms: C_27  and  N_31
REMARK                            x       y       z     vdW  Elec       q    Type
REMARK                         _______ _______ _______ _____ _____    ______ ____
ROOT
ATOM      1  C   UNL     1      33.570 -12.715 -24.714  0.00  0.00    +0.010 C 
ENDROOT
BRANCH   1   3
ATOM      2  F   UNL     1      36.278  -9.269 -23.803  0.00  0.00    -0.238 F 
ATOM      3  N   UNL     1      34.172 -11.545 -24.094  0.00  0.00    +0.396 N 
ATOM      4  C   UNL     1      34.007  -9.402 -23.228  0.00  0.00    +0.082 C 
ATOM      5  C   UNL     1      35.039  -9.377 -24.351  0.00  0.00    +0.156 C 
ATOM      6  C   UNL     1      33.176 -10.648 -23.508  0.00  0.00    -0.054 C 
ATOM      7  C   UNL     1      34.915 -10.722 -25.055  0.00  0.00    -0.039 C 
ATOM      8  H   UNL     1      34.789 -11.932 -23.382  0.00  0.00    -0.079 HD
BRANCH   4  10
ATOM      9  O   UNL     1      32.952  -8.138 -20.876  0.00  0.00    -0.270 OA
ATOM     10  N   UNL     1      33.201  -8.214 -23.181  0.00  0.00    -0.302 N 
ATOM     11  C   UNL     1      32.732  -7.671 -21.989  0.00  0.00    +0.252 C 
ATOM     12  H   UNL     1      32.971  -7.765 -24.026  0.00  0.00    +0.150 HD
BRANCH  11  15
ATOM     13 CL   UNL     1      30.466  -2.975 -23.837  0.00  0.00    -0.075 Cl
ATOM     14  S   UNL     1      32.092  -5.432 -23.472  0.00  0.00    -0.071 S 
ATOM     15  C   UNL     1      31.889  -6.453 -22.112  0.00  0.00    +0.084 C 
ATOM     16  C   UNL     1      30.914  -5.989 -21.258  0.00  0.00    +0.012 C 
ATOM     17  C   UNL     1      30.324  -4.778 -21.725  0.00  0.00    +0.019 C 
ATOM     18  C   UNL     1      30.872  -4.364 -22.920  0.00  0.00    +0.087 C 
ENDBRANCH  11  15
ENDBRANCH   4  10
ENDBRANCH   1   3
BRANCH   1  21
ATOM     19  O   UNL     1      32.495 -13.793 -22.843  0.00  0.00    -0.277 OA
ATOM     20  N   UNL     1      34.389 -14.776 -23.822  0.00  0.00    -0.284 N 
ATOM     21  C   UNL     1      33.399 -13.808 -23.672  0.00  0.00    +0.205 C 
ATOM     22  H   UNL     1      35.035 -14.628 -24.549  0.00  0.00    +0.155 HD
BRANCH  20  24
ATOM     23  F   UNL     1      34.413 -17.305 -24.995  0.00  0.00    -0.203 F 
ATOM     24  C   UNL     1      34.574 -15.948 -23.051  0.00  0.00    +0.078 C 
ATOM     25  C   UNL     1      34.581 -17.199 -23.668  0.00  0.00    +0.155 C 
ATOM     26  C   UNL     1      34.748 -15.851 -21.670  0.00  0.00    +0.018 C 
ATOM     27  C   UNL     1      34.938 -18.255 -21.526  0.00  0.00    +0.061 C 
ATOM     28  C   UNL     1      34.763 -18.352 -22.906  0.00  0.00    +0.046 C 
ATOM     29  C   UNL     1      34.931 -17.005 -20.908  0.00  0.00    +0.017 C 
BRANCH  27  31
ATOM     30  O   UNL     1      37.473 -19.204 -20.508  0.00  0.00    -0.269 OA
ATOM     31  N   UNL     1      35.127 -19.455 -20.733  0.00  0.00    -0.233 N 
ATOM     32  C   UNL     1      36.433 -19.835 -20.326  0.00  0.00    +0.257 C 
ATOM     33  C   UNL     1      34.032 -20.229 -20.346  0.00  0.00    +0.072 C 
ATOM     34  C   UNL     1      36.544 -21.109 -19.551  0.00  0.00    +0.059 C 
ATOM     35  C   UNL     1      34.154 -21.348 -19.624  0.00  0.00    +0.017 C 
ATOM     36  C   UNL     1      35.451 -21.802 -19.223  0.00  0.00    +0.006 C 
ENDBRANCH  27  31
ENDBRANCH  20  24
ENDBRANCH   1  21
TORSDOF 6
ENDMDL
MODEL 5
REMARK VINA RESULT:     -10.9      1.396      1.880
REMARK  Name = 42628063
REMARK  6 active torsions:
REMARK  status: ('A' for Active; 'I' for Inactive)
REMARK    1  A    between atoms: C_1  and  N_3
REMARK    2  A    between atoms: C_1  and  C_21
REMARK    3  A    between atoms: C_4  and  N_10
REMARK    4  A    between atoms: C_11  and  C_15
REMARK    5  A    between atoms: N_20  and  C_24
REMARK    6  A    between atoms: C_27  and  N_31
REMARK                            x       y       z     vdW  Elec       q    Type
REMARK                         _______ _______ _______ _____ _____    ______ ____
ROOT
ATOM      1  C   UNL     1      34.078 -17.444 -23.918  0.00  0.00    +0.010 C 
ENDROOT
BRANCH   1   3
ATOM      2  F   UNL     1      37.403 -18.765 -21.227  0.00  0.00    -0.238 F 
ATOM      3  N   UNL     1      34.971 -18.256 -23.104  0.00  0.00    +0.396 N 
ATOM      4  C   UNL     1      35.324 -19.833 -21.444  0.00  0.00    +0.082 C 
ATOM      5  C   UNL     1      36.070 -18.561 -21.051  0.00  0.00    +0.156 C 
ATOM      6  C   UNL     1      34.276 -19.361 -22.444  0.00  0.00    -0.054 C 
ATOM      7  C   UNL     1      35.593 -17.488 -22.020  0.00  0.00    -0.039 C 
ATOM      8  H   UNL     1      35.668 -18.595 -23.766  0.00  0.00    -0.079 HD
BRANCH   4  10
ATOM      9  O   UNL     1      36.666 -21.561 -19.585  0.00  0.00    -0.270 OA
ATOM     10  N   UNL     1      34.735 -20.508 -20.321  0.00  0.00    -0.302 N 
ATOM     11  C   UNL     1      35.465 -21.330 -19.470  0.00  0.00    +0.252 C 
ATOM     12  H   UNL     1      33.775 -20.382 -20.146  0.00  0.00    +0.150 HD
BRANCH  11  15
ATOM     13 CL   UNL     1      31.361 -23.317 -16.341  0.00  0.00    -0.075 Cl
ATOM     14  S   UNL     1      32.996 -22.051 -18.470  0.00  0.00    -0.071 S 
ATOM     15  C   UNL     1      34.704 -21.974 -18.369  0.00  0.00    +0.084 C 
ATOM     16  C   UNL     1      35.180 -22.555 -17.215  0.00  0.00    +0.012 C 
ATOM     17  C   UNL     1      34.130 -23.069 -16.401  0.00  0.00    +0.019 C 
ATOM     18  C   UNL     1      32.890 -22.862 -16.966  0.00  0.00    +0.087 C 
ENDBRANCH  11  15
ENDBRANCH   4  10
ENDBRANCH   1   3
BRANCH   1  21
ATOM     19  O   UNL     1      35.727 -15.692 -24.091  0.00  0.00    -0.277 OA
ATOM     20  N   UNL     1      33.483 -15.143 -23.670  0.00  0.00    -0.284 N 
ATOM     21  C   UNL     1      34.555 -16.001 -23.906  0.00  0.00    +0.205 C 
ATOM     22  H   UNL     1      32.604 -15.567 -23.549  0.00  0.00    +0.155 HD
BRANCH  20  24
ATOM     23  F   UNL     1      33.871 -13.554 -25.928  0.00  0.00    -0.203 F 
ATOM     24  C   UNL     1      33.513 -13.731 -23.585  0.00  0.00    +0.078 C 
ATOM     25  C   UNL     1      33.709 -12.963 -24.734  0.00  0.00    +0.155 C 
ATOM     26  C   UNL     1      33.346 -13.105 -22.350  0.00  0.00    +0.018 C 
ATOM     27  C   UNL     1      33.569 -10.947 -23.413  0.00  0.00    +0.061 C 
ATOM     28  C   UNL     1      33.737 -11.572 -24.648  0.00  0.00    +0.046 C 
ATOM     29  C   UNL     1      33.374 -11.713 -22.264  0.00  0.00    +0.017 C 
BRANCH  27  31
ATOM     30  O   UNL     1      31.403  -9.286 -22.456  0.00  0.00    -0.269 OA
ATOM     31  N   UNL     1      33.599  -9.500 -23.323  0.00  0.00    -0.233 N 
ATOM     32  C   UNL     1      32.452  -8.795 -22.872  0.00  0.00    +0.257 C 
ATOM     33  C   UNL     1      34.756  -8.792 -23.655  0.00  0.00    +0.072 C 
ATOM     34  C   UNL     1      32.551  -7.303 -22.854  0.00  0.00    +0.059 C 
ATOM     35  C   UNL     1      34.831  -7.458 -23.598  0.00  0.00    +0.017 C 
ATOM     36  C   UNL     1      33.690  -6.694 -23.191  0.00  0.00    +0.006 C 
ENDBRANCH  27  31
ENDBRANCH  20  24
ENDBRANCH   1  21
TORSDOF 6
ENDMDL
MODEL 6
REMARK VINA RESULT:     -10.9      4.746     12.402
REMARK  Name = 42628063
REMARK  6 active torsions:
REMARK  status: ('A' for Active; 'I' for Inactive)
REMARK    1  A    between atoms: C_1  and  N_3
REMARK    2  A    between atoms: C_1  and  C_21
REMARK    3  A    between atoms: C_4  and  N_10
REMARK    4  A    between atoms: C_11  and  C_15
REMARK    5  A    between atoms: N_20  and  C_24
REMARK    6  A    between atoms: C_27  and  N_31
REMARK                            x       y       z     vdW  Elec       q    Type
REMARK                         _______ _______ _______ _____ _____    ______ ____
ROOT
ATOM      1  C   UNL     1      33.763 -20.869 -20.526  0.00  0.00    +0.010 C 
ENDROOT
BRANCH   1   3
ATOM      2  F   UNL     1      37.490 -18.508 -21.284  0.00  0.00    -0.238 F 
ATOM      3  N   UNL     1      34.724 -19.782 -20.631  0.00  0.00    +0.396 N 
ATOM      4  C   UNL     1      35.305 -17.654 -21.340  0.00  0.00    +0.082 C 
ATOM      5  C   UNL     1      36.305 -18.638 -21.938  0.00  0.00    +0.156 C 
ATOM      6  C   UNL     1      34.095 -18.511 -20.992  0.00  0.00    -0.054 C 
ATOM      7  C   UNL     1      35.731 -20.023 -21.669  0.00  0.00    -0.039 C 
ATOM      8  H   UNL     1      35.148 -19.738 -19.705  0.00  0.00    -0.079 HD
BRANCH   4  10
ATOM      9  O   UNL     1      34.357 -15.044 -20.612  0.00  0.00    -0.270 OA
ATOM     10  N   UNL     1      34.968 -16.582 -22.236  0.00  0.00    -0.302 N 
ATOM     11  C   UNL     1      34.514 -15.345 -21.792  0.00  0.00    +0.252 C 
ATOM     12  H   UNL     1      35.063 -16.730 -23.204  0.00  0.00    +0.150 HD
BRANCH  11  15
ATOM     13 CL   UNL     1      33.096 -13.020 -26.606  0.00  0.00    -0.075 Cl
ATOM     14  S   UNL     1      33.780 -14.904 -24.415  0.00  0.00    -0.071 S 
ATOM     15  C   UNL     1      34.185 -14.351 -22.846  0.00  0.00    +0.084 C 
ATOM     16  C   UNL     1      34.149 -12.978 -22.755  0.00  0.00    +0.012 C 
ATOM     17  C   UNL     1      33.786 -12.369 -23.992  0.00  0.00    +0.019 C 
ATOM     18  C   UNL     1      33.556 -13.302 -24.979  0.00  0.00    +0.087 C 
ENDBRANCH  11  15
ENDBRANCH   4  10
ENDBRANCH   1   3
BRANCH   1  21
ATOM     19  O   UNL     1      32.776 -21.690 -18.483  0.00  0.00    -0.277 OA
ATOM     20  N   UNL     1      35.113 -21.622 -18.703  0.00  0.00    -0.284 N 
ATOM     21  C   UNL     1      33.795 -21.439 -19.118  0.00  0.00    +0.205 C 
ATOM     22  H   UNL     1      35.811 -21.370 -19.349  0.00  0.00    +0.155 HD
BRANCH  20  24
ATOM     23  F   UNL     1      37.553 -20.839 -17.607  0.00  0.00    -0.203 F 
ATOM     24  C   UNL     1      35.563 -22.130 -17.462  0.00  0.00    +0.078 C 
ATOM     25  C   UNL     1      36.790 -21.718 -16.940  0.00  0.00    +0.155 C 
ATOM     26  C   UNL     1      34.779 -23.045 -16.759  0.00  0.00    +0.018 C 
ATOM     27  C   UNL     1      36.447 -23.133 -15.013  0.00  0.00    +0.061 C 
ATOM     28  C   UNL     1      37.232 -22.219 -15.716  0.00  0.00    +0.046 C 
ATOM     29  C   UNL     1      35.221 -23.546 -15.534  0.00  0.00    +0.017 C 
BRANCH  27  31
ATOM     30  O   UNL     1      37.825 -25.648 -14.636  0.00  0.00    -0.269 OA
ATOM     31  N   UNL     1      36.907 -23.655 -13.740  0.00  0.00    -0.233 N 
ATOM     32  C   UNL     1      37.537 -24.925 -13.683  0.00  0.00    +0.257 C 
ATOM     33  C   UNL     1      36.754 -22.907 -12.571  0.00  0.00    +0.072 C 
ATOM     34  C   UNL     1      37.938 -25.409 -12.325  0.00  0.00    +0.059 C 
ATOM     35  C   UNL     1      37.151 -23.347 -11.372  0.00  0.00    +0.017 C 
ATOM     36  C   UNL     1      37.755 -24.640 -11.249  0.00  0.00    +0.006 C 
ENDBRANCH  27  31
ENDBRANCH  20  24
ENDBRANCH   1  21
TORSDOF 6
ENDMDL
MODEL 7
REMARK VINA RESULT:     -10.9      4.608     11.187
REMARK  Name = 42628063
REMARK  6 active torsions:
REMARK  status: ('A' for Active; 'I' for Inactive)
REMARK    1  A    between atoms: C_1  and  N_3
REMARK    2  A    between atoms: C_1  and  C_21
REMARK    3  A    between atoms: C_4  and  N_10
REMARK    4  A    between atoms: C_11  and  C_15
REMARK    5  A    between atoms: N_20  and  C_24
REMARK    6  A    between atoms: C_27  and  N_31
REMARK                            x       y       z     vdW  Elec       q    Type
REMARK                         _______ _______ _______ _____ _____    ______ ____
ROOT
ATOM      1  C   UNL     1      33.950 -18.073 -24.293  0.00  0.00    +0.010 C 
ENDROOT
BRANCH   1   3
ATOM      2  F   UNL     1      34.087 -14.121 -26.392  0.00  0.00    -0.238 F 
ATOM      3  N   UNL     1      34.185 -16.672 -24.608  0.00  0.00    +0.396 N 
ATOM      4  C   UNL     1      34.045 -14.423 -24.065  0.00  0.00    +0.082 C 
ATOM      5  C   UNL     1      33.321 -14.633 -25.392  0.00  0.00    +0.156 C 
ATOM      6  C   UNL     1      34.078 -15.808 -23.431  0.00  0.00    -0.054 C 
ATOM      7  C   UNL     1      33.209 -16.142 -25.566  0.00  0.00    -0.039 C 
ATOM      8  H   UNL     1      35.128 -16.660 -24.994  0.00  0.00    -0.079 HD
BRANCH   4  10
ATOM      9  O   UNL     1      33.982 -11.579 -24.448  0.00  0.00    -0.270 OA
ATOM     10  N   UNL     1      33.398 -13.458 -23.220  0.00  0.00    -0.302 N 
ATOM     11  C   UNL     1      33.420 -12.093 -23.485  0.00  0.00    +0.252 C 
ATOM     12  H   UNL     1      32.919 -13.775 -22.421  0.00  0.00    +0.150 HD
BRANCH  11  15
ATOM     13 CL   UNL     1      31.554  -7.680 -20.722  0.00  0.00    -0.075 Cl
ATOM     14  S   UNL     1      32.897  -9.524 -22.621  0.00  0.00    -0.071 S 
ATOM     15  C   UNL     1      32.724 -11.223 -22.501  0.00  0.00    +0.084 C 
ATOM     16  C   UNL     1      31.913 -11.588 -21.450  0.00  0.00    +0.012 C 
ATOM     17  C   UNL     1      31.428 -10.458 -20.730  0.00  0.00    +0.019 C 
ATOM     18  C   UNL     1      31.886  -9.271 -21.262  0.00  0.00    +0.087 C 
ENDBRANCH  11  15
ENDBRANCH   4  10
ENDBRANCH   1   3
BRANCH   1  21
ATOM     19  O   UNL     1      35.782 -17.890 -22.734  0.00  0.00    -0.277 OA
ATOM     20  N   UNL     1      34.096 -19.482 -22.369  0.00  0.00    -0.284 N 
ATOM     21  C   UNL     1      34.738 -18.451 -23.050  0.00  0.00    +0.205 C 
ATOM     22  H   UNL     1      33.258 -19.811 -22.766  0.00  0.00    +0.155 HD
BRANCH  20  24
ATOM     23  F   UNL     1      32.249 -20.504 -20.548  0.00  0.00    -0.203 F 
ATOM     24  C   UNL     1      34.509 -20.112 -21.171  0.00  0.00    +0.078 C 
ATOM     25  C   UNL     1      33.559 -20.614 -20.279  0.00  0.00    +0.155 C 
ATOM     26  C   UNL     1      35.868 -20.231 -20.880  0.00  0.00    +0.018 C 
ATOM     27  C   UNL     1      35.327 -21.354 -18.810  0.00  0.00    +0.061 C 
ATOM     28  C   UNL     1      33.968 -21.234 -19.100  0.00  0.00    +0.046 C 
ATOM     29  C   UNL     1      36.277 -20.853 -19.700  0.00  0.00    +0.017 C 
BRANCH  27  31
ATOM     30  O   UNL     1      33.766 -23.259 -17.294  0.00  0.00    -0.269 OA
ATOM     31  N   UNL     1      35.753 -21.999 -17.583  0.00  0.00    -0.233 N 
ATOM     32  C   UNL     1      34.875 -22.889 -16.910  0.00  0.00    +0.257 C 
ATOM     33  C   UNL     1      37.030 -21.769 -17.068  0.00  0.00    +0.072 C 
ATOM     34  C   UNL     1      35.375 -23.474 -15.628  0.00  0.00    +0.059 C 
ATOM     35  C   UNL     1      37.467 -22.331 -15.936  0.00  0.00    +0.017 C 
ATOM     36  C   UNL     1      36.608 -23.204 -15.193  0.00  0.00    +0.006 C 
ENDBRANCH  27  31
ENDBRANCH  20  24
ENDBRANCH   1  21
TORSDOF 6
ENDMDL
MODEL 8
REMARK VINA RESULT:     -10.8      4.497     11.378
REMARK  Name = 42628063
REMARK  6 active torsions:
REMARK  status: ('A' for Active; 'I' for Inactive)
REMARK    1  A    between atoms: C_1  and  N_3
REMARK    2  A    between atoms: C_1  and  C_21
REMARK    3  A    between atoms: C_4  and  N_10
REMARK    4  A    between atoms: C_11  and  C_15
REMARK    5  A    between atoms: N_20  and  C_24
REMARK    6  A    between atoms: C_27  and  N_31
REMARK                            x       y       z     vdW  Elec       q    Type
REMARK                         _______ _______ _______ _____ _____    ______ ____
ROOT
ATOM      1  C   UNL     1      36.485 -18.996 -22.256  0.00  0.00    +0.010 C 
ENDROOT
BRANCH   1   3
ATOM      2  F   UNL     1      33.842 -16.922 -25.214  0.00  0.00    -0.238 F 
ATOM      3  N   UNL     1      35.843 -17.979 -23.075  0.00  0.00    +0.396 N 
ATOM      4  C   UNL     1      34.769 -15.938 -23.296  0.00  0.00    +0.082 C 
ATOM      5  C   UNL     1      33.849 -17.017 -23.858  0.00  0.00    +0.156 C 
ATOM      6  C   UNL     1      35.724 -16.696 -22.383  0.00  0.00    -0.054 C 
ATOM      7  C   UNL     1      34.473 -18.345 -23.450  0.00  0.00    -0.039 C 
ATOM      8  H   UNL     1      36.445 -17.906 -23.895  0.00  0.00    -0.079 HD
BRANCH   4  10
ATOM      9  O   UNL     1      33.505 -13.638 -24.460  0.00  0.00    -0.270 OA
ATOM     10  N   UNL     1      34.059 -14.903 -22.597  0.00  0.00    -0.302 N 
ATOM     11  C   UNL     1      33.476 -13.821 -23.246  0.00  0.00    +0.252 C 
ATOM     12  H   UNL     1      33.981 -14.964 -21.618  0.00  0.00    +0.150 HD
BRANCH  11  15
ATOM     13 CL   UNL     1      31.554  -9.077 -21.149  0.00  0.00    -0.075 Cl
ATOM     14  S   UNL     1      32.872 -11.165 -22.797  0.00  0.00    -0.071 S 
ATOM     15  C   UNL     1      32.798 -12.824 -22.378  0.00  0.00    +0.084 C 
ATOM     16  C   UNL     1      32.077 -13.034 -21.223  0.00  0.00    +0.012 C 
ATOM     17  C   UNL     1      31.578 -11.817 -20.675  0.00  0.00    +0.019 C 
ATOM     18  C   UNL     1      31.937 -10.723 -21.432  0.00  0.00    +0.087 C 
ENDBRANCH  11  15
ENDBRANCH   4  10
ENDBRANCH   1   3
BRANCH   1  21
ATOM     19  O   UNL     1      34.975 -18.380 -20.478  0.00  0.00    -0.277 OA
ATOM     20  N   UNL     1      35.748 -20.591 -20.636  0.00  0.00    -0.284 N 
ATOM     21  C   UNL     1      35.642 -19.256 -21.019  0.00  0.00    +0.205 C 
ATOM     22  H   UNL     1      36.327 -21.159 -21.192  0.00  0.00    +0.155 HD
BRANCH  20  24
ATOM     23  F   UNL     1      32.976 -20.856 -20.500  0.00  0.00    -0.203 F 
ATOM     24  C   UNL     1      35.118 -21.226 -19.539  0.00  0.00    +0.078 C 
ATOM     25  C   UNL     1      33.728 -21.343 -19.501  0.00  0.00    +0.155 C 
ATOM     26  C   UNL     1      35.889 -21.736 -18.494  0.00  0.00    +0.018 C 
ATOM     27  C   UNL     1      33.881 -22.479 -17.376  0.00  0.00    +0.061 C 
ATOM     28  C   UNL     1      33.110 -21.969 -18.420  0.00  0.00    +0.046 C 
ATOM     29  C   UNL     1      35.270 -22.363 -17.413  0.00  0.00    +0.017 C 
BRANCH  27  31
ATOM     30  O   UNL     1      31.029 -22.566 -16.900  0.00  0.00    -0.269 OA
ATOM     31  N   UNL     1      33.238 -23.131 -16.251  0.00  0.00    -0.233 N 
ATOM     32  C   UNL     1      31.827 -23.068 -16.108  0.00  0.00    +0.257 C 
ATOM     33  C   UNL     1      33.994 -23.840 -15.315  0.00  0.00    +0.072 C 
ATOM     34  C   UNL     1      31.250 -23.726 -14.896  0.00  0.00    +0.059 C 
ATOM     35  C   UNL     1      33.451 -24.449 -14.256  0.00  0.00    +0.017 C 
ATOM     36  C   UNL     1      32.037 -24.382 -14.039  0.00  0.00    +0.006 C 
ENDBRANCH  27  31
ENDBRANCH  20  24
ENDBRANCH   1  21
TORSDOF 6
ENDMDL
MODEL 9
REMARK VINA RESULT:     -10.6      4.640     11.930
REMARK  Name = 42628063
REMARK  6 active torsions:
REMARK  status: ('A' for Active; 'I' for Inactive)
REMARK    1  A    between atoms: C_1  and  N_3
REMARK    2  A    between atoms: C_1  and  C_21
REMARK    3  A    between atoms: C_4  and  N_10
REMARK    4  A    between atoms: C_11  and  C_15
REMARK    5  A    between atoms: N_20  and  C_24
REMARK    6  A    between atoms: C_27  and  N_31
REMARK                            x       y       z     vdW  Elec       q    Type
REMARK                         _______ _______ _______ _____ _____    ______ ____
ROOT
ATOM      1  C   UNL     1      34.817 -19.841 -21.756  0.00  0.00    +0.010 C 
ENDROOT
BRANCH   1   3
ATOM      2  F   UNL     1      35.724 -16.329 -24.381  0.00  0.00    -0.238 F 
ATOM      3  N   UNL     1      35.193 -18.517 -22.229  0.00  0.00    +0.396 N 
ATOM      4  C   UNL     1      34.998 -16.209 -22.152  0.00  0.00    +0.082 C 
ATOM      5  C   UNL     1      34.680 -16.661 -23.574  0.00  0.00    +0.156 C 
ATOM      6  C   UNL     1      34.787 -17.457 -21.305  0.00  0.00    -0.054 C 
ATOM      7  C   UNL     1      34.559 -18.178 -23.507  0.00  0.00    -0.039 C 
ATOM      8  H   UNL     1      36.207 -18.565 -22.318  0.00  0.00    -0.079 HD
BRANCH   4  10
ATOM      9  O   UNL     1      34.134 -13.976 -23.737  0.00  0.00    -0.270 OA
ATOM     10  N   UNL     1      34.177 -15.114 -21.716  0.00  0.00    -0.302 N 
ATOM     11  C   UNL     1      33.806 -14.070 -22.557  0.00  0.00    +0.252 C 
ATOM     12  H   UNL     1      33.862 -15.102 -20.783  0.00  0.00    +0.150 HD
BRANCH  11  15
ATOM     13 CL   UNL     1      31.285  -9.246 -21.578  0.00  0.00    -0.075 Cl
ATOM     14  S   UNL     1      32.915 -11.462 -22.694  0.00  0.00    -0.071 S 
ATOM     15  C   UNL     1      32.974 -13.001 -21.947  0.00  0.00    +0.084 C 
ATOM     16  C   UNL     1      32.196 -13.056 -20.811  0.00  0.00    +0.012 C 
ATOM     17  C   UNL     1      31.543 -11.816 -20.550  0.00  0.00    +0.019 C 
ATOM     18  C   UNL     1      31.847 -10.862 -21.497  0.00  0.00    +0.087 C 
ENDBRANCH  11  15
ENDBRANCH   4  10
ENDBRANCH   1   3
BRANCH   1  21
ATOM     19  O   UNL     1      36.602 -19.579 -20.155  0.00  0.00    -0.277 OA
ATOM     20  N   UNL     1      34.887 -21.128 -19.744  0.00  0.00    -0.284 N 
ATOM     21  C   UNL     1      35.562 -20.148 -20.468  0.00  0.00    +0.205 C 
ATOM     22  H   UNL     1      34.058 -21.473 -20.146  0.00  0.00    +0.155 HD
BRANCH  20  24
ATOM     23  F   UNL     1      33.098 -22.649 -18.242  0.00  0.00    -0.203 F 
ATOM     24  C   UNL     1      35.255 -21.686 -18.496  0.00  0.00    +0.078 C 
ATOM     25  C   UNL     1      34.335 -22.442 -17.769  0.00  0.00    +0.155 C 
ATOM     26  C   UNL     1      36.539 -21.478 -17.993  0.00  0.00    +0.018 C 
ATOM     27  C   UNL     1      35.985 -22.783 -16.038  0.00  0.00    +0.061 C 
ATOM     28  C   UNL     1      34.700 -22.991 -16.540  0.00  0.00    +0.046 C 
ATOM     29  C   UNL     1      36.904 -22.027 -16.764  0.00  0.00    +0.017 C 
BRANCH  27  31
ATOM     30  O   UNL     1      38.643 -23.675 -15.328  0.00  0.00    -0.269 OA
ATOM     31  N   UNL     1      36.364 -23.354 -14.760  0.00  0.00    -0.233 N 
ATOM     32  C   UNL     1      37.698 -23.791 -14.548  0.00  0.00    +0.257 C 
ATOM     33  C   UNL     1      35.433 -23.457 -13.724  0.00  0.00    +0.072 C 
ATOM     34  C   UNL     1      37.993 -24.409 -13.219  0.00  0.00    +0.059 C 
ATOM     35  C   UNL     1      35.730 -23.983 -12.532  0.00  0.00    +0.017 C 
ATOM     36  C   UNL     1      37.049 -24.480 -12.277  0.00  0.00    +0.006 C 
ENDBRANCH  27  31
ENDBRANCH  20  24
ENDBRANCH   1  21
TORSDOF 6
ENDMDL
