MODEL 1
REMARK VINA RESULT:     -11.9      0.000      0.000
REMARK  Name = 15602701
REMARK  5 active torsions:
REMARK  status: ('A' for Active; 'I' for Inactive)
REMARK    1  A    between atoms: N_5  and  C_12
REMARK    2  A    between atoms: C_6  and  C_22
REMARK    3  A    between atoms: C_13  and  C_21
REMARK    4  A    between atoms: C_22  and  C_23
REMARK    5  A    between atoms: C_23  and  N_24
REMARK                            x       y       z     vdW  Elec       q    Type
REMARK                         _______ _______ _______ _____ _____    ______ ____
ROOT
ATOM      1  S   UNL     1      36.473 -20.580 -19.584  0.00  0.00    -0.056 S 
ATOM      2  O   UNL     1      35.207 -23.354 -16.083  0.00  0.00    -0.252 OA
ATOM      3  N   UNL     1      34.495 -21.859 -18.519  0.00  0.00    -0.223 NA
ATOM      4  N   UNL     1      36.629 -22.044 -17.416  0.00  0.00    -0.248 N 
ATOM      5  N   UNL     1      37.468 -23.114 -15.543  0.00  0.00    -0.268 N 
ATOM      6  C   UNL     1      34.945 -20.488 -20.318  0.00  0.00    +0.031 C 
ATOM      7  C   UNL     1      34.017 -21.209 -19.640  0.00  0.00    +0.103 C 
ATOM      8  C   UNL     1      35.777 -21.599 -18.391  0.00  0.00    +0.166 C 
ATOM      9  C   UNL     1      36.317 -22.890 -16.318  0.00  0.00    +0.310 C 
ATOM     10  H   UNL     1      37.565 -21.742 -17.482  0.00  0.00    +0.158 HD
ATOM     11  H   UNL     1      38.291 -22.673 -15.856  0.00  0.00    +0.156 HD
ENDROOT
BRANCH   5  12
ATOM     12  C   UNL     1      37.589 -23.895 -14.370  0.00  0.00    +0.052 C 
ATOM     13  C   UNL     1      36.873 -24.408 -12.138  0.00  0.00    +0.073 C 
ATOM     14  C   UNL     1      36.753 -23.638 -13.295  0.00  0.00    +0.019 C 
ATOM     15  C   UNL     1      38.539 -24.901 -14.320  0.00  0.00    +0.015 C 
ATOM     16  C   UNL     1      37.825 -25.426 -12.072  0.00  0.00    +0.004 C 
ATOM     17  C   UNL     1      38.659 -25.672 -13.163  0.00  0.00    +0.001 C 
BRANCH  13  21
ATOM     18  F   UNL     1      35.529 -25.282 -10.361  0.00  0.00    -0.166 F 
ATOM     19  F   UNL     1      36.579 -23.423  -9.979  0.00  0.00    -0.166 F 
ATOM     20  F   UNL     1      34.862 -23.444 -11.313  0.00  0.00    -0.166 F 
ATOM     21  C   UNL     1      35.981 -24.146 -10.971  0.00  0.00    +0.419 C 
ENDBRANCH  13  21
ENDBRANCH   5  12
BRANCH   6  22
ATOM     22  C   UNL     1      34.768 -19.663 -21.572  0.00  0.00    +0.056 C 
BRANCH  22  23
ATOM     23  C   UNL     1      35.841 -18.586 -21.724  0.00  0.00    +0.093 C 
BRANCH  23  24
ATOM     24  N   UNL     1      35.260 -17.276 -21.719  0.00  0.00    -0.320 N 
ATOM     25  N   UNL     1      33.992 -14.472 -21.856  0.00  0.00    -0.220 N 
ATOM     26  N   UNL     1      33.419 -13.332 -22.286  0.00  0.00    -0.178 NA
ATOM     27  N   UNL     1      34.879 -17.262 -24.079  0.00  0.00    -0.232 NA
ATOM     28  N   UNL     1      33.858 -15.369 -25.226  0.00  0.00    -0.245 NA
ATOM     29  C   UNL     1      34.237 -15.375 -22.848  0.00  0.00    +0.185 C 
ATOM     30  C   UNL     1      34.792 -16.641 -22.881  0.00  0.00    +0.128 C 
ATOM     31  C   UNL     1      33.785 -14.775 -24.012  0.00  0.00    +0.103 C 
ATOM     32  C   UNL     1      33.295 -13.522 -23.604  0.00  0.00    +0.134 C 
ATOM     33  C   UNL     1      34.279 -14.617 -20.447  0.00  0.00    +0.135 C 
ATOM     34  C   UNL     1      34.413 -16.597 -25.162  0.00  0.00    +0.251 C 
ATOM     35  H   UNL     1      35.185 -16.800 -20.861  0.00  0.00    +0.148 HD
ENDBRANCH  23  24
ENDBRANCH  22  23
ENDBRANCH   6  22
TORSDOF 5
ENDMDL
MODEL 2
REMARK VINA RESULT:     -11.6      5.227     11.773
REMARK  Name = 15602701
REMARK  5 active torsions:
REMARK  status: ('A' for Active; 'I' for Inactive)
REMARK    1  A    between atoms: N_5  and  C_12
REMARK    2  A    between atoms: C_6  and  C_22
REMARK    3  A    between atoms: C_13  and  C_21
REMARK    4  A    between atoms: C_22  and  C_23
REMARK    5  A    between atoms: C_23  and  N_24
REMARK                            x       y       z     vdW  Elec       q    Type
REMARK                         _______ _______ _______ _____ _____    ______ ____
ROOT
ATOM      1  S   UNL     1      34.145 -23.124 -16.481  0.00  0.00    -0.056 S 
ATOM      2  O   UNL     1      32.425 -20.641 -20.007  0.00  0.00    -0.252 OA
ATOM      3  N   UNL     1      31.973 -22.313 -17.624  0.00  0.00    -0.223 NA
ATOM      4  N   UNL     1      34.053 -21.617 -18.623  0.00  0.00    -0.248 N 
ATOM      5  N   UNL     1      34.701 -20.341 -20.441  0.00  0.00    -0.268 N 
ATOM      6  C   UNL     1      32.649 -23.583 -15.822  0.00  0.00    +0.031 C 
ATOM      7  C   UNL     1      31.610 -23.080 -16.535  0.00  0.00    +0.103 C 
ATOM      8  C   UNL     1      33.284 -22.268 -17.694  0.00  0.00    +0.166 C 
ATOM      9  C   UNL     1      33.601 -20.842 -19.725  0.00  0.00    +0.310 C 
ATOM     10  H   UNL     1      35.029 -21.695 -18.515  0.00  0.00    +0.158 HD
ATOM     11  H   UNL     1      35.590 -20.586 -20.095  0.00  0.00    +0.156 HD
ENDROOT
BRANCH   5  12
ATOM     12  C   UNL     1      34.689 -19.527 -21.599  0.00  0.00    +0.052 C 
ATOM     13  C   UNL     1      34.691 -17.347 -22.601  0.00  0.00    +0.073 C 
ATOM     14  C   UNL     1      34.702 -18.149 -21.459  0.00  0.00    +0.019 C 
ATOM     15  C   UNL     1      34.667 -20.126 -22.847  0.00  0.00    +0.015 C 
ATOM     16  C   UNL     1      34.669 -17.934 -23.866  0.00  0.00    +0.004 C 
ATOM     17  C   UNL     1      34.657 -19.324 -23.989  0.00  0.00    +0.001 C 
BRANCH  13  21
ATOM     18  F   UNL     1      33.543 -15.265 -22.868  0.00  0.00    -0.166 F 
ATOM     19  F   UNL     1      34.908 -15.428 -21.191  0.00  0.00    -0.166 F 
ATOM     20  F   UNL     1      35.689 -15.278 -23.214  0.00  0.00    -0.166 F 
ATOM     21  C   UNL     1      34.706 -15.861 -22.470  0.00  0.00    +0.419 C 
ENDBRANCH  13  21
ENDBRANCH   5  12
BRANCH   6  22
ATOM     22  C   UNL     1      32.614 -24.453 -14.587  0.00  0.00    +0.056 C 
BRANCH  22  23
ATOM     23  C   UNL     1      33.676 -24.062 -13.561  0.00  0.00    +0.093 C 
BRANCH  23  24
ATOM     24  N   UNL     1      34.897 -24.778 -13.785  0.00  0.00    -0.320 N 
ATOM     25  N   UNL     1      37.589 -26.224 -14.169  0.00  0.00    -0.220 N 
ATOM     26  N   UNL     1      38.882 -26.594 -14.088  0.00  0.00    -0.178 NA
ATOM     27  N   UNL     1      36.159 -23.415 -12.280  0.00  0.00    -0.232 NA
ATOM     28  N   UNL     1      38.534 -23.777 -11.867  0.00  0.00    -0.245 NA
ATOM     29  C   UNL     1      37.271 -25.156 -13.384  0.00  0.00    +0.185 C 
ATOM     30  C   UNL     1      36.106 -24.449 -13.149  0.00  0.00    +0.128 C 
ATOM     31  C   UNL     1      38.447 -24.806 -12.741  0.00  0.00    +0.103 C 
ATOM     32  C   UNL     1      39.401 -25.724 -13.214  0.00  0.00    +0.134 C 
ATOM     33  C   UNL     1      36.710 -26.964 -15.044  0.00  0.00    +0.135 C 
ATOM     34  C   UNL     1      37.353 -23.146 -11.700  0.00  0.00    +0.251 C 
ATOM     35  H   UNL     1      34.888 -25.535 -14.414  0.00  0.00    +0.148 HD
ENDBRANCH  23  24
ENDBRANCH  22  23
ENDBRANCH   6  22
TORSDOF 5
ENDMDL
MODEL 3
REMARK VINA RESULT:     -11.5      3.616      4.262
REMARK  Name = 15602701
REMARK  5 active torsions:
REMARK  status: ('A' for Active; 'I' for Inactive)
REMARK    1  A    between atoms: N_5  and  C_12
REMARK    2  A    between atoms: C_6  and  C_22
REMARK    3  A    between atoms: C_13  and  C_21
REMARK    4  A    between atoms: C_22  and  C_23
REMARK    5  A    between atoms: C_23  and  N_24
REMARK                            x       y       z     vdW  Elec       q    Type
REMARK                         _______ _______ _______ _____ _____    ______ ____
ROOT
ATOM      1  S   UNL     1      35.730 -20.734 -20.148  0.00  0.00    -0.056 S 
ATOM      2  O   UNL     1      31.926 -22.092 -17.858  0.00  0.00    -0.252 OA
ATOM      3  N   UNL     1      33.147 -20.632 -20.107  0.00  0.00    -0.223 NA
ATOM      4  N   UNL     1      34.215 -21.881 -18.344  0.00  0.00    -0.248 N 
ATOM      5  N   UNL     1      33.536 -23.098 -16.496  0.00  0.00    -0.268 N 
ATOM      6  C   UNL     1      34.923 -19.869 -21.366  0.00  0.00    +0.031 C 
ATOM      7  C   UNL     1      33.577 -19.910 -21.203  0.00  0.00    +0.103 C 
ATOM      8  C   UNL     1      34.196 -21.112 -19.477  0.00  0.00    +0.166 C 
ATOM      9  C   UNL     1      33.098 -22.334 -17.591  0.00  0.00    +0.310 C 
ATOM     10  H   UNL     1      35.103 -22.151 -18.013  0.00  0.00    +0.158 HD
ATOM     11  H   UNL     1      34.511 -23.207 -16.408  0.00  0.00    +0.156 HD
ENDROOT
BRANCH   5  12
ATOM     12  C   UNL     1      32.750 -23.729 -15.504  0.00  0.00    +0.052 C 
ATOM     13  C   UNL     1      30.605 -24.459 -14.712  0.00  0.00    +0.073 C 
ATOM     14  C   UNL     1      31.380 -23.836 -15.690  0.00  0.00    +0.019 C 
ATOM     15  C   UNL     1      33.364 -24.230 -14.369  0.00  0.00    +0.015 C 
ATOM     16  C   UNL     1      31.209 -24.969 -13.562  0.00  0.00    +0.004 C 
ATOM     17  C   UNL     1      32.589 -24.853 -13.390  0.00  0.00    +0.001 C 
BRANCH  13  21
ATOM     18  F   UNL     1      28.533 -25.414 -13.990  0.00  0.00    -0.166 F 
ATOM     19  F   UNL     1      28.464 -23.396 -14.782  0.00  0.00    -0.166 F 
ATOM     20  F   UNL     1      28.793 -25.077 -16.123  0.00  0.00    -0.166 F 
ATOM     21  C   UNL     1      29.130 -24.583 -14.896  0.00  0.00    +0.419 C 
ENDBRANCH  13  21
ENDBRANCH   5  12
BRANCH   6  22
ATOM     22  C   UNL     1      35.722 -19.177 -22.444  0.00  0.00    +0.056 C 
BRANCH  22  23
ATOM     23  C   UNL     1      34.840 -18.424 -23.439  0.00  0.00    +0.093 C 
BRANCH  23  24
ATOM     24  N   UNL     1      34.574 -17.091 -22.985  0.00  0.00    -0.320 N 
ATOM     25  N   UNL     1      33.962 -14.190 -22.150  0.00  0.00    -0.220 N 
ATOM     26  N   UNL     1      33.616 -12.888 -22.156  0.00  0.00    -0.178 NA
ATOM     27  N   UNL     1      33.943 -16.308 -25.154  0.00  0.00    -0.232 NA
ATOM     28  N   UNL     1      33.252 -14.006 -25.563  0.00  0.00    -0.245 NA
ATOM     29  C   UNL     1      33.884 -14.787 -23.374  0.00  0.00    +0.185 C 
ATOM     30  C   UNL     1      34.133 -16.065 -23.838  0.00  0.00    +0.128 C 
ATOM     31  C   UNL     1      33.452 -13.796 -24.241  0.00  0.00    +0.103 C 
ATOM     32  C   UNL     1      33.305 -12.653 -23.436  0.00  0.00    +0.134 C 
ATOM     33  C   UNL     1      34.365 -14.795 -20.902  0.00  0.00    +0.135 C 
ATOM     34  C   UNL     1      33.520 -15.278 -25.925  0.00  0.00    +0.251 C 
ATOM     35  H   UNL     1      34.704 -16.885 -22.032  0.00  0.00    +0.148 HD
ENDBRANCH  23  24
ENDBRANCH  22  23
ENDBRANCH   6  22
TORSDOF 5
ENDMDL
MODEL 4
REMARK VINA RESULT:     -11.5      0.529      1.791
REMARK  Name = 15602701
REMARK  5 active torsions:
REMARK  status: ('A' for Active; 'I' for Inactive)
REMARK    1  A    between atoms: N_5  and  C_12
REMARK    2  A    between atoms: C_6  and  C_22
REMARK    3  A    between atoms: C_13  and  C_21
REMARK    4  A    between atoms: C_22  and  C_23
REMARK    5  A    between atoms: C_23  and  N_24
REMARK                            x       y       z     vdW  Elec       q    Type
REMARK                         _______ _______ _______ _____ _____    ______ ____
ROOT
ATOM      1  S   UNL     1      36.600 -20.613 -19.553  0.00  0.00    -0.056 S 
ATOM      2  O   UNL     1      35.245 -23.350 -16.056  0.00  0.00    -0.252 OA
ATOM      3  N   UNL     1      34.587 -21.850 -18.504  0.00  0.00    -0.223 NA
ATOM      4  N   UNL     1      36.706 -22.072 -17.379  0.00  0.00    -0.248 N 
ATOM      5  N   UNL     1      37.504 -23.152 -15.494  0.00  0.00    -0.268 N 
ATOM      6  C   UNL     1      35.081 -20.494 -20.303  0.00  0.00    +0.031 C 
ATOM      7  C   UNL     1      34.133 -21.195 -19.633  0.00  0.00    +0.103 C 
ATOM      8  C   UNL     1      35.872 -21.614 -18.364  0.00  0.00    +0.166 C 
ATOM      9  C   UNL     1      36.366 -22.908 -16.281  0.00  0.00    +0.310 C 
ATOM     10  H   UNL     1      37.648 -21.790 -17.437  0.00  0.00    +0.158 HD
ATOM     11  H   UNL     1      38.339 -22.728 -15.799  0.00  0.00    +0.156 HD
ENDROOT
BRANCH   5  12
ATOM     12  C   UNL     1      37.598 -23.931 -14.317  0.00  0.00    +0.052 C 
ATOM     13  C   UNL     1      36.846 -24.425 -12.092  0.00  0.00    +0.073 C 
ATOM     14  C   UNL     1      36.753 -23.657 -13.253  0.00  0.00    +0.019 C 
ATOM     15  C   UNL     1      38.531 -24.952 -14.252  0.00  0.00    +0.015 C 
ATOM     16  C   UNL     1      37.780 -25.458 -12.011  0.00  0.00    +0.004 C 
ATOM     17  C   UNL     1      38.624 -25.720 -13.091  0.00  0.00    +0.001 C 
BRANCH  13  21
ATOM     18  F   UNL     1      35.499 -25.271 -10.304  0.00  0.00    -0.166 F 
ATOM     19  F   UNL     1      36.528 -23.393  -9.958  0.00  0.00    -0.166 F 
ATOM     20  F   UNL     1      34.820 -23.462 -11.303  0.00  0.00    -0.166 F 
ATOM     21  C   UNL     1      35.944 -24.145 -10.938  0.00  0.00    +0.419 C 
ENDBRANCH  13  21
ENDBRANCH   5  12
BRANCH   6  22
ATOM     22  C   UNL     1      34.933 -19.671 -21.562  0.00  0.00    +0.056 C 
BRANCH  22  23
ATOM     23  C   UNL     1      35.634 -18.317 -21.465  0.00  0.00    +0.093 C 
BRANCH  23  24
ATOM     24  N   UNL     1      35.133 -17.406 -22.451  0.00  0.00    -0.320 N 
ATOM     25  N   UNL     1      34.032 -15.347 -24.460  0.00  0.00    -0.220 N 
ATOM     26  N   UNL     1      33.508 -14.241 -25.022  0.00  0.00    -0.178 NA
ATOM     27  N   UNL     1      34.656 -15.691 -20.854  0.00  0.00    -0.232 NA
ATOM     28  N   UNL     1      33.700 -13.541 -21.492  0.00  0.00    -0.245 NA
ATOM     29  C   UNL     1      34.179 -15.262 -23.107  0.00  0.00    +0.185 C 
ATOM     30  C   UNL     1      34.658 -16.121 -22.136  0.00  0.00    +0.128 C 
ATOM     31  C   UNL     1      33.716 -14.002 -22.765  0.00  0.00    +0.103 C 
ATOM     32  C   UNL     1      33.316 -13.422 -23.982  0.00  0.00    +0.134 C 
ATOM     33  C   UNL     1      34.369 -16.465 -25.311  0.00  0.00    +0.135 C 
ATOM     34  C   UNL     1      34.183 -14.445 -20.615  0.00  0.00    +0.251 C 
ATOM     35  H   UNL     1      35.122 -17.693 -23.392  0.00  0.00    +0.148 HD
ENDBRANCH  23  24
ENDBRANCH  22  23
ENDBRANCH   6  22
TORSDOF 5
ENDMDL
MODEL 5
REMARK VINA RESULT:     -11.4      4.716      7.653
REMARK  Name = 15602701
REMARK  5 active torsions:
REMARK  status: ('A' for Active; 'I' for Inactive)
REMARK    1  A    between atoms: N_5  and  C_12
REMARK    2  A    between atoms: C_6  and  C_22
REMARK    3  A    between atoms: C_13  and  C_21
REMARK    4  A    between atoms: C_22  and  C_23
REMARK    5  A    between atoms: C_23  and  N_24
REMARK                            x       y       z     vdW  Elec       q    Type
REMARK                         _______ _______ _______ _____ _____    ______ ____
ROOT
ATOM      1  S   UNL     1      33.972 -15.381 -24.511  0.00  0.00    -0.056 S 
ATOM      2  O   UNL     1      35.129 -17.048 -20.335  0.00  0.00    -0.252 OA
ATOM      3  N   UNL     1      34.498 -14.746 -22.061  0.00  0.00    -0.223 NA
ATOM      4  N   UNL     1      34.583 -17.089 -22.619  0.00  0.00    -0.248 N 
ATOM      5  N   UNL     1      35.036 -19.067 -21.508  0.00  0.00    -0.268 N 
ATOM      6  C   UNL     1      33.926 -13.745 -24.058  0.00  0.00    +0.031 C 
ATOM      7  C   UNL     1      34.226 -13.578 -22.746  0.00  0.00    +0.103 C 
ATOM      8  C   UNL     1      34.394 -15.759 -22.891  0.00  0.00    +0.166 C 
ATOM      9  C   UNL     1      34.938 -17.672 -21.373  0.00  0.00    +0.310 C 
ATOM     10  H   UNL     1      34.461 -17.711 -23.373  0.00  0.00    +0.158 HD
ATOM     11  H   UNL     1      34.854 -19.428 -22.406  0.00  0.00    +0.156 HD
ENDROOT
BRANCH   5  12
ATOM     12  C   UNL     1      35.364 -20.017 -20.512  0.00  0.00    +0.052 C 
ATOM     13  C   UNL     1      34.674 -21.679 -18.924  0.00  0.00    +0.073 C 
ATOM     14  C   UNL     1      34.350 -20.741 -19.905  0.00  0.00    +0.019 C 
ATOM     15  C   UNL     1      36.691 -20.205 -20.166  0.00  0.00    +0.015 C 
ATOM     16  C   UNL     1      36.006 -21.880 -18.564  0.00  0.00    +0.004 C 
ATOM     17  C   UNL     1      37.015 -21.143 -19.184  0.00  0.00    +0.001 C 
BRANCH  13  21
ATOM     18  F   UNL     1      32.367 -21.872 -18.317  0.00  0.00    -0.166 F 
ATOM     19  F   UNL     1      33.414 -23.708 -18.804  0.00  0.00    -0.166 F 
ATOM     20  F   UNL     1      33.839 -22.680 -16.935  0.00  0.00    -0.166 F 
ATOM     21  C   UNL     1      33.595 -22.468 -18.261  0.00  0.00    +0.419 C 
ENDBRANCH  13  21
ENDBRANCH   5  12
BRANCH   6  22
ATOM     22  C   UNL     1      33.583 -12.695 -25.089  0.00  0.00    +0.056 C 
BRANCH  22  23
ATOM     23  C   UNL     1      34.206 -11.336 -24.775  0.00  0.00    +0.093 C 
BRANCH  23  24
ATOM     24  N   UNL     1      33.478 -10.662 -23.742  0.00  0.00    -0.320 N 
ATOM     25  N   UNL     1      32.000  -9.092 -21.542  0.00  0.00    -0.220 N 
ATOM     26  N   UNL     1      31.609  -8.140 -20.673  0.00  0.00    -0.178 NA
ATOM     27  N   UNL     1      34.784  -8.666 -23.903  0.00  0.00    -0.232 NA
ATOM     28  N   UNL     1      34.375  -6.719 -22.494  0.00  0.00    -0.245 NA
ATOM     29  C   UNL     1      33.053  -8.725 -22.326  0.00  0.00    +0.185 C 
ATOM     30  C   UNL     1      33.772  -9.352 -23.326  0.00  0.00    +0.128 C 
ATOM     31  C   UNL     1      33.369  -7.433 -21.937  0.00  0.00    +0.103 C 
ATOM     32  C   UNL     1      32.449  -7.128 -20.919  0.00  0.00    +0.134 C 
ATOM     33  C   UNL     1      31.295 -10.353 -21.552  0.00  0.00    +0.135 C 
ATOM     34  C   UNL     1      35.020  -7.409 -23.458  0.00  0.00    +0.251 C 
ATOM     35  H   UNL     1      32.736 -11.138 -23.303  0.00  0.00    +0.148 HD
ENDBRANCH  23  24
ENDBRANCH  22  23
ENDBRANCH   6  22
TORSDOF 5
ENDMDL
MODEL 6
REMARK VINA RESULT:     -11.4      7.967     13.765
REMARK  Name = 15602701
REMARK  5 active torsions:
REMARK  status: ('A' for Active; 'I' for Inactive)
REMARK    1  A    between atoms: N_5  and  C_12
REMARK    2  A    between atoms: C_6  and  C_22
REMARK    3  A    between atoms: C_13  and  C_21
REMARK    4  A    between atoms: C_22  and  C_23
REMARK    5  A    between atoms: C_23  and  N_24
REMARK                            x       y       z     vdW  Elec       q    Type
REMARK                         _______ _______ _______ _____ _____    ______ ____
ROOT
ATOM      1  S   UNL     1      34.612 -15.345 -22.636  0.00  0.00    -0.056 S 
ATOM      2  O   UNL     1      33.615 -11.482 -25.012  0.00  0.00    -0.252 OA
ATOM      3  N   UNL     1      33.905 -14.413 -24.941  0.00  0.00    -0.223 NA
ATOM      4  N   UNL     1      34.231 -12.808 -23.173  0.00  0.00    -0.248 N 
ATOM      5  N   UNL     1      34.081 -10.511 -22.939  0.00  0.00    -0.268 N 
ATOM      6  C   UNL     1      34.368 -16.428 -23.919  0.00  0.00    +0.031 C 
ATOM      7  C   UNL     1      34.003 -15.786 -25.057  0.00  0.00    +0.103 C 
ATOM      8  C   UNL     1      34.204 -14.068 -23.709  0.00  0.00    +0.166 C 
ATOM      9  C   UNL     1      33.941 -11.584 -23.834  0.00  0.00    +0.310 C 
ATOM     10  H   UNL     1      34.480 -12.742 -22.222  0.00  0.00    +0.158 HD
ATOM     11  H   UNL     1      34.349 -10.746 -22.021  0.00  0.00    +0.156 HD
ENDROOT
BRANCH   5  12
ATOM     12  C   UNL     1      33.885  -9.133 -23.193  0.00  0.00    +0.052 C 
ATOM     13  C   UNL     1      32.467  -7.197 -23.149  0.00  0.00    +0.073 C 
ATOM     14  C   UNL     1      32.660  -8.556 -22.899  0.00  0.00    +0.019 C 
ATOM     15  C   UNL     1      34.922  -8.388 -23.729  0.00  0.00    +0.015 C 
ATOM     16  C   UNL     1      33.502  -6.433 -23.689  0.00  0.00    +0.004 C 
ATOM     17  C   UNL     1      34.730  -7.029 -23.979  0.00  0.00    +0.001 C 
BRANCH  13  21
ATOM     18  F   UNL     1      30.918  -6.419 -21.500  0.00  0.00    -0.166 F 
ATOM     19  F   UNL     1      31.021  -5.304 -23.357  0.00  0.00    -0.166 F 
ATOM     20  F   UNL     1      30.097  -7.272 -23.324  0.00  0.00    -0.166 F 
ATOM     21  C   UNL     1      31.155  -6.560 -22.838  0.00  0.00    +0.419 C 
ENDBRANCH  13  21
ENDBRANCH   5  12
BRANCH   6  22
ATOM     22  C   UNL     1      34.567 -17.909 -23.694  0.00  0.00    +0.056 C 
BRANCH  22  23
ATOM     23  C   UNL     1      35.333 -18.210 -22.406  0.00  0.00    +0.093 C 
BRANCH  23  24
ATOM     24  N   UNL     1      34.606 -19.125 -21.577  0.00  0.00    -0.320 N 
ATOM     25  N   UNL     1      33.174 -21.131 -19.730  0.00  0.00    -0.220 N 
ATOM     26  N   UNL     1      32.903 -22.067 -18.800  0.00  0.00    -0.178 NA
ATOM     27  N   UNL     1      36.560 -19.887 -20.430  0.00  0.00    -0.232 NA
ATOM     28  N   UNL     1      36.471 -21.578 -18.676  0.00  0.00    -0.245 NA
ATOM     29  C   UNL     1      34.497 -20.815 -19.826  0.00  0.00    +0.185 C 
ATOM     30  C   UNL     1      35.222 -19.940 -20.612  0.00  0.00    +0.128 C 
ATOM     31  C   UNL     1      35.134 -21.607 -18.883  0.00  0.00    +0.103 C 
ATOM     32  C   UNL     1      34.104 -22.354 -18.286  0.00  0.00    +0.134 C 
ATOM     33  C   UNL     1      32.082 -20.582 -20.500  0.00  0.00    +0.135 C 
ATOM     34  C   UNL     1      37.095 -20.698 -19.487  0.00  0.00    +0.251 C 
ATOM     35  H   UNL     1      33.630 -19.186 -21.688  0.00  0.00    +0.148 HD
ENDBRANCH  23  24
ENDBRANCH  22  23
ENDBRANCH   6  22
TORSDOF 5
ENDMDL
MODEL 7
REMARK VINA RESULT:     -11.3      1.978      2.455
REMARK  Name = 15602701
REMARK  5 active torsions:
REMARK  status: ('A' for Active; 'I' for Inactive)
REMARK    1  A    between atoms: N_5  and  C_12
REMARK    2  A    between atoms: C_6  and  C_22
REMARK    3  A    between atoms: C_13  and  C_21
REMARK    4  A    between atoms: C_22  and  C_23
REMARK    5  A    between atoms: C_23  and  N_24
REMARK                            x       y       z     vdW  Elec       q    Type
REMARK                         _______ _______ _______ _____ _____    ______ ____
ROOT
ATOM      1  S   UNL     1      33.820 -20.894 -20.200  0.00  0.00    -0.056 S 
ATOM      2  O   UNL     1      36.672 -22.183 -16.770  0.00  0.00    -0.252 OA
ATOM      3  N   UNL     1      36.234 -20.723 -19.291  0.00  0.00    -0.223 NA
ATOM      4  N   UNL     1      34.674 -22.024 -17.994  0.00  0.00    -0.248 N 
ATOM      5  N   UNL     1      34.727 -23.248 -16.032  0.00  0.00    -0.268 N 
ATOM      6  C   UNL     1      34.964 -19.991 -21.071  0.00  0.00    +0.031 C 
ATOM      7  C   UNL     1      36.178 -19.999 -20.466  0.00  0.00    +0.103 C 
ATOM      8  C   UNL     1      35.049 -21.239 -19.053  0.00  0.00    +0.166 C 
ATOM      9  C   UNL     1      35.485 -22.458 -16.913  0.00  0.00    +0.310 C 
ATOM     10  H   UNL     1      33.734 -22.321 -17.982  0.00  0.00    +0.158 HD
ATOM     11  H   UNL     1      33.783 -23.384 -16.277  0.00  0.00    +0.156 HD
ENDROOT
BRANCH   5  12
ATOM     12  C   UNL     1      35.154 -23.873 -14.836  0.00  0.00    +0.052 C 
ATOM     13  C   UNL     1      36.749 -25.223 -13.657  0.00  0.00    +0.073 C 
ATOM     14  C   UNL     1      36.329 -24.607 -14.836  0.00  0.00    +0.019 C 
ATOM     15  C   UNL     1      34.388 -23.737 -13.690  0.00  0.00    +0.015 C 
ATOM     16  C   UNL     1      35.990 -25.095 -12.494  0.00  0.00    +0.004 C 
ATOM     17  C   UNL     1      34.809 -24.352 -12.511  0.00  0.00    +0.001 C 
BRANCH  13  21
ATOM     18  F   UNL     1      39.031 -25.442 -14.344  0.00  0.00    -0.166 F 
ATOM     19  F   UNL     1      38.515 -26.213 -12.384  0.00  0.00    -0.166 F 
ATOM     20  F   UNL     1      37.857 -27.264 -14.170  0.00  0.00    -0.166 F 
ATOM     21  C   UNL     1      38.012 -26.016 -13.638  0.00  0.00    +0.419 C 
ENDBRANCH  13  21
ENDBRANCH   5  12
BRANCH   6  22
ATOM     22  C   UNL     1      34.554 -19.308 -22.355  0.00  0.00    +0.056 C 
BRANCH  22  23
ATOM     23  C   UNL     1      35.522 -18.199 -22.767  0.00  0.00    +0.093 C 
BRANCH  23  24
ATOM     24  N   UNL     1      34.992 -16.907 -22.445  0.00  0.00    -0.320 N 
ATOM     25  N   UNL     1      33.818 -14.113 -21.898  0.00  0.00    -0.220 N 
ATOM     26  N   UNL     1      33.243 -12.902 -22.034  0.00  0.00    -0.178 NA
ATOM     27  N   UNL     1      34.364 -16.427 -24.701  0.00  0.00    -0.232 NA
ATOM     28  N   UNL     1      33.295 -14.331 -25.342  0.00  0.00    -0.245 NA
ATOM     29  C   UNL     1      33.923 -14.808 -23.066  0.00  0.00    +0.185 C 
ATOM     30  C   UNL     1      34.427 -16.050 -23.404  0.00  0.00    +0.128 C 
ATOM     31  C   UNL     1      33.373 -13.985 -24.036  0.00  0.00    +0.103 C 
ATOM     32  C   UNL     1      32.974 -12.829 -23.342  0.00  0.00    +0.134 C 
ATOM     33  C   UNL     1      34.247 -14.533 -20.584  0.00  0.00    +0.135 C 
ATOM     34  C   UNL     1      33.810 -15.557 -25.578  0.00  0.00    +0.251 C 
ATOM     35  H   UNL     1      35.025 -16.606 -21.508  0.00  0.00    +0.148 HD
ENDBRANCH  23  24
ENDBRANCH  22  23
ENDBRANCH   6  22
TORSDOF 5
ENDMDL
MODEL 8
REMARK VINA RESULT:     -11.2      1.890      2.363
REMARK  Name = 15602701
REMARK  5 active torsions:
REMARK  status: ('A' for Active; 'I' for Inactive)
REMARK    1  A    between atoms: N_5  and  C_12
REMARK    2  A    between atoms: C_6  and  C_22
REMARK    3  A    between atoms: C_13  and  C_21
REMARK    4  A    between atoms: C_22  and  C_23
REMARK    5  A    between atoms: C_23  and  N_24
REMARK                            x       y       z     vdW  Elec       q    Type
REMARK                         _______ _______ _______ _____ _____    ______ ____
ROOT
ATOM      1  S   UNL     1      36.196 -19.972 -20.595  0.00  0.00    -0.056 S 
ATOM      2  O   UNL     1      34.747 -22.570 -17.031  0.00  0.00    -0.252 OA
ATOM      3  N   UNL     1      34.155 -21.166 -19.552  0.00  0.00    -0.223 NA
ATOM      4  N   UNL     1      36.244 -21.345 -18.364  0.00  0.00    -0.248 N 
ATOM      5  N   UNL     1      36.991 -22.351 -16.419  0.00  0.00    -0.268 N 
ATOM      6  C   UNL     1      34.698 -19.881 -21.388  0.00  0.00    +0.031 C 
ATOM      7  C   UNL     1      33.732 -20.555 -20.716  0.00  0.00    +0.103 C 
ATOM      8  C   UNL     1      35.436 -20.926 -19.388  0.00  0.00    +0.166 C 
ATOM      9  C   UNL     1      35.875 -22.138 -17.244  0.00  0.00    +0.310 C 
ATOM     10  H   UNL     1      37.188 -21.065 -18.408  0.00  0.00    +0.158 HD
ATOM     11  H   UNL     1      37.835 -21.940 -16.718  0.00  0.00    +0.156 HD
ENDROOT
BRANCH   5  12
ATOM     12  C   UNL     1      37.054 -23.084 -15.210  0.00  0.00    +0.052 C 
ATOM     13  C   UNL     1      38.171 -24.679 -13.808  0.00  0.00    +0.073 C 
ATOM     14  C   UNL     1      38.110 -23.957 -15.000  0.00  0.00    +0.019 C 
ATOM     15  C   UNL     1      36.061 -22.912 -14.261  0.00  0.00    +0.015 C 
ATOM     16  C   UNL     1      37.178 -24.517 -12.841  0.00  0.00    +0.004 C 
ATOM     17  C   UNL     1      36.123 -23.634 -13.068  0.00  0.00    +0.001 C 
BRANCH  13  21
ATOM     18  F   UNL     1      40.520 -25.010 -13.489  0.00  0.00    -0.166 F 
ATOM     19  F   UNL     1      39.183 -26.327 -12.400  0.00  0.00    -0.166 F 
ATOM     20  F   UNL     1      39.423 -26.560 -14.548  0.00  0.00    -0.166 F 
ATOM     21  C   UNL     1      39.301 -25.623 -13.564  0.00  0.00    +0.419 C 
ENDBRANCH  13  21
ENDBRANCH   5  12
BRANCH   6  22
ATOM     22  C   UNL     1      34.584 -19.107 -22.681  0.00  0.00    +0.056 C 
BRANCH  22  23
ATOM     23  C   UNL     1      35.617 -17.986 -22.789  0.00  0.00    +0.093 C 
BRANCH  23  24
ATOM     24  N   UNL     1      35.038 -16.718 -22.458  0.00  0.00    -0.320 N 
ATOM     25  N   UNL     1      33.755 -13.976 -21.891  0.00  0.00    -0.220 N 
ATOM     26  N   UNL     1      33.134 -12.788 -22.018  0.00  0.00    -0.178 NA
ATOM     27  N   UNL     1      34.391 -16.246 -24.710  0.00  0.00    -0.232 NA
ATOM     28  N   UNL     1      33.241 -14.189 -25.336  0.00  0.00    -0.245 NA
ATOM     29  C   UNL     1      33.888 -14.658 -23.064  0.00  0.00    +0.185 C 
ATOM     30  C   UNL     1      34.439 -15.877 -23.411  0.00  0.00    +0.128 C 
ATOM     31  C   UNL     1      33.306 -13.850 -24.028  0.00  0.00    +0.103 C 
ATOM     32  C   UNL     1      32.862 -12.716 -23.326  0.00  0.00    +0.134 C 
ATOM     33  C   UNL     1      34.201 -14.389 -20.580  0.00  0.00    +0.135 C 
ATOM     34  C   UNL     1      33.803 -15.392 -25.581  0.00  0.00    +0.251 C 
ATOM     35  H   UNL     1      35.059 -16.424 -21.519  0.00  0.00    +0.148 HD
ENDBRANCH  23  24
ENDBRANCH  22  23
ENDBRANCH   6  22
TORSDOF 5
ENDMDL
MODEL 9
REMARK VINA RESULT:     -11.2      5.736     11.773
REMARK  Name = 15602701
REMARK  5 active torsions:
REMARK  status: ('A' for Active; 'I' for Inactive)
REMARK    1  A    between atoms: N_5  and  C_12
REMARK    2  A    between atoms: C_6  and  C_22
REMARK    3  A    between atoms: C_13  and  C_21
REMARK    4  A    between atoms: C_22  and  C_23
REMARK    5  A    between atoms: C_23  and  N_24
REMARK                            x       y       z     vdW  Elec       q    Type
REMARK                         _______ _______ _______ _____ _____    ______ ____
ROOT
ATOM      1  S   UNL     1      33.759 -23.627 -15.793  0.00  0.00    -0.056 S 
ATOM      2  O   UNL     1      33.061 -20.928 -19.506  0.00  0.00    -0.252 OA
ATOM      3  N   UNL     1      31.961 -22.549 -17.305  0.00  0.00    -0.223 NA
ATOM      4  N   UNL     1      34.262 -22.104 -17.866  0.00  0.00    -0.248 N 
ATOM      5  N   UNL     1      35.397 -20.905 -19.487  0.00  0.00    -0.268 N 
ATOM      6  C   UNL     1      32.120 -23.904 -15.446  0.00  0.00    +0.031 C 
ATOM      7  C   UNL     1      31.306 -23.273 -16.329  0.00  0.00    +0.103 C 
ATOM      8  C   UNL     1      33.257 -22.663 -17.121  0.00  0.00    +0.166 C 
ATOM      9  C   UNL     1      34.127 -21.273 -19.010  0.00  0.00    +0.310 C 
ATOM     10  H   UNL     1      35.183 -22.302 -17.576  0.00  0.00    +0.158 HD
ATOM     11  H   UNL     1      36.166 -21.259 -18.985  0.00  0.00    +0.156 HD
ENDROOT
BRANCH   5  12
ATOM     12  C   UNL     1      35.706 -20.088 -20.600  0.00  0.00    +0.052 C 
ATOM     13  C   UNL     1      35.146 -19.257 -22.781  0.00  0.00    +0.073 C 
ATOM     14  C   UNL     1      34.842 -20.063 -21.683  0.00  0.00    +0.019 C 
ATOM     15  C   UNL     1      36.864 -19.329 -20.583  0.00  0.00    +0.015 C 
ATOM     16  C   UNL     1      36.309 -18.486 -22.779  0.00  0.00    +0.004 C 
ATOM     17  C   UNL     1      37.169 -18.523 -21.681  0.00  0.00    +0.001 C 
BRANCH  13  21
ATOM     18  F   UNL     1      34.324 -18.067 -24.687  0.00  0.00    -0.166 F 
ATOM     19  F   UNL     1      34.440 -20.227 -24.849  0.00  0.00    -0.166 F 
ATOM     20  F   UNL     1      32.914 -19.314 -23.598  0.00  0.00    -0.166 F 
ATOM     21  C   UNL     1      34.228 -19.217 -23.955  0.00  0.00    +0.419 C 
ENDBRANCH  13  21
ENDBRANCH   5  12
BRANCH   6  22
ATOM     22  C   UNL     1      31.744 -24.772 -14.268  0.00  0.00    +0.056 C 
BRANCH  22  23
ATOM     23  C   UNL     1      32.642 -24.538 -13.054  0.00  0.00    +0.093 C 
BRANCH  23  24
ATOM     24  N   UNL     1      33.968 -25.024 -13.294  0.00  0.00    -0.320 N 
ATOM     25  N   UNL     1      36.861 -26.011 -13.676  0.00  0.00    -0.220 N 
ATOM     26  N   UNL     1      38.172 -26.269 -13.508  0.00  0.00    -0.178 NA
ATOM     27  N   UNL     1      34.833 -24.140 -11.248  0.00  0.00    -0.232 NA
ATOM     28  N   UNL     1      37.166 -24.406 -10.592  0.00  0.00    -0.245 NA
ATOM     29  C   UNL     1      36.303 -25.302 -12.654  0.00  0.00    +0.185 C 
ATOM     30  C   UNL     1      35.032 -24.822 -12.398  0.00  0.00    +0.128 C 
ATOM     31  C   UNL     1      37.331 -25.085 -11.751  0.00  0.00    +0.103 C 
ATOM     32  C   UNL     1      38.454 -25.701 -12.330  0.00  0.00    +0.134 C 
ATOM     33  C   UNL     1      36.208 -26.489 -14.873  0.00  0.00    +0.135 C 
ATOM     34  C   UNL     1      35.898 -23.976 -10.427  0.00  0.00    +0.251 C 
ATOM     35  H   UNL     1      34.142 -25.524 -14.124  0.00  0.00    +0.148 HD
ENDBRANCH  23  24
ENDBRANCH  22  23
ENDBRANCH   6  22
TORSDOF 5
ENDMDL
