MODEL 1
REMARK VINA RESULT:     -12.0      0.000      0.000
REMARK  Name = 25058128
REMARK  13 active torsions:
REMARK  status: ('A' for Active; 'I' for Inactive)
REMARK    1  A    between atoms: C_1  and  S_11
REMARK    2  A    between atoms: C_9  and  O_27
REMARK    3  A    between atoms: S_11  and  N_14
REMARK    4  A    between atoms: N_14  and  C_16
REMARK    5  A    between atoms: C_16  and  C_18
REMARK    6  A    between atoms: C_16  and  C_21
REMARK    7  A    between atoms: C_18  and  O_19
REMARK    8  A    between atoms: C_21  and  C_22
REMARK    9  A    between atoms: C_22  and  C_24
REMARK   10  A    between atoms: C_24  and  O_25
REMARK   11  A    between atoms: O_27  and  C_28
REMARK   12  A    between atoms: C_28  and  C_30
REMARK   13  A    between atoms: C_35  and  C_37
REMARK                            x       y       z     vdW  Elec       q    Type
REMARK                         _______ _______ _______ _____ _____    ______ ____
ROOT
ATOM      1  C   UNL     1      36.082 -22.809 -16.365  0.00  0.00    +0.122 C 
ATOM      2  C   UNL     1      34.575 -22.000 -18.095  0.00  0.00    +0.002 C 
ATOM      3  C   UNL     1      34.803 -22.727 -16.915  0.00  0.00    +0.020 C 
ATOM      4  C   UNL     1      35.661 -21.346 -18.725  0.00  0.00    +0.003 C 
ATOM      5  C   UNL     1      37.149 -22.165 -16.984  0.00  0.00    +0.020 C 
ATOM      6  C   UNL     1      36.942 -21.438 -18.157  0.00  0.00    +0.001 C 
ATOM      7  C   UNL     1      35.433 -20.618 -19.904  0.00  0.00    +0.037 C 
ATOM      8  C   UNL     1      33.294 -21.908 -18.663  0.00  0.00    +0.003 C 
ATOM      9  C   UNL     1      34.154 -20.537 -20.455  0.00  0.00    +0.139 C 
ATOM     10  C   UNL     1      33.086 -21.180 -19.836  0.00  0.00    +0.037 C 
ENDROOT
BRANCH   1  11
ATOM     11  S   UNL     1      36.348 -23.730 -14.879  0.00  0.00    +0.061 S 
ATOM     12  O   UNL     1      35.985 -22.885 -13.759  0.00  0.00    -0.153 OA
ATOM     13  O   UNL     1      35.706 -25.018 -15.061  0.00  0.00    -0.153 OA
BRANCH  11  14
ATOM     14  N   UNL     1      38.033 -23.948 -14.901  0.00  0.00    -0.170 NA
ATOM     15  H   UNL     1      38.444 -23.115 -14.479  0.00  0.00    +0.149 HD
BRANCH  14  16
ATOM     16  C   UNL     1      38.636 -25.114 -14.217  0.00  0.00    +0.174 C 
BRANCH  16  18
ATOM     17  O   UNL     1      41.040 -24.769 -14.089  0.00  0.00    -0.249 OA
ATOM     18  C   UNL     1      40.070 -25.234 -14.674  0.00  0.00    +0.330 C 
BRANCH  18  19
ATOM     19  O   UNL     1      40.183 -25.947 -15.825  0.00  0.00    -0.479 OA
ATOM     20  H   UNL     1      39.495 -25.923 -16.461  0.00  0.00    +0.295 HD
ENDBRANCH  18  19
ENDBRANCH  16  18
BRANCH  16  21
ATOM     21  C   UNL     1      38.458 -24.997 -12.699  0.00  0.00    +0.040 C 
BRANCH  21  22
ATOM     22  C   UNL     1      37.377 -25.880 -12.069  0.00  0.00    +0.111 C 
BRANCH  22  24
ATOM     23  O   UNL     1      36.578 -24.508 -10.248  0.00  0.00    -0.250 OA
ATOM     24  C   UNL     1      36.341 -25.112 -11.287  0.00  0.00    +0.314 C 
BRANCH  24  25
ATOM     25  O   UNL     1      35.107 -25.174 -11.845  0.00  0.00    -0.480 OA
ATOM     26  H   UNL     1      34.412 -24.646 -11.503  0.00  0.00    +0.295 HD
ENDBRANCH  24  25
ENDBRANCH  22  24
ENDBRANCH  21  22
ENDBRANCH  16  21
ENDBRANCH  14  16
ENDBRANCH  11  14
ENDBRANCH   1  11
BRANCH   9  27
ATOM     27  O   UNL     1      33.949 -19.827 -21.597  0.00  0.00    -0.471 OA
BRANCH  27  28
ATOM     28  C   UNL     1      35.101 -19.290 -22.245  0.00  0.00    +0.234 C 
BRANCH  28  30
ATOM     29  F   UNL     1      35.280 -17.192 -20.353  0.00  0.00    -0.204 F 
ATOM     30  C   UNL     1      34.845 -17.854 -22.591  0.00  0.00    +0.049 C 
ATOM     31  C   UNL     1      34.949 -16.867 -21.611  0.00  0.00    +0.140 C 
ATOM     32  C   UNL     1      34.502 -17.505 -23.898  0.00  0.00    +0.002 C 
ATOM     33  C   UNL     1      34.710 -15.532 -21.937  0.00  0.00    +0.040 C 
ATOM     34  C   UNL     1      34.261 -16.170 -24.223  0.00  0.00    +0.010 C 
ATOM     35  C   UNL     1      34.365 -15.183 -23.243  0.00  0.00    +0.071 C 
BRANCH  35  37
ATOM     36  N   UNL     1      33.923 -12.705 -23.849  0.00  0.00    -0.191 NA
ATOM     37  C   UNL     1      34.122 -13.815 -23.577  0.00  0.00    +0.100 C 
ENDBRANCH  35  37
ENDBRANCH  28  30
ENDBRANCH  27  28
ENDBRANCH   9  27
TORSDOF 13
ENDMDL
MODEL 2
REMARK VINA RESULT:     -11.9      1.502      2.775
REMARK  Name = 25058128
REMARK  13 active torsions:
REMARK  status: ('A' for Active; 'I' for Inactive)
REMARK    1  A    between atoms: C_1  and  S_11
REMARK    2  A    between atoms: C_9  and  O_27
REMARK    3  A    between atoms: S_11  and  N_14
REMARK    4  A    between atoms: N_14  and  C_16
REMARK    5  A    between atoms: C_16  and  C_18
REMARK    6  A    between atoms: C_16  and  C_21
REMARK    7  A    between atoms: C_18  and  O_19
REMARK    8  A    between atoms: C_21  and  C_22
REMARK    9  A    between atoms: C_22  and  C_24
REMARK   10  A    between atoms: C_24  and  O_25
REMARK   11  A    between atoms: O_27  and  C_28
REMARK   12  A    between atoms: C_28  and  C_30
REMARK   13  A    between atoms: C_35  and  C_37
REMARK                            x       y       z     vdW  Elec       q    Type
REMARK                         _______ _______ _______ _____ _____    ______ ____
ROOT
ATOM      1  C   UNL     1      34.238 -22.992 -16.423  0.00  0.00    +0.122 C 
ATOM      2  C   UNL     1      35.005 -21.762 -18.376  0.00  0.00    +0.002 C 
ATOM      3  C   UNL     1      35.275 -22.450 -17.182  0.00  0.00    +0.020 C 
ATOM      4  C   UNL     1      33.664 -21.622 -18.805  0.00  0.00    +0.003 C 
ATOM      5  C   UNL     1      32.920 -22.855 -16.845  0.00  0.00    +0.020 C 
ATOM      6  C   UNL     1      32.633 -22.174 -18.029  0.00  0.00    +0.001 C 
ATOM      7  C   UNL     1      33.393 -20.934 -20.000  0.00  0.00    +0.037 C 
ATOM      8  C   UNL     1      36.036 -21.209 -19.153  0.00  0.00    +0.003 C 
ATOM      9  C   UNL     1      34.431 -20.391 -20.759  0.00  0.00    +0.139 C 
ATOM     10  C   UNL     1      35.749 -20.528 -20.337  0.00  0.00    +0.037 C 
ENDROOT
BRANCH   1  11
ATOM     11  S   UNL     1      34.600 -23.855 -14.922  0.00  0.00    +0.061 S 
ATOM     12  O   UNL     1      35.145 -22.901 -13.977  0.00  0.00    -0.153 OA
ATOM     13  O   UNL     1      33.418 -24.625 -14.584  0.00  0.00    -0.153 OA
BRANCH  11  14
ATOM     14  N   UNL     1      35.826 -24.921 -15.420  0.00  0.00    -0.170 NA
ATOM     15  H   UNL     1      36.392 -24.421 -16.106  0.00  0.00    +0.149 HD
BRANCH  14  16
ATOM     16  C   UNL     1      36.763 -25.486 -14.424  0.00  0.00    +0.174 C 
BRANCH  16  18
ATOM     17  O   UNL     1      36.867 -27.539 -15.723  0.00  0.00    -0.249 OA
ATOM     18  C   UNL     1      36.825 -26.980 -14.635  0.00  0.00    +0.330 C 
BRANCH  18  19
ATOM     19  O   UNL     1      36.850 -27.662 -13.460  0.00  0.00    -0.479 OA
ATOM     20  H   UNL     1      37.440 -28.382 -13.349  0.00  0.00    +0.295 HD
ENDBRANCH  18  19
ENDBRANCH  16  18
BRANCH  16  21
ATOM     21  C   UNL     1      38.119 -24.774 -14.499  0.00  0.00    +0.040 C 
BRANCH  21  22
ATOM     22  C   UNL     1      39.218 -25.302 -13.573  0.00  0.00    +0.111 C 
BRANCH  22  24
ATOM     23  O   UNL     1      41.154 -26.741 -13.720  0.00  0.00    -0.250 OA
ATOM     24  C   UNL     1      40.303 -26.067 -14.289  0.00  0.00    +0.314 C 
BRANCH  24  25
ATOM     25  O   UNL     1      40.253 -25.918 -15.636  0.00  0.00    -0.480 OA
ATOM     26  H   UNL     1      40.815 -25.299 -16.059  0.00  0.00    +0.295 HD
ENDBRANCH  24  25
ENDBRANCH  22  24
ENDBRANCH  21  22
ENDBRANCH  16  21
ENDBRANCH  14  16
ENDBRANCH  11  14
ENDBRANCH   1  11
BRANCH   9  27
ATOM     27  O   UNL     1      34.153 -19.729 -21.915  0.00  0.00    -0.471 OA
BRANCH  27  28
ATOM     28  C   UNL     1      35.247 -19.105 -22.585  0.00  0.00    +0.234 C 
BRANCH  28  30
ATOM     29  F   UNL     1      35.295 -17.177 -20.513  0.00  0.00    -0.204 F 
ATOM     30  C   UNL     1      34.924 -17.657 -22.808  0.00  0.00    +0.049 C 
ATOM     31  C   UNL     1      34.965 -16.758 -21.742  0.00  0.00    +0.140 C 
ATOM     32  C   UNL     1      34.581 -17.210 -24.084  0.00  0.00    +0.002 C 
ATOM     33  C   UNL     1      34.664 -15.412 -21.953  0.00  0.00    +0.040 C 
ATOM     34  C   UNL     1      34.279 -15.864 -24.294  0.00  0.00    +0.010 C 
ATOM     35  C   UNL     1      34.320 -14.965 -23.229  0.00  0.00    +0.071 C 
BRANCH  35  37
ATOM     36  N   UNL     1      33.763 -12.467 -23.620  0.00  0.00    -0.191 NA
ATOM     37  C   UNL     1      34.013 -13.586 -23.444  0.00  0.00    +0.100 C 
ENDBRANCH  35  37
ENDBRANCH  28  30
ENDBRANCH  27  28
ENDBRANCH   9  27
TORSDOF 13
ENDMDL
MODEL 3
REMARK VINA RESULT:     -11.7      1.506      2.186
REMARK  Name = 25058128
REMARK  13 active torsions:
REMARK  status: ('A' for Active; 'I' for Inactive)
REMARK    1  A    between atoms: C_1  and  S_11
REMARK    2  A    between atoms: C_9  and  O_27
REMARK    3  A    between atoms: S_11  and  N_14
REMARK    4  A    between atoms: N_14  and  C_16
REMARK    5  A    between atoms: C_16  and  C_18
REMARK    6  A    between atoms: C_16  and  C_21
REMARK    7  A    between atoms: C_18  and  O_19
REMARK    8  A    between atoms: C_21  and  C_22
REMARK    9  A    between atoms: C_22  and  C_24
REMARK   10  A    between atoms: C_24  and  O_25
REMARK   11  A    between atoms: O_27  and  C_28
REMARK   12  A    between atoms: C_28  and  C_30
REMARK   13  A    between atoms: C_35  and  C_37
REMARK                            x       y       z     vdW  Elec       q    Type
REMARK                         _______ _______ _______ _____ _____    ______ ____
ROOT
ATOM      1  C   UNL     1      34.569 -23.466 -16.146  0.00  0.00    +0.122 C 
ATOM      2  C   UNL     1      35.297 -22.056 -17.989  0.00  0.00    +0.002 C 
ATOM      3  C   UNL     1      35.588 -22.825 -16.850  0.00  0.00    +0.020 C 
ATOM      4  C   UNL     1      33.953 -21.937 -18.419  0.00  0.00    +0.003 C 
ATOM      5  C   UNL     1      33.249 -23.350 -16.568  0.00  0.00    +0.020 C 
ATOM      6  C   UNL     1      32.941 -22.590 -17.698  0.00  0.00    +0.001 C 
ATOM      7  C   UNL     1      33.662 -21.169 -19.558  0.00  0.00    +0.037 C 
ATOM      8  C   UNL     1      36.309 -21.402 -18.711  0.00  0.00    +0.003 C 
ATOM      9  C   UNL     1      34.680 -20.527 -20.263  0.00  0.00    +0.139 C 
ATOM     10  C   UNL     1      36.001 -20.643 -19.841  0.00  0.00    +0.037 C 
ENDROOT
BRANCH   1  11
ATOM     11  S   UNL     1      34.957 -24.430 -14.714  0.00  0.00    +0.061 S 
ATOM     12  O   UNL     1      34.002 -24.094 -13.677  0.00  0.00    -0.153 OA
ATOM     13  O   UNL     1      35.102 -25.803 -15.157  0.00  0.00    -0.153 OA
BRANCH  11  14
ATOM     14  N   UNL     1      36.488 -23.824 -14.291  0.00  0.00    -0.170 NA
ATOM     15  H   UNL     1      36.333 -23.079 -13.612  0.00  0.00    +0.149 HD
BRANCH  14  16
ATOM     16  C   UNL     1      37.504 -24.727 -13.708  0.00  0.00    +0.174 C 
BRANCH  16  18
ATOM     17  O   UNL     1      39.684 -25.438 -14.520  0.00  0.00    -0.249 OA
ATOM     18  C   UNL     1      38.741 -24.658 -14.570  0.00  0.00    +0.330 C 
BRANCH  18  19
ATOM     19  O   UNL     1      38.696 -23.622 -15.449  0.00  0.00    -0.479 OA
ATOM     20  H   UNL     1      37.984 -23.015 -15.421  0.00  0.00    +0.295 HD
ENDBRANCH  18  19
ENDBRANCH  16  18
BRANCH  16  21
ATOM     21  C   UNL     1      37.737 -24.391 -12.230  0.00  0.00    +0.040 C 
BRANCH  21  22
ATOM     22  C   UNL     1      36.664 -23.537 -11.549  0.00  0.00    +0.111 C 
BRANCH  22  24
ATOM     23  O   UNL     1      35.965 -24.200  -9.333  0.00  0.00    -0.250 OA
ATOM     24  C   UNL     1      35.828 -24.293 -10.547  0.00  0.00    +0.314 C 
BRANCH  24  25
ATOM     25  O   UNL     1      34.912 -25.105 -11.131  0.00  0.00    -0.480 OA
ATOM     26  H   UNL     1      34.883 -25.181 -12.065  0.00  0.00    +0.295 HD
ENDBRANCH  24  25
ENDBRANCH  22  24
ENDBRANCH  21  22
ENDBRANCH  16  21
ENDBRANCH  14  16
ENDBRANCH  11  14
ENDBRANCH   1  11
BRANCH   9  27
ATOM     27  O   UNL     1      34.382 -19.787 -21.366  0.00  0.00    -0.471 OA
BRANCH  27  28
ATOM     28  C   UNL     1      35.469 -19.148 -22.033  0.00  0.00    +0.234 C 
BRANCH  28  30
ATOM     29  F   UNL     1      34.104 -19.552 -24.480  0.00  0.00    -0.204 F 
ATOM     30  C   UNL     1      34.938 -18.022 -22.869  0.00  0.00    +0.049 C 
ATOM     31  C   UNL     1      34.275 -18.289 -24.066  0.00  0.00    +0.140 C 
ATOM     32  C   UNL     1      35.109 -16.703 -22.446  0.00  0.00    +0.002 C 
ATOM     33  C   UNL     1      33.782 -17.238 -24.840  0.00  0.00    +0.040 C 
ATOM     34  C   UNL     1      34.617 -15.652 -23.221  0.00  0.00    +0.010 C 
ATOM     35  C   UNL     1      33.954 -15.920 -24.418  0.00  0.00    +0.071 C 
BRANCH  35  37
ATOM     36  N   UNL     1      33.038 -13.969 -25.854  0.00  0.00    -0.191 NA
ATOM     37  C   UNL     1      33.448 -14.844 -25.211  0.00  0.00    +0.100 C 
ENDBRANCH  35  37
ENDBRANCH  28  30
ENDBRANCH  27  28
ENDBRANCH   9  27
TORSDOF 13
ENDMDL
MODEL 4
REMARK VINA RESULT:     -11.5      1.783      2.541
REMARK  Name = 25058128
REMARK  13 active torsions:
REMARK  status: ('A' for Active; 'I' for Inactive)
REMARK    1  A    between atoms: C_1  and  S_11
REMARK    2  A    between atoms: C_9  and  O_27
REMARK    3  A    between atoms: S_11  and  N_14
REMARK    4  A    between atoms: N_14  and  C_16
REMARK    5  A    between atoms: C_16  and  C_18
REMARK    6  A    between atoms: C_16  and  C_21
REMARK    7  A    between atoms: C_18  and  O_19
REMARK    8  A    between atoms: C_21  and  C_22
REMARK    9  A    between atoms: C_22  and  C_24
REMARK   10  A    between atoms: C_24  and  O_25
REMARK   11  A    between atoms: O_27  and  C_28
REMARK   12  A    between atoms: C_28  and  C_30
REMARK   13  A    between atoms: C_35  and  C_37
REMARK                            x       y       z     vdW  Elec       q    Type
REMARK                         _______ _______ _______ _____ _____    ______ ____
ROOT
ATOM      1  C   UNL     1      34.124 -23.246 -16.133  0.00  0.00    +0.122 C 
ATOM      2  C   UNL     1      34.970 -21.987 -18.034  0.00  0.00    +0.002 C 
ATOM      3  C   UNL     1      35.192 -22.707 -16.848  0.00  0.00    +0.020 C 
ATOM      4  C   UNL     1      33.644 -21.814 -18.500  0.00  0.00    +0.003 C 
ATOM      5  C   UNL     1      32.822 -23.077 -16.591  0.00  0.00    +0.020 C 
ATOM      6  C   UNL     1      32.581 -22.366 -17.767  0.00  0.00    +0.001 C 
ATOM      7  C   UNL     1      33.421 -21.095 -19.686  0.00  0.00    +0.037 C 
ATOM      8  C   UNL     1      36.033 -21.435 -18.768  0.00  0.00    +0.003 C 
ATOM      9  C   UNL     1      34.490 -20.554 -20.402  0.00  0.00    +0.139 C 
ATOM     10  C   UNL     1      35.793 -20.724 -19.944  0.00  0.00    +0.037 C 
ENDROOT
BRANCH   1  11
ATOM     11  S   UNL     1      34.426 -24.149 -14.642  0.00  0.00    +0.061 S 
ATOM     12  O   UNL     1      35.014 -23.239 -13.680  0.00  0.00    -0.153 OA
ATOM     13  O   UNL     1      33.203 -24.859 -14.324  0.00  0.00    -0.153 OA
BRANCH  11  14
ATOM     14  N   UNL     1      35.598 -25.272 -15.146  0.00  0.00    -0.170 NA
ATOM     15  H   UNL     1      36.094 -24.850 -15.931  0.00  0.00    +0.149 HD
BRANCH  14  16
ATOM     16  C   UNL     1      36.629 -25.742 -14.194  0.00  0.00    +0.174 C 
BRANCH  16  18
ATOM     17  O   UNL     1      38.353 -27.446 -14.386  0.00  0.00    -0.249 OA
ATOM     18  C   UNL     1      37.323 -26.934 -14.807  0.00  0.00    +0.330 C 
BRANCH  18  19
ATOM     19  O   UNL     1      36.661 -27.410 -15.894  0.00  0.00    -0.479 OA
ATOM     20  H   UNL     1      36.161 -26.827 -16.430  0.00  0.00    +0.295 HD
ENDBRANCH  18  19
ENDBRANCH  16  18
BRANCH  16  21
ATOM     21  C   UNL     1      37.563 -24.591 -13.803  0.00  0.00    +0.040 C 
BRANCH  21  22
ATOM     22  C   UNL     1      38.287 -24.726 -12.461  0.00  0.00    +0.111 C 
BRANCH  22  24
ATOM     23  O   UNL     1      36.940 -24.250 -10.512  0.00  0.00    -0.250 OA
ATOM     24  C   UNL     1      37.720 -23.853 -11.370  0.00  0.00    +0.314 C 
BRANCH  24  25
ATOM     25  O   UNL     1      38.150 -22.569 -11.446  0.00  0.00    -0.480 OA
ATOM     26  H   UNL     1      37.777 -21.988 -12.080  0.00  0.00    +0.295 HD
ENDBRANCH  24  25
ENDBRANCH  22  24
ENDBRANCH  21  22
ENDBRANCH  16  21
ENDBRANCH  14  16
ENDBRANCH  11  14
ENDBRANCH   1  11
BRANCH   9  27
ATOM     27  O   UNL     1      34.258 -19.861 -21.550  0.00  0.00    -0.471 OA
BRANCH  27  28
ATOM     28  C   UNL     1      35.369 -19.189 -22.139  0.00  0.00    +0.234 C 
BRANCH  28  30
ATOM     29  F   UNL     1      34.020 -19.505 -24.608  0.00  0.00    -0.204 F 
ATOM     30  C   UNL     1      34.868 -18.032 -22.951  0.00  0.00    +0.049 C 
ATOM     31  C   UNL     1      34.211 -18.256 -24.161  0.00  0.00    +0.140 C 
ATOM     32  C   UNL     1      35.061 -16.728 -22.493  0.00  0.00    +0.002 C 
ATOM     33  C   UNL     1      33.747 -17.176 -24.913  0.00  0.00    +0.040 C 
ATOM     34  C   UNL     1      34.598 -15.649 -23.247  0.00  0.00    +0.010 C 
ATOM     35  C   UNL     1      33.941 -15.873 -24.456  0.00  0.00    +0.071 C 
BRANCH  35  37
ATOM     36  N   UNL     1      33.076 -13.871 -25.852  0.00  0.00    -0.191 NA
ATOM     37  C   UNL     1      33.464 -14.768 -25.226  0.00  0.00    +0.100 C 
ENDBRANCH  35  37
ENDBRANCH  28  30
ENDBRANCH  27  28
ENDBRANCH   9  27
TORSDOF 13
ENDMDL
MODEL 5
REMARK VINA RESULT:     -11.3      1.358      2.964
REMARK  Name = 25058128
REMARK  13 active torsions:
REMARK  status: ('A' for Active; 'I' for Inactive)
REMARK    1  A    between atoms: C_1  and  S_11
REMARK    2  A    between atoms: C_9  and  O_27
REMARK    3  A    between atoms: S_11  and  N_14
REMARK    4  A    between atoms: N_14  and  C_16
REMARK    5  A    between atoms: C_16  and  C_18
REMARK    6  A    between atoms: C_16  and  C_21
REMARK    7  A    between atoms: C_18  and  O_19
REMARK    8  A    between atoms: C_21  and  C_22
REMARK    9  A    between atoms: C_22  and  C_24
REMARK   10  A    between atoms: C_24  and  O_25
REMARK   11  A    between atoms: O_27  and  C_28
REMARK   12  A    between atoms: C_28  and  C_30
REMARK   13  A    between atoms: C_35  and  C_37
REMARK                            x       y       z     vdW  Elec       q    Type
REMARK                         _______ _______ _______ _____ _____    ______ ____
ROOT
ATOM      1  C   UNL     1      35.542 -23.200 -15.614  0.00  0.00    +0.122 C 
ATOM      2  C   UNL     1      34.418 -22.336 -17.591  0.00  0.00    +0.002 C 
ATOM      3  C   UNL     1      34.383 -23.033 -16.372  0.00  0.00    +0.020 C 
ATOM      4  C   UNL     1      35.647 -21.801 -18.046  0.00  0.00    +0.003 C 
ATOM      5  C   UNL     1      36.749 -22.673 -16.061  0.00  0.00    +0.020 C 
ATOM      6  C   UNL     1      36.803 -21.977 -17.270  0.00  0.00    +0.001 C 
ATOM      7  C   UNL     1      35.683 -21.103 -19.265  0.00  0.00    +0.037 C 
ATOM      8  C   UNL     1      33.262 -22.159 -18.368  0.00  0.00    +0.003 C 
ATOM      9  C   UNL     1      34.523 -20.937 -20.024  0.00  0.00    +0.139 C 
ATOM     10  C   UNL     1      33.316 -21.464 -19.577  0.00  0.00    +0.037 C 
ENDROOT
BRANCH   1  11
ATOM     11  S   UNL     1      35.476 -24.081 -14.082  0.00  0.00    +0.061 S 
ATOM     12  O   UNL     1      34.207 -23.782 -13.449  0.00  0.00    -0.153 OA
ATOM     13  O   UNL     1      35.844 -25.454 -14.369  0.00  0.00    -0.153 OA
BRANCH  11  14
ATOM     14  N   UNL     1      36.732 -23.347 -13.204  0.00  0.00    -0.170 NA
ATOM     15  H   UNL     1      36.313 -22.585 -12.670  0.00  0.00    +0.149 HD
BRANCH  14  16
ATOM     16  C   UNL     1      37.532 -24.147 -12.250  0.00  0.00    +0.174 C 
BRANCH  16  18
ATOM     17  O   UNL     1      36.550 -24.017 -10.029  0.00  0.00    -0.249 OA
ATOM     18  C   UNL     1      36.626 -24.570 -11.119  0.00  0.00    +0.330 C 
BRANCH  18  19
ATOM     19  O   UNL     1      35.866 -25.647 -11.447  0.00  0.00    -0.479 OA
ATOM     20  H   UNL     1      36.266 -26.404 -11.827  0.00  0.00    +0.295 HD
ENDBRANCH  18  19
ENDBRANCH  16  18
BRANCH  16  21
ATOM     21  C   UNL     1      38.232 -25.303 -12.974  0.00  0.00    +0.040 C 
BRANCH  21  22
ATOM     22  C   UNL     1      39.191 -24.919 -14.104  0.00  0.00    +0.111 C 
BRANCH  22  24
ATOM     23  O   UNL     1      40.846 -26.575 -13.510  0.00  0.00    -0.250 OA
ATOM     24  C   UNL     1      40.252 -25.953 -14.382  0.00  0.00    +0.314 C 
BRANCH  24  25
ATOM     25  O   UNL     1      40.497 -26.113 -15.707  0.00  0.00    -0.480 OA
ATOM     26  H   UNL     1      39.850 -26.509 -16.257  0.00  0.00    +0.295 HD
ENDBRANCH  24  25
ENDBRANCH  22  24
ENDBRANCH  21  22
ENDBRANCH  16  21
ENDBRANCH  14  16
ENDBRANCH  11  14
ENDBRANCH   1  11
BRANCH   9  27
ATOM     27  O   UNL     1      34.574 -20.257 -21.202  0.00  0.00    -0.471 OA
BRANCH  27  28
ATOM     28  C   UNL     1      35.561 -19.234 -21.321  0.00  0.00    +0.234 C 
BRANCH  28  30
ATOM     29  F   UNL     1      34.607 -19.937 -23.891  0.00  0.00    -0.204 F 
ATOM     30  C   UNL     1      35.099 -18.222 -22.326  0.00  0.00    +0.049 C 
ATOM     31  C   UNL     1      34.640 -18.634 -23.577  0.00  0.00    +0.140 C 
ATOM     32  C   UNL     1      35.129 -16.864 -22.008  0.00  0.00    +0.002 C 
ATOM     33  C   UNL     1      34.212 -17.689 -24.510  0.00  0.00    +0.040 C 
ATOM     34  C   UNL     1      34.701 -15.919 -22.941  0.00  0.00    +0.010 C 
ATOM     35  C   UNL     1      34.243 -16.332 -24.192  0.00  0.00    +0.071 C 
BRANCH  35  37
ATOM     36  N   UNL     1      33.443 -14.579 -25.923  0.00  0.00    -0.191 NA
ATOM     37  C   UNL     1      33.802 -15.364 -25.147  0.00  0.00    +0.100 C 
ENDBRANCH  35  37
ENDBRANCH  28  30
ENDBRANCH  27  28
ENDBRANCH   9  27
TORSDOF 13
ENDMDL
MODEL 6
REMARK VINA RESULT:     -11.0      2.941      4.771
REMARK  Name = 25058128
REMARK  13 active torsions:
REMARK  status: ('A' for Active; 'I' for Inactive)
REMARK    1  A    between atoms: C_1  and  S_11
REMARK    2  A    between atoms: C_9  and  O_27
REMARK    3  A    between atoms: S_11  and  N_14
REMARK    4  A    between atoms: N_14  and  C_16
REMARK    5  A    between atoms: C_16  and  C_18
REMARK    6  A    between atoms: C_16  and  C_21
REMARK    7  A    between atoms: C_18  and  O_19
REMARK    8  A    between atoms: C_21  and  C_22
REMARK    9  A    between atoms: C_22  and  C_24
REMARK   10  A    between atoms: C_24  and  O_25
REMARK   11  A    between atoms: O_27  and  C_28
REMARK   12  A    between atoms: C_28  and  C_30
REMARK   13  A    between atoms: C_35  and  C_37
REMARK                            x       y       z     vdW  Elec       q    Type
REMARK                         _______ _______ _______ _____ _____    ______ ____
ROOT
ATOM      1  C   UNL     1      34.627 -22.763 -16.875  0.00  0.00    +0.122 C 
ATOM      2  C   UNL     1      35.278 -21.413 -18.790  0.00  0.00    +0.002 C 
ATOM      3  C   UNL     1      35.610 -22.109 -17.617  0.00  0.00    +0.020 C 
ATOM      4  C   UNL     1      33.929 -21.380 -19.217  0.00  0.00    +0.003 C 
ATOM      5  C   UNL     1      33.301 -22.731 -17.294  0.00  0.00    +0.020 C 
ATOM      6  C   UNL     1      32.952 -22.044 -18.458  0.00  0.00    +0.001 C 
ATOM      7  C   UNL     1      33.596 -20.684 -20.391  0.00  0.00    +0.037 C 
ATOM      8  C   UNL     1      36.255 -20.748 -19.550  0.00  0.00    +0.003 C 
ATOM      9  C   UNL     1      34.580 -20.029 -21.133  0.00  0.00    +0.139 C 
ATOM     10  C   UNL     1      35.906 -20.061 -20.714  0.00  0.00    +0.037 C 
ENDROOT
BRANCH   1  11
ATOM     11  S   UNL     1      35.066 -23.634 -15.400  0.00  0.00    +0.061 S 
ATOM     12  O   UNL     1      34.980 -25.054 -15.677  0.00  0.00    -0.153 OA
ATOM     13  O   UNL     1      36.308 -23.057 -14.923  0.00  0.00    -0.153 OA
BRANCH  11  14
ATOM     14  N   UNL     1      33.812 -23.188 -14.344  0.00  0.00    -0.170 NA
ATOM     15  H   UNL     1      33.561 -22.225 -14.574  0.00  0.00    +0.149 HD
BRANCH  14  16
ATOM     16  C   UNL     1      32.552 -23.963 -14.324  0.00  0.00    +0.174 C 
BRANCH  16  18
ATOM     17  O   UNL     1      31.544 -25.385 -12.628  0.00  0.00    -0.249 OA
ATOM     18  C   UNL     1      32.508 -24.751 -13.037  0.00  0.00    +0.330 C 
BRANCH  18  19
ATOM     19  O   UNL     1      33.689 -24.702 -12.366  0.00  0.00    -0.479 OA
ATOM     20  H   UNL     1      34.391 -24.175 -12.691  0.00  0.00    +0.295 HD
ENDBRANCH  18  19
ENDBRANCH  16  18
BRANCH  16  21
ATOM     21  C   UNL     1      31.349 -23.039 -14.547  0.00  0.00    +0.040 C 
BRANCH  21  22
ATOM     22  C   UNL     1      30.106 -23.677 -15.174  0.00  0.00    +0.111 C 
BRANCH  22  24
ATOM     23  O   UNL     1      28.848 -22.463 -16.841  0.00  0.00    -0.250 OA
ATOM     24  C   UNL     1      29.086 -22.679 -15.658  0.00  0.00    +0.314 C 
BRANCH  24  25
ATOM     25  O   UNL     1      28.465 -22.026 -14.645  0.00  0.00    -0.480 OA
ATOM     26  H   UNL     1      28.850 -21.251 -14.282  0.00  0.00    +0.295 HD
ENDBRANCH  24  25
ENDBRANCH  22  24
ENDBRANCH  21  22
ENDBRANCH  16  21
ENDBRANCH  14  16
ENDBRANCH  11  14
ENDBRANCH   1  11
BRANCH   9  27
ATOM     27  O   UNL     1      34.242 -19.360 -22.269  0.00  0.00    -0.471 OA
BRANCH  27  28
ATOM     28  C   UNL     1      35.278 -18.633 -22.927  0.00  0.00    +0.234 C 
BRANCH  28  30
ATOM     29  F   UNL     1      34.436 -17.387 -25.325  0.00  0.00    -0.204 F 
ATOM     30  C   UNL     1      34.889 -17.186 -23.004  0.00  0.00    +0.049 C 
ATOM     31  C   UNL     1      34.484 -16.633 -24.218  0.00  0.00    +0.140 C 
ATOM     32  C   UNL     1      34.934 -16.394 -21.857  0.00  0.00    +0.002 C 
ATOM     33  C   UNL     1      34.123 -15.287 -24.285  0.00  0.00    +0.040 C 
ATOM     34  C   UNL     1      34.573 -15.047 -21.925  0.00  0.00    +0.010 C 
ATOM     35  C   UNL     1      34.168 -14.494 -23.139  0.00  0.00    +0.071 C 
BRANCH  35  37
ATOM     36  N   UNL     1      33.496 -11.996 -23.264  0.00  0.00    -0.191 NA
ATOM     37  C   UNL     1      33.797 -13.116 -23.208  0.00  0.00    +0.100 C 
ENDBRANCH  35  37
ENDBRANCH  28  30
ENDBRANCH  27  28
ENDBRANCH   9  27
TORSDOF 13
ENDMDL
MODEL 7
REMARK VINA RESULT:     -11.0      2.755      4.361
REMARK  Name = 25058128
REMARK  13 active torsions:
REMARK  status: ('A' for Active; 'I' for Inactive)
REMARK    1  A    between atoms: C_1  and  S_11
REMARK    2  A    between atoms: C_9  and  O_27
REMARK    3  A    between atoms: S_11  and  N_14
REMARK    4  A    between atoms: N_14  and  C_16
REMARK    5  A    between atoms: C_16  and  C_18
REMARK    6  A    between atoms: C_16  and  C_21
REMARK    7  A    between atoms: C_18  and  O_19
REMARK    8  A    between atoms: C_21  and  C_22
REMARK    9  A    between atoms: C_22  and  C_24
REMARK   10  A    between atoms: C_24  and  O_25
REMARK   11  A    between atoms: O_27  and  C_28
REMARK   12  A    between atoms: C_28  and  C_30
REMARK   13  A    between atoms: C_35  and  C_37
REMARK                            x       y       z     vdW  Elec       q    Type
REMARK                         _______ _______ _______ _____ _____    ______ ____
ROOT
ATOM      1  C   UNL     1      35.479 -22.846 -16.384  0.00  0.00    +0.122 C 
ATOM      2  C   UNL     1      34.376 -21.838 -18.303  0.00  0.00    +0.002 C 
ATOM      3  C   UNL     1      34.322 -22.594 -17.121  0.00  0.00    +0.020 C 
ATOM      4  C   UNL     1      35.623 -21.331 -18.743  0.00  0.00    +0.003 C 
ATOM      5  C   UNL     1      36.704 -22.347 -16.816  0.00  0.00    +0.020 C 
ATOM      6  C   UNL     1      36.777 -21.594 -17.988  0.00  0.00    +0.001 C 
ATOM      7  C   UNL     1      35.677 -20.574 -19.925  0.00  0.00    +0.037 C 
ATOM      8  C   UNL     1      33.222 -21.575 -19.059  0.00  0.00    +0.003 C 
ATOM      9  C   UNL     1      34.520 -20.322 -20.663  0.00  0.00    +0.139 C 
ATOM     10  C   UNL     1      33.295 -20.821 -20.231  0.00  0.00    +0.037 C 
ENDROOT
BRANCH   1  11
ATOM     11  S   UNL     1      35.389 -23.800 -14.898  0.00  0.00    +0.061 S 
ATOM     12  O   UNL     1      35.168 -25.184 -15.268  0.00  0.00    -0.153 OA
ATOM     13  O   UNL     1      36.537 -23.434 -14.091  0.00  0.00    -0.153 OA
BRANCH  11  14
ATOM     14  N   UNL     1      33.984 -23.180 -14.169  0.00  0.00    -0.170 NA
ATOM     15  H   UNL     1      33.878 -22.221 -14.501  0.00  0.00    +0.149 HD
BRANCH  14  16
ATOM     16  C   UNL     1      32.683 -23.851 -14.383  0.00  0.00    +0.174 C 
BRANCH  16  18
ATOM     17  O   UNL     1      31.285 -25.117 -12.848  0.00  0.00    -0.249 OA
ATOM     18  C   UNL     1      32.391 -24.701 -13.170  0.00  0.00    +0.330 C 
BRANCH  18  19
ATOM     19  O   UNL     1      33.514 -24.984 -12.460  0.00  0.00    -0.479 OA
ATOM     20  H   UNL     1      33.445 -25.314 -11.586  0.00  0.00    +0.295 HD
ENDBRANCH  18  19
ENDBRANCH  16  18
BRANCH  16  21
ATOM     21  C   UNL     1      31.597 -22.821 -14.717  0.00  0.00    +0.040 C 
BRANCH  21  22
ATOM     22  C   UNL     1      30.602 -23.212 -15.814  0.00  0.00    +0.111 C 
BRANCH  22  24
ATOM     23  O   UNL     1      28.501 -22.232 -15.134  0.00  0.00    -0.250 OA
ATOM     24  C   UNL     1      29.166 -23.237 -15.355  0.00  0.00    +0.314 C 
BRANCH  24  25
ATOM     25  O   UNL     1      28.687 -24.495 -15.193  0.00  0.00    -0.480 OA
ATOM     26  H   UNL     1      28.547 -25.042 -15.942  0.00  0.00    +0.295 HD
ENDBRANCH  24  25
ENDBRANCH  22  24
ENDBRANCH  21  22
ENDBRANCH  16  21
ENDBRANCH  14  16
ENDBRANCH  11  14
ENDBRANCH   1  11
BRANCH   9  27
ATOM     27  O   UNL     1      34.589 -19.586 -21.806  0.00  0.00    -0.471 OA
BRANCH  27  28
ATOM     28  C   UNL     1      35.464 -18.459 -21.801  0.00  0.00    +0.234 C 
BRANCH  28  30
ATOM     29  F   UNL     1      35.126 -15.762 -21.009  0.00  0.00    -0.204 F 
ATOM     30  C   UNL     1      34.908 -17.403 -22.711  0.00  0.00    +0.049 C 
ATOM     31  C   UNL     1      34.766 -16.092 -22.258  0.00  0.00    +0.140 C 
ATOM     32  C   UNL     1      34.532 -17.736 -24.012  0.00  0.00    +0.002 C 
ATOM     33  C   UNL     1      34.248 -15.113 -23.107  0.00  0.00    +0.040 C 
ATOM     34  C   UNL     1      34.013 -16.757 -24.860  0.00  0.00    +0.010 C 
ATOM     35  C   UNL     1      33.871 -15.446 -24.408  0.00  0.00    +0.071 C 
BRANCH  35  37
ATOM     36  N   UNL     1      32.911 -13.629 -25.983  0.00  0.00    -0.191 NA
ATOM     37  C   UNL     1      33.342 -14.443 -25.277  0.00  0.00    +0.100 C 
ENDBRANCH  35  37
ENDBRANCH  28  30
ENDBRANCH  27  28
ENDBRANCH   9  27
TORSDOF 13
ENDMDL
MODEL 8
REMARK VINA RESULT:     -10.9      1.516      1.853
REMARK  Name = 25058128
REMARK  13 active torsions:
REMARK  status: ('A' for Active; 'I' for Inactive)
REMARK    1  A    between atoms: C_1  and  S_11
REMARK    2  A    between atoms: C_9  and  O_27
REMARK    3  A    between atoms: S_11  and  N_14
REMARK    4  A    between atoms: N_14  and  C_16
REMARK    5  A    between atoms: C_16  and  C_18
REMARK    6  A    between atoms: C_16  and  C_21
REMARK    7  A    between atoms: C_18  and  O_19
REMARK    8  A    between atoms: C_21  and  C_22
REMARK    9  A    between atoms: C_22  and  C_24
REMARK   10  A    between atoms: C_24  and  O_25
REMARK   11  A    between atoms: O_27  and  C_28
REMARK   12  A    between atoms: C_28  and  C_30
REMARK   13  A    between atoms: C_35  and  C_37
REMARK                            x       y       z     vdW  Elec       q    Type
REMARK                         _______ _______ _______ _____ _____    ______ ____
ROOT
ATOM      1  C   UNL     1      35.149 -22.742 -16.657  0.00  0.00    +0.122 C 
ATOM      2  C   UNL     1      34.118 -21.660 -18.576  0.00  0.00    +0.002 C 
ATOM      3  C   UNL     1      34.012 -22.414 -17.396  0.00  0.00    +0.020 C 
ATOM      4  C   UNL     1      35.396 -21.235 -19.013  0.00  0.00    +0.003 C 
ATOM      5  C   UNL     1      36.404 -22.324 -17.086  0.00  0.00    +0.020 C 
ATOM      6  C   UNL     1      36.529 -21.574 -18.257  0.00  0.00    +0.001 C 
ATOM      7  C   UNL     1      35.502 -20.481 -20.193  0.00  0.00    +0.037 C 
ATOM      8  C   UNL     1      32.985 -21.320 -19.334  0.00  0.00    +0.003 C 
ATOM      9  C   UNL     1      34.365 -20.152 -20.933  0.00  0.00    +0.139 C 
ATOM     10  C   UNL     1      33.110 -20.571 -20.504  0.00  0.00    +0.037 C 
ENDROOT
BRANCH   1  11
ATOM     11  S   UNL     1      34.993 -23.692 -15.173  0.00  0.00    +0.061 S 
ATOM     12  O   UNL     1      34.948 -22.770 -14.056  0.00  0.00    -0.153 OA
ATOM     13  O   UNL     1      33.912 -24.634 -15.387  0.00  0.00    -0.153 OA
BRANCH  11  14
ATOM     14  N   UNL     1      36.465 -24.541 -15.147  0.00  0.00    -0.170 NA
ATOM     15  H   UNL     1      37.201 -23.852 -14.988  0.00  0.00    +0.149 HD
BRANCH  14  16
ATOM     16  C   UNL     1      36.675 -25.625 -14.162  0.00  0.00    +0.174 C 
BRANCH  16  18
ATOM     17  O   UNL     1      36.642 -27.411 -15.812  0.00  0.00    -0.249 OA
ATOM     18  C   UNL     1      37.212 -26.828 -14.898  0.00  0.00    +0.330 C 
BRANCH  18  19
ATOM     19  O   UNL     1      38.438 -27.201 -14.446  0.00  0.00    -0.479 OA
ATOM     20  H   UNL     1      38.534 -27.985 -13.942  0.00  0.00    +0.295 HD
ENDBRANCH  18  19
ENDBRANCH  16  18
BRANCH  16  21
ATOM     21  C   UNL     1      37.559 -25.136 -13.007  0.00  0.00    +0.040 C 
BRANCH  21  22
ATOM     22  C   UNL     1      36.831 -24.659 -11.747  0.00  0.00    +0.111 C 
BRANCH  22  24
ATOM     23  O   UNL     1      37.031 -22.844 -10.167  0.00  0.00    -0.250 OA
ATOM     24  C   UNL     1      37.560 -23.575 -10.995  0.00  0.00    +0.314 C 
BRANCH  24  25
ATOM     25  O   UNL     1      38.867 -23.478 -11.344  0.00  0.00    -0.480 OA
ATOM     26  H   UNL     1      39.102 -23.341 -12.241  0.00  0.00    +0.295 HD
ENDBRANCH  24  25
ENDBRANCH  22  24
ENDBRANCH  21  22
ENDBRANCH  16  21
ENDBRANCH  14  16
ENDBRANCH  11  14
ENDBRANCH   1  11
BRANCH   9  27
ATOM     27  O   UNL     1      34.485 -19.420 -22.074  0.00  0.00    -0.471 OA
BRANCH  27  28
ATOM     28  C   UNL     1      35.373 -18.304 -22.040  0.00  0.00    +0.234 C 
BRANCH  28  30
ATOM     29  F   UNL     1      34.984 -15.635 -21.181  0.00  0.00    -0.204 F 
ATOM     30  C   UNL     1      34.840 -17.226 -22.937  0.00  0.00    +0.049 C 
ATOM     31  C   UNL     1      34.671 -15.929 -22.450  0.00  0.00    +0.140 C 
ATOM     32  C   UNL     1      34.513 -17.522 -24.260  0.00  0.00    +0.002 C 
ATOM     33  C   UNL     1      34.174 -14.930 -23.287  0.00  0.00    +0.040 C 
ATOM     34  C   UNL     1      34.016 -16.522 -25.096  0.00  0.00    +0.010 C 
ATOM     35  C   UNL     1      33.846 -15.226 -24.610  0.00  0.00    +0.071 C 
BRANCH  35  37
ATOM     36  N   UNL     1      32.929 -13.369 -26.164  0.00  0.00    -0.191 NA
ATOM     37  C   UNL     1      33.340 -14.201 -25.467  0.00  0.00    +0.100 C 
ENDBRANCH  35  37
ENDBRANCH  28  30
ENDBRANCH  27  28
ENDBRANCH   9  27
TORSDOF 13
ENDMDL
MODEL 9
REMARK VINA RESULT:     -10.6      3.447     11.251
REMARK  Name = 25058128
REMARK  13 active torsions:
REMARK  status: ('A' for Active; 'I' for Inactive)
REMARK    1  A    between atoms: C_1  and  S_11
REMARK    2  A    between atoms: C_9  and  O_27
REMARK    3  A    between atoms: S_11  and  N_14
REMARK    4  A    between atoms: N_14  and  C_16
REMARK    5  A    between atoms: C_16  and  C_18
REMARK    6  A    between atoms: C_16  and  C_21
REMARK    7  A    between atoms: C_18  and  O_19
REMARK    8  A    between atoms: C_21  and  C_22
REMARK    9  A    between atoms: C_22  and  C_24
REMARK   10  A    between atoms: C_24  and  O_25
REMARK   11  A    between atoms: O_27  and  C_28
REMARK   12  A    between atoms: C_28  and  C_30
REMARK   13  A    between atoms: C_35  and  C_37
REMARK                            x       y       z     vdW  Elec       q    Type
REMARK                         _______ _______ _______ _____ _____    ______ ____
ROOT
ATOM      1  C   UNL     1      35.262 -19.824 -20.988  0.00  0.00    +0.122 C 
ATOM      2  C   UNL     1      34.066 -21.195 -19.374  0.00  0.00    +0.002 C 
ATOM      3  C   UNL     1      34.066 -20.323 -20.475  0.00  0.00    +0.020 C 
ATOM      4  C   UNL     1      35.299 -21.565 -18.785  0.00  0.00    +0.003 C 
ATOM      5  C   UNL     1      36.475 -20.189 -20.410  0.00  0.00    +0.020 C 
ATOM      6  C   UNL     1      36.494 -21.054 -19.316  0.00  0.00    +0.001 C 
ATOM      7  C   UNL     1      35.300 -22.437 -17.684  0.00  0.00    +0.037 C 
ATOM      8  C   UNL     1      32.871 -21.707 -18.843  0.00  0.00    +0.003 C 
ATOM      9  C   UNL     1      34.103 -22.936 -17.170  0.00  0.00    +0.139 C 
ATOM     10  C   UNL     1      32.891 -22.572 -17.748  0.00  0.00    +0.037 C 
ENDROOT
BRANCH   1  11
ATOM     11  S   UNL     1      35.240 -18.728 -22.376  0.00  0.00    +0.061 S 
ATOM     12  O   UNL     1      36.556 -18.747 -22.982  0.00  0.00    -0.153 OA
ATOM     13  O   UNL     1      34.069 -19.067 -23.162  0.00  0.00    -0.153 OA
BRANCH  11  14
ATOM     14  N   UNL     1      34.984 -17.224 -21.628  0.00  0.00    -0.170 NA
ATOM     15  H   UNL     1      35.883 -16.924 -21.251  0.00  0.00    +0.149 HD
BRANCH  14  16
ATOM     16  C   UNL     1      34.451 -16.089 -22.414  0.00  0.00    +0.174 C 
BRANCH  16  18
ATOM     17  O   UNL     1      34.291 -14.938 -20.278  0.00  0.00    -0.249 OA
ATOM     18  C   UNL     1      34.354 -14.892 -21.500  0.00  0.00    +0.330 C 
BRANCH  18  19
ATOM     19  O   UNL     1      34.363 -13.720 -22.188  0.00  0.00    -0.479 OA
ATOM     20  H   UNL     1      34.823 -12.979 -21.845  0.00  0.00    +0.295 HD
ENDBRANCH  18  19
ENDBRANCH  16  18
BRANCH  16  21
ATOM     21  C   UNL     1      35.297 -15.864 -23.673  0.00  0.00    +0.040 C 
BRANCH  21  22
ATOM     22  C   UNL     1      34.653 -16.255 -25.006  0.00  0.00    +0.111 C 
BRANCH  22  24
ATOM     23  O   UNL     1      33.223 -14.310 -25.087  0.00  0.00    -0.250 OA
ATOM     24  C   UNL     1      33.383 -15.503 -25.314  0.00  0.00    +0.314 C 
BRANCH  24  25
ATOM     25  O   UNL     1      32.422 -16.292 -25.856  0.00  0.00    -0.480 OA
ATOM     26  H   UNL     1      32.136 -17.060 -25.401  0.00  0.00    +0.295 HD
ENDBRANCH  24  25
ENDBRANCH  22  24
ENDBRANCH  21  22
ENDBRANCH  16  21
ENDBRANCH  14  16
ENDBRANCH  11  14
ENDBRANCH   1  11
BRANCH   9  27
ATOM     27  O   UNL     1      34.120 -23.781 -16.103  0.00  0.00    -0.471 OA
BRANCH  27  28
ATOM     28  C   UNL     1      34.758 -23.314 -14.916  0.00  0.00    +0.234 C 
BRANCH  28  30
ATOM     29  F   UNL     1      37.260 -21.998 -15.063  0.00  0.00    -0.204 F 
ATOM     30  C   UNL     1      36.068 -24.027 -14.751  0.00  0.00    +0.049 C 
ATOM     31  C   UNL     1      37.266 -23.319 -14.835  0.00  0.00    +0.140 C 
ATOM     32  C   UNL     1      36.085 -25.401 -14.512  0.00  0.00    +0.002 C 
ATOM     33  C   UNL     1      38.482 -23.985 -14.682  0.00  0.00    +0.040 C 
ATOM     34  C   UNL     1      37.302 -26.067 -14.359  0.00  0.00    +0.010 C 
ATOM     35  C   UNL     1      38.500 -25.359 -14.444  0.00  0.00    +0.071 C 
BRANCH  35  37
ATOM     36  N   UNL     1      40.758 -26.594 -14.157  0.00  0.00    -0.191 NA
ATOM     37  C   UNL     1      39.746 -26.041 -14.285  0.00  0.00    +0.100 C 
ENDBRANCH  35  37
ENDBRANCH  28  30
ENDBRANCH  27  28
ENDBRANCH   9  27
TORSDOF 13
ENDMDL
