MODEL 1
REMARK VINA RESULT:     -11.9      0.000      0.000
REMARK  Name = 11538992
REMARK  4 active torsions:
REMARK  status: ('A' for Active; 'I' for Inactive)
REMARK    1  A    between atoms: C_1  and  N_7
REMARK    2  A    between atoms: C_3  and  C_24
REMARK    3  A    between atoms: C_4  and  N_30
REMARK    4  A    between atoms: C_15  and  C_20
REMARK                            x       y       z     vdW  Elec       q    Type
REMARK                         _______ _______ _______ _____ _____    ______ ____
ROOT
ATOM      1  C   UNL     1      34.724 -22.156 -18.918  0.00  0.00    -0.059 C 
ATOM      2  C   UNL     1      35.952 -21.242 -18.964  0.00  0.00    -0.042 C 
ATOM      3  C   UNL     1      34.678 -19.603 -20.436  0.00  0.00    +0.005 C 
ATOM      4  C   UNL     1      35.988 -20.413 -20.259  0.00  0.00    -0.064 C 
ATOM      5  C   UNL     1      33.432 -21.350 -19.075  0.00  0.00    -0.021 C 
ATOM      6  C   UNL     1      33.447 -20.527 -20.362  0.00  0.00    +0.000 C 
ENDROOT
BRANCH   1   7
ATOM      7  N   UNL     1      34.698 -22.890 -17.653  0.00  0.00    +0.394 N 
ATOM      8  N   UNL     1      34.469 -23.570 -14.963  0.00  0.00    -0.299 N 
ATOM      9  N   UNL     1      32.309 -23.874 -14.983  0.00  0.00    -0.136 NA
ATOM     10  N   UNL     1      32.810 -24.301 -13.763  0.00  0.00    -0.125 NA
ATOM     11  C   UNL     1      35.704 -22.356 -16.717  0.00  0.00    -0.052 C 
ATOM     12  C   UNL     1      33.345 -22.844 -17.059  0.00  0.00    -0.009 C 
ATOM     13  C   UNL     1      35.783 -23.230 -15.456  0.00  0.00    +0.086 C 
ATOM     14  C   UNL     1      33.325 -23.440 -15.697  0.00  0.00    +0.122 A 
ATOM     15  C   UNL     1      34.112 -24.110 -13.774  0.00  0.00    +0.238 A 
ATOM     16  H   UNL     1      34.932 -23.865 -17.841  0.00  0.00    -0.079 HD
BRANCH  15  20
ATOM     17  F   UNL     1      34.493 -24.959 -11.571  0.00  0.00    -0.163 F 
ATOM     18  F   UNL     1      36.034 -25.335 -13.050  0.00  0.00    -0.163 F 
ATOM     19  F   UNL     1      35.763 -23.331 -12.251  0.00  0.00    -0.163 F 
ATOM     20  C   UNL     1      35.067 -24.425 -12.699  0.00  0.00    +0.452 C 
ENDBRANCH  15  20
ENDBRANCH   1   7
BRANCH   3  24
ATOM     21  F   UNL     1      35.282 -16.831 -20.533  0.00  0.00    -0.204 F 
ATOM     22  F   UNL     1      33.958 -19.247 -25.257  0.00  0.00    -0.202 F 
ATOM     23  F   UNL     1      34.563 -16.583 -25.203  0.00  0.00    -0.202 F 
ATOM     24  C   UNL     1      34.647 -18.785 -21.721  0.00  0.00    +0.005 C 
ATOM     25  C   UNL     1      34.956 -17.429 -21.687  0.00  0.00    +0.138 C 
ATOM     26  C   UNL     1      34.310 -19.403 -22.921  0.00  0.00    +0.030 C 
ATOM     27  C   UNL     1      34.281 -18.658 -24.099  0.00  0.00    +0.167 C 
ATOM     28  C   UNL     1      34.927 -16.684 -22.866  0.00  0.00    +0.061 C 
ATOM     29  C   UNL     1      34.589 -17.298 -24.071  0.00  0.00    +0.170 C 
ENDBRANCH   3  24
BRANCH   4  30
ATOM     30  N   UNL     1      37.152 -19.520 -20.233  0.00  0.00    +0.382 N 
ATOM     31  H   UNL     1      37.733 -19.744 -19.426  0.00  0.00    -0.089 HD
ATOM     32  H   UNL     1      36.836 -18.553 -20.168  0.00  0.00    -0.089 HD
ATOM     33  H   UNL     1      37.694 -19.644 -21.088  0.00  0.00    -0.089 HD
ENDBRANCH   4  30
TORSDOF 4
ENDMDL
MODEL 2
REMARK VINA RESULT:     -11.9      1.213      1.988
REMARK  Name = 11538992
REMARK  4 active torsions:
REMARK  status: ('A' for Active; 'I' for Inactive)
REMARK    1  A    between atoms: C_1  and  N_7
REMARK    2  A    between atoms: C_3  and  C_24
REMARK    3  A    between atoms: C_4  and  N_30
REMARK    4  A    between atoms: C_15  and  C_20
REMARK                            x       y       z     vdW  Elec       q    Type
REMARK                         _______ _______ _______ _____ _____    ______ ____
ROOT
ATOM      1  C   UNL     1      35.263 -21.566 -19.548  0.00  0.00    -0.059 C 
ATOM      2  C   UNL     1      36.438 -20.585 -19.613  0.00  0.00    -0.042 C 
ATOM      3  C   UNL     1      35.004 -18.956 -20.944  0.00  0.00    +0.005 C 
ATOM      4  C   UNL     1      36.363 -19.701 -20.869  0.00  0.00    -0.064 C 
ATOM      5  C   UNL     1      33.925 -20.825 -19.603  0.00  0.00    -0.021 C 
ATOM      6  C   UNL     1      33.829 -19.949 -20.851  0.00  0.00    +0.000 C 
ENDROOT
BRANCH   1   7
ATOM      7  N   UNL     1      35.341 -22.353 -18.318  0.00  0.00    +0.394 N 
ATOM      8  N   UNL     1      35.236 -23.173 -15.659  0.00  0.00    -0.299 N 
ATOM      9  N   UNL     1      33.125 -23.722 -15.668  0.00  0.00    -0.136 NA
ATOM     10  N   UNL     1      33.691 -24.142 -14.475  0.00  0.00    -0.125 NA
ATOM     11  C   UNL     1      36.296 -21.750 -17.370  0.00  0.00    -0.052 C 
ATOM     12  C   UNL     1      34.002 -22.488 -17.706  0.00  0.00    -0.009 C 
ATOM     13  C   UNL     1      36.495 -22.664 -16.151  0.00  0.00    +0.086 C 
ATOM     14  C   UNL     1      34.073 -23.142 -16.374  0.00  0.00    +0.122 A 
ATOM     15  C   UNL     1      34.962 -23.803 -14.493  0.00  0.00    +0.238 A 
ATOM     16  H   UNL     1      35.682 -23.286 -18.553  0.00  0.00    -0.079 HD
BRANCH  15  20
ATOM     17  F   UNL     1      37.057 -24.774 -13.864  0.00  0.00    -0.163 F 
ATOM     18  F   UNL     1      36.501 -22.917 -12.889  0.00  0.00    -0.163 F 
ATOM     19  F   UNL     1      35.470 -24.763 -12.378  0.00  0.00    -0.163 F 
ATOM     20  C   UNL     1      35.965 -24.055 -13.444  0.00  0.00    +0.452 C 
ENDBRANCH  15  20
ENDBRANCH   1   7
BRANCH   3  24
ATOM     21  F   UNL     1      34.567 -20.015 -23.541  0.00  0.00    -0.204 F 
ATOM     22  F   UNL     1      34.900 -14.573 -23.104  0.00  0.00    -0.202 F 
ATOM     23  F   UNL     1      34.482 -15.729 -25.545  0.00  0.00    -0.202 F 
ATOM     24  C   UNL     1      34.864 -18.088 -22.187  0.00  0.00    +0.005 C 
ATOM     25  C   UNL     1      34.651 -18.682 -23.427  0.00  0.00    +0.138 C 
ATOM     26  C   UNL     1      34.948 -16.704 -22.072  0.00  0.00    +0.030 C 
ATOM     27  C   UNL     1      34.820 -15.906 -23.208  0.00  0.00    +0.167 C 
ATOM     28  C   UNL     1      34.522 -17.884 -24.563  0.00  0.00    +0.061 C 
ATOM     29  C   UNL     1      34.607 -16.496 -24.454  0.00  0.00    +0.170 C 
ENDBRANCH   3  24
BRANCH   4  30
ATOM     30  N   UNL     1      37.478 -18.748 -20.862  0.00  0.00    +0.382 N 
ATOM     31  H   UNL     1      38.136 -19.002 -20.126  0.00  0.00    -0.089 HD
ATOM     32  H   UNL     1      37.121 -17.809 -20.689  0.00  0.00    -0.089 HD
ATOM     33  H   UNL     1      37.951 -18.772 -21.765  0.00  0.00    -0.089 HD
ENDBRANCH   4  30
TORSDOF 4
ENDMDL
MODEL 3
REMARK VINA RESULT:     -10.9      7.623     11.669
REMARK  Name = 11538992
REMARK  4 active torsions:
REMARK  status: ('A' for Active; 'I' for Inactive)
REMARK    1  A    between atoms: C_1  and  N_7
REMARK    2  A    between atoms: C_3  and  C_24
REMARK    3  A    between atoms: C_4  and  N_30
REMARK    4  A    between atoms: C_15  and  C_20
REMARK                            x       y       z     vdW  Elec       q    Type
REMARK                         _______ _______ _______ _____ _____    ______ ____
ROOT
ATOM      1  C   UNL     1      33.124 -12.059 -23.325  0.00  0.00    -0.059 C 
ATOM      2  C   UNL     1      34.164 -10.950 -23.520  0.00  0.00    -0.042 C 
ATOM      3  C   UNL     1      32.823  -9.423 -21.988  0.00  0.00    +0.005 C 
ATOM      4  C   UNL     1      33.535  -9.556 -23.358  0.00  0.00    -0.064 C 
ATOM      5  C   UNL     1      32.437 -11.934 -21.963  0.00  0.00    -0.021 C 
ATOM      6  C   UNL     1      31.799 -10.558 -21.789  0.00  0.00    +0.000 C 
ENDROOT
BRANCH   1   7
ATOM      7  N   UNL     1      33.768 -13.368 -23.436  0.00  0.00    +0.394 N 
ATOM      8  N   UNL     1      34.258 -16.108 -23.497  0.00  0.00    -0.299 N 
ATOM      9  N   UNL     1      33.706 -16.397 -25.587  0.00  0.00    -0.136 NA
ATOM     10  N   UNL     1      34.271 -17.568 -25.107  0.00  0.00    -0.125 NA
ATOM     11  C   UNL     1      33.647 -14.120 -22.174  0.00  0.00    -0.052 C 
ATOM     12  C   UNL     1      33.193 -14.131 -24.564  0.00  0.00    -0.009 C 
ATOM     13  C   UNL     1      34.461 -15.421 -22.243  0.00  0.00    +0.086 C 
ATOM     14  C   UNL     1      33.710 -15.524 -24.603  0.00  0.00    +0.122 A 
ATOM     15  C   UNL     1      34.597 -17.370 -23.848  0.00  0.00    +0.238 A 
ATOM     16  H   UNL     1      34.762 -13.224 -23.621  0.00  0.00    -0.079 HD
BRANCH  15  20
ATOM     17  F   UNL     1      36.511 -17.986 -22.551  0.00  0.00    -0.163 F 
ATOM     18  F   UNL     1      34.566 -18.516 -21.749  0.00  0.00    -0.163 F 
ATOM     19  F   UNL     1      35.361 -19.589 -23.466  0.00  0.00    -0.163 F 
ATOM     20  C   UNL     1      35.237 -18.330 -22.933  0.00  0.00    +0.452 C 
ENDBRANCH  15  20
ENDBRANCH   1   7
BRANCH   3  24
ATOM     21  F   UNL     1      32.913  -7.991 -19.539  0.00  0.00    -0.204 F 
ATOM     22  F   UNL     1      30.179  -5.673 -23.669  0.00  0.00    -0.202 F 
ATOM     23  F   UNL     1      30.346  -4.404 -21.254  0.00  0.00    -0.202 F 
ATOM     24  C   UNL     1      32.155  -8.069 -21.787  0.00  0.00    +0.005 C 
ATOM     25  C   UNL     1      32.244  -7.428 -20.555  0.00  0.00    +0.138 C 
ATOM     26  C   UNL     1      31.461  -7.482 -22.840  0.00  0.00    +0.030 C 
ATOM     27  C   UNL     1      30.848  -6.243 -22.660  0.00  0.00    +0.167 C 
ATOM     28  C   UNL     1      31.631  -6.189 -20.375  0.00  0.00    +0.061 C 
ATOM     29  C   UNL     1      30.934  -5.596 -21.427  0.00  0.00    +0.170 C 
ENDBRANCH   3  24
BRANCH   4  30
ATOM     30  N   UNL     1      34.576  -8.533 -23.504  0.00  0.00    +0.382 N 
ATOM     31  H   UNL     1      34.526  -8.128 -24.439  0.00  0.00    -0.089 HD
ATOM     32  H   UNL     1      35.493  -8.958 -23.367  0.00  0.00    -0.089 HD
ATOM     33  H   UNL     1      34.433  -7.801 -22.808  0.00  0.00    -0.089 HD
ENDBRANCH   4  30
TORSDOF 4
ENDMDL
MODEL 4
REMARK VINA RESULT:     -10.8      7.627     11.657
REMARK  Name = 11538992
REMARK  4 active torsions:
REMARK  status: ('A' for Active; 'I' for Inactive)
REMARK    1  A    between atoms: C_1  and  N_7
REMARK    2  A    between atoms: C_3  and  C_24
REMARK    3  A    between atoms: C_4  and  N_30
REMARK    4  A    between atoms: C_15  and  C_20
REMARK                            x       y       z     vdW  Elec       q    Type
REMARK                         _______ _______ _______ _____ _____    ______ ____
ROOT
ATOM      1  C   UNL     1      33.927 -12.224 -22.579  0.00  0.00    -0.059 C 
ATOM      2  C   UNL     1      32.516 -12.190 -21.982  0.00  0.00    -0.042 C 
ATOM      3  C   UNL     1      32.257  -9.771 -22.731  0.00  0.00    +0.005 C 
ATOM      4  C   UNL     1      32.123 -10.767 -21.550  0.00  0.00    -0.064 C 
ATOM      5  C   UNL     1      34.048 -11.253 -23.757  0.00  0.00    -0.021 C 
ATOM      6  C   UNL     1      33.670  -9.832 -23.343  0.00  0.00    +0.000 C 
ENDROOT
BRANCH   1   7
ATOM      7  N   UNL     1      34.245 -13.581 -23.024  0.00  0.00    +0.394 N 
ATOM      8  N   UNL     1      34.117 -16.300 -23.609  0.00  0.00    -0.299 N 
ATOM      9  N   UNL     1      33.163 -16.073 -25.558  0.00  0.00    -0.136 NA
ATOM     10  N   UNL     1      33.537 -17.398 -25.393  0.00  0.00    -0.125 NA
ATOM     11  C   UNL     1      34.185 -14.529 -21.896  0.00  0.00    -0.052 C 
ATOM     12  C   UNL     1      33.333 -13.994 -24.111  0.00  0.00    -0.009 C 
ATOM     13  C   UNL     1      34.676 -15.917 -22.334  0.00  0.00    +0.086 C 
ATOM     14  C   UNL     1      33.524 -15.423 -24.472  0.00  0.00    +0.122 A 
ATOM     15  C   UNL     1      34.111 -17.510 -24.214  0.00  0.00    +0.238 A 
ATOM     16  H   UNL     1      35.199 -13.586 -23.386  0.00  0.00    -0.079 HD
BRANCH  15  20
ATOM     17  F   UNL     1      34.652 -19.830 -24.434  0.00  0.00    -0.163 F 
ATOM     18  F   UNL     1      35.995 -18.615 -23.240  0.00  0.00    -0.163 F 
ATOM     19  F   UNL     1      34.025 -19.128 -22.474  0.00  0.00    -0.163 F 
ATOM     20  C   UNL     1      34.677 -18.729 -23.613  0.00  0.00    +0.452 C 
ENDBRANCH  15  20
ENDBRANCH   1   7
BRANCH   3  24
ATOM     21  F   UNL     1      30.613  -8.093 -24.324  0.00  0.00    -0.204 F 
ATOM     22  F   UNL     1      32.567  -5.966 -19.679  0.00  0.00    -0.202 F 
ATOM     23  F   UNL     1      30.970  -4.462 -21.309  0.00  0.00    -0.202 F 
ATOM     24  C   UNL     1      31.909  -8.338 -22.350  0.00  0.00    +0.005 C 
ATOM     25  C   UNL     1      31.095  -7.578 -23.184  0.00  0.00    +0.138 C 
ATOM     26  C   UNL     1      32.407  -7.801 -21.168  0.00  0.00    +0.030 C 
ATOM     27  C   UNL     1      32.090  -6.489 -20.816  0.00  0.00    +0.167 C 
ATOM     28  C   UNL     1      30.778  -6.266 -22.832  0.00  0.00    +0.061 C 
ATOM     29  C   UNL     1      31.276  -5.722 -21.649  0.00  0.00    +0.170 C 
ENDBRANCH   3  24
BRANCH   4  30
ATOM     30  N   UNL     1      30.751 -10.777 -21.032  0.00  0.00    +0.382 N 
ATOM     31  H   UNL     1      30.762 -10.550 -20.038  0.00  0.00    -0.089 HD
ATOM     32  H   UNL     1      30.344 -11.703 -21.165  0.00  0.00    -0.089 HD
ATOM     33  H   UNL     1      30.193 -10.085 -21.533  0.00  0.00    -0.089 HD
ENDBRANCH   4  30
TORSDOF 4
ENDMDL
MODEL 5
REMARK VINA RESULT:     -10.4      1.784      2.825
REMARK  Name = 11538992
REMARK  4 active torsions:
REMARK  status: ('A' for Active; 'I' for Inactive)
REMARK    1  A    between atoms: C_1  and  N_7
REMARK    2  A    between atoms: C_3  and  C_24
REMARK    3  A    between atoms: C_4  and  N_30
REMARK    4  A    between atoms: C_15  and  C_20
REMARK                            x       y       z     vdW  Elec       q    Type
REMARK                         _______ _______ _______ _____ _____    ______ ____
ROOT
ATOM      1  C   UNL     1      35.834 -20.704 -18.836  0.00  0.00    -0.059 C 
ATOM      2  C   UNL     1      34.485 -20.981 -19.508  0.00  0.00    -0.042 C 
ATOM      3  C   UNL     1      35.233 -19.666 -21.555  0.00  0.00    +0.005 C 
ATOM      4  C   UNL     1      34.113 -19.868 -20.502  0.00  0.00    -0.064 C 
ATOM      5  C   UNL     1      36.940 -20.523 -19.880  0.00  0.00    -0.021 C 
ATOM      6  C   UNL     1      36.591 -19.414 -20.870  0.00  0.00    +0.000 C 
ENDROOT
BRANCH   1   7
ATOM      7  N   UNL     1      36.177 -21.806 -17.938  0.00  0.00    +0.394 N 
ATOM      8  N   UNL     1      36.513 -23.417 -15.692  0.00  0.00    -0.299 N 
ATOM      9  N   UNL     1      34.525 -24.315 -15.751  0.00  0.00    -0.136 NA
ATOM     10  N   UNL     1      35.286 -24.973 -14.798  0.00  0.00    -0.125 NA
ATOM     11  C   UNL     1      37.131 -21.362 -16.905  0.00  0.00    -0.052 C 
ATOM     12  C   UNL     1      34.956 -22.369 -17.324  0.00  0.00    -0.009 C 
ATOM     13  C   UNL     1      37.611 -22.557 -16.067  0.00  0.00    +0.086 C 
ATOM     14  C   UNL     1      35.283 -23.380 -16.285  0.00  0.00    +0.122 A 
ATOM     15  C   UNL     1      36.479 -24.417 -14.781  0.00  0.00    +0.238 A 
ATOM     16  H   UNL     1      36.628 -22.540 -18.486  0.00  0.00    -0.079 HD
BRANCH  15  20
ATOM     17  F   UNL     1      38.801 -24.968 -14.621  0.00  0.00    -0.163 F 
ATOM     18  F   UNL     1      37.933 -23.875 -12.961  0.00  0.00    -0.163 F 
ATOM     19  F   UNL     1      37.436 -25.972 -13.259  0.00  0.00    -0.163 F 
ATOM     20  C   UNL     1      37.624 -24.793 -13.936  0.00  0.00    +0.452 C 
ENDBRANCH  15  20
ENDBRANCH   1   7
BRANCH   3  24
ATOM     21  F   UNL     1      34.355 -20.145 -24.211  0.00  0.00    -0.204 F 
ATOM     22  F   UNL     1      34.946 -14.923 -22.699  0.00  0.00    -0.202 F 
ATOM     23  F   UNL     1      34.108 -15.530 -25.228  0.00  0.00    -0.202 F 
ATOM     24  C   UNL     1      34.929 -18.552 -22.548  0.00  0.00    +0.005 C 
ATOM     25  C   UNL     1      34.503 -18.868 -23.834  0.00  0.00    +0.138 C 
ATOM     26  C   UNL     1      35.080 -17.225 -22.160  0.00  0.00    +0.030 C 
ATOM     27  C   UNL     1      34.803 -16.202 -23.066  0.00  0.00    +0.167 C 
ATOM     28  C   UNL     1      34.225 -17.845 -24.741  0.00  0.00    +0.061 C 
ATOM     29  C   UNL     1      34.376 -16.513 -24.358  0.00  0.00    +0.170 C 
ENDBRANCH   3  24
BRANCH   4  30
ATOM     30  N   UNL     1      32.842 -20.202 -21.153  0.00  0.00    +0.382 N 
ATOM     31  H   UNL     1      32.950 -20.133 -22.165  0.00  0.00    -0.089 HD
ATOM     32  H   UNL     1      32.120 -19.552 -20.843  0.00  0.00    -0.089 HD
ATOM     33  H   UNL     1      32.572 -21.154 -20.905  0.00  0.00    -0.089 HD
ENDBRANCH   4  30
TORSDOF 4
ENDMDL
MODEL 6
REMARK VINA RESULT:      -9.8      6.177      7.782
REMARK  Name = 11538992
REMARK  4 active torsions:
REMARK  status: ('A' for Active; 'I' for Inactive)
REMARK    1  A    between atoms: C_1  and  N_7
REMARK    2  A    between atoms: C_3  and  C_24
REMARK    3  A    between atoms: C_4  and  N_30
REMARK    4  A    between atoms: C_15  and  C_20
REMARK                            x       y       z     vdW  Elec       q    Type
REMARK                         _______ _______ _______ _____ _____    ______ ____
ROOT
ATOM      1  C   UNL     1      33.848 -23.589 -14.958  0.00  0.00    -0.059 C 
ATOM      2  C   UNL     1      32.917 -24.615 -14.304  0.00  0.00    -0.042 C 
ATOM      3  C   UNL     1      30.981 -23.759 -15.718  0.00  0.00    +0.005 C 
ATOM      4  C   UNL     1      31.460 -24.122 -14.288  0.00  0.00    -0.064 C 
ATOM      5  C   UNL     1      33.381 -23.249 -16.376  0.00  0.00    -0.021 C 
ATOM      6  C   UNL     1      31.938 -22.748 -16.378  0.00  0.00    +0.000 C 
ENDROOT
BRANCH   1   7
ATOM      7  N   UNL     1      35.213 -24.114 -15.000  0.00  0.00    +0.394 N 
ATOM      8  N   UNL     1      37.652 -25.273 -14.323  0.00  0.00    -0.299 N 
ATOM      9  N   UNL     1      37.035 -27.336 -14.677  0.00  0.00    -0.136 NA
ATOM     10  N   UNL     1      38.403 -27.309 -14.452  0.00  0.00    -0.125 NA
ATOM     11  C   UNL     1      36.080 -23.394 -14.050  0.00  0.00    -0.052 C 
ATOM     12  C   UNL     1      35.216 -25.566 -14.724  0.00  0.00    -0.009 C 
ATOM     13  C   UNL     1      37.542 -23.837 -14.214  0.00  0.00    +0.086 C 
ATOM     14  C   UNL     1      36.598 -26.097 -14.599  0.00  0.00    +0.122 A 
ATOM     15  C   UNL     1      38.752 -26.058 -14.244  0.00  0.00    +0.238 A 
ATOM     16  H   UNL     1      35.587 -23.966 -15.939  0.00  0.00    -0.079 HD
BRANCH  15  20
ATOM     17  F   UNL     1      40.617 -24.745 -14.968  0.00  0.00    -0.163 F 
ATOM     18  F   UNL     1      40.205 -24.779 -12.838  0.00  0.00    -0.163 F 
ATOM     19  F   UNL     1      41.040 -26.536 -13.810  0.00  0.00    -0.163 F 
ATOM     20  C   UNL     1      40.106 -25.545 -13.975  0.00  0.00    +0.452 C 
ENDBRANCH  15  20
ENDBRANCH   1   7
BRANCH   3  24
ATOM     21  F   UNL     1      29.760 -22.406 -13.542  0.00  0.00    -0.204 F 
ATOM     22  F   UNL     1      26.732 -23.103 -18.043  0.00  0.00    -0.202 F 
ATOM     23  F   UNL     1      25.684 -21.817 -15.872  0.00  0.00    -0.202 F 
ATOM     24  C   UNL     1      29.551 -23.235 -15.756  0.00  0.00    +0.005 C 
ATOM     25  C   UNL     1      29.023 -22.581 -14.648  0.00  0.00    +0.138 C 
ATOM     26  C   UNL     1      28.785 -23.413 -16.903  0.00  0.00    +0.030 C 
ATOM     27  C   UNL     1      27.476 -22.934 -16.942  0.00  0.00    +0.167 C 
ATOM     28  C   UNL     1      27.714 -22.102 -14.687  0.00  0.00    +0.061 C 
ATOM     29  C   UNL     1      26.940 -22.279 -15.833  0.00  0.00    +0.170 C 
ENDBRANCH   3  24
BRANCH   4  30
ATOM     30  N   UNL     1      30.603 -25.156 -13.699  0.00  0.00    +0.382 N 
ATOM     31  H   UNL     1      30.145 -25.682 -14.443  0.00  0.00    -0.089 HD
ATOM     32  H   UNL     1      29.896 -24.716 -13.110  0.00  0.00    -0.089 HD
ATOM     33  H   UNL     1      31.171 -25.788 -13.135  0.00  0.00    -0.089 HD
ENDBRANCH   4  30
TORSDOF 4
ENDMDL
MODEL 7
REMARK VINA RESULT:      -9.7      8.432     13.441
REMARK  Name = 11538992
REMARK  4 active torsions:
REMARK  status: ('A' for Active; 'I' for Inactive)
REMARK    1  A    between atoms: C_1  and  N_7
REMARK    2  A    between atoms: C_3  and  C_24
REMARK    3  A    between atoms: C_4  and  N_30
REMARK    4  A    between atoms: C_15  and  C_20
REMARK                            x       y       z     vdW  Elec       q    Type
REMARK                         _______ _______ _______ _____ _____    ______ ____
ROOT
ATOM      1  C   UNL     1      33.913 -11.849 -23.638  0.00  0.00    -0.059 C 
ATOM      2  C   UNL     1      33.648 -12.472 -25.013  0.00  0.00    -0.042 C 
ATOM      3  C   UNL     1      33.422 -14.765 -23.931  0.00  0.00    +0.005 C 
ATOM      4  C   UNL     1      34.096 -13.942 -25.060  0.00  0.00    -0.064 C 
ATOM      5  C   UNL     1      33.230 -12.655 -22.530  0.00  0.00    -0.021 C 
ATOM      6  C   UNL     1      33.671 -14.117 -22.555  0.00  0.00    +0.000 C 
ENDROOT
BRANCH   1   7
ATOM      7  N   UNL     1      33.428 -10.469 -23.617  0.00  0.00    +0.394 N 
ATOM      8  N   UNL     1      32.915  -7.829 -22.900  0.00  0.00    -0.299 N 
ATOM      9  N   UNL     1      34.730  -6.993 -23.775  0.00  0.00    -0.136 NA
ATOM     10  N   UNL     1      33.906  -5.953 -23.374  0.00  0.00    -0.125 NA
ATOM     11  C   UNL     1      32.593 -10.226 -22.426  0.00  0.00    -0.052 C 
ATOM     12  C   UNL     1      34.563  -9.524 -23.669  0.00  0.00    -0.009 C 
ATOM     13  C   UNL     1      31.957  -8.829 -22.492  0.00  0.00    +0.086 C 
ATOM     14  C   UNL     1      34.114  -8.119 -23.485  0.00  0.00    +0.122 A 
ATOM     15  C   UNL     1      32.819  -6.479 -22.852  0.00  0.00    +0.238 A 
ATOM     16  H   UNL     1      32.848 -10.319 -24.442  0.00  0.00    -0.079 HD
BRANCH  15  20
ATOM     17  F   UNL     1      30.458  -6.094 -22.883  0.00  0.00    -0.163 F 
ATOM     18  F   UNL     1      31.452  -5.961 -20.959  0.00  0.00    -0.163 F 
ATOM     19  F   UNL     1      31.746  -4.398 -22.443  0.00  0.00    -0.163 F 
ATOM     20  C   UNL     1      31.658  -5.760 -22.303  0.00  0.00    +0.452 C 
ENDBRANCH  15  20
ENDBRANCH   1   7
BRANCH   3  24
ATOM     21  F   UNL     1      32.202 -16.772 -25.525  0.00  0.00    -0.204 F 
ATOM     22  F   UNL     1      36.303 -18.345 -22.265  0.00  0.00    -0.202 F 
ATOM     23  F   UNL     1      35.037 -20.173 -23.854  0.00  0.00    -0.202 F 
ATOM     24  C   UNL     1      33.856 -16.225 -23.912  0.00  0.00    +0.005 C 
ATOM     25  C   UNL     1      33.207 -17.151 -24.723  0.00  0.00    +0.138 C 
ATOM     26  C   UNL     1      34.899 -16.621 -23.082  0.00  0.00    +0.030 C 
ATOM     27  C   UNL     1      35.299 -17.957 -23.062  0.00  0.00    +0.167 C 
ATOM     28  C   UNL     1      33.607 -18.487 -24.703  0.00  0.00    +0.061 C 
ATOM     29  C   UNL     1      34.652 -18.890 -23.873  0.00  0.00    +0.170 C 
ENDBRANCH   3  24
BRANCH   4  30
ATOM     30  N   UNL     1      33.778 -14.507 -26.375  0.00  0.00    +0.382 N 
ATOM     31  H   UNL     1      32.919 -14.085 -26.727  0.00  0.00    -0.089 HD
ATOM     32  H   UNL     1      33.652 -15.515 -26.291  0.00  0.00    -0.089 HD
ATOM     33  H   UNL     1      34.542 -14.312 -27.023  0.00  0.00    -0.089 HD
ENDBRANCH   4  30
TORSDOF 4
ENDMDL
MODEL 8
REMARK VINA RESULT:      -9.6     10.147     15.643
REMARK  Name = 11538992
REMARK  4 active torsions:
REMARK  status: ('A' for Active; 'I' for Inactive)
REMARK    1  A    between atoms: C_1  and  N_7
REMARK    2  A    between atoms: C_3  and  C_24
REMARK    3  A    between atoms: C_4  and  N_30
REMARK    4  A    between atoms: C_15  and  C_20
REMARK                            x       y       z     vdW  Elec       q    Type
REMARK                         _______ _______ _______ _____ _____    ______ ____
ROOT
ATOM      1  C   UNL     1      33.299  -8.735 -22.414  0.00  0.00    -0.059 C 
ATOM      2  C   UNL     1      34.100  -9.045 -23.682  0.00  0.00    -0.042 C 
ATOM      3  C   UNL     1      33.270 -11.451 -23.618  0.00  0.00    +0.005 C 
ATOM      4  C   UNL     1      34.509 -10.527 -23.740  0.00  0.00    -0.064 C 
ATOM      5  C   UNL     1      32.067  -9.637 -22.307  0.00  0.00    -0.021 C 
ATOM      6  C   UNL     1      32.456 -11.113 -22.353  0.00  0.00    +0.000 C 
ENDROOT
BRANCH   1   7
ATOM      7  N   UNL     1      32.886  -7.331 -22.419  0.00  0.00    +0.394 N 
ATOM      8  N   UNL     1      31.515  -4.951 -22.876  0.00  0.00    -0.299 N 
ATOM      9  N   UNL     1      30.096  -5.182 -21.236  0.00  0.00    -0.136 NA
ATOM     10  N   UNL     1      29.960  -3.910 -21.770  0.00  0.00    -0.125 NA
ATOM     11  C   UNL     1      32.871  -6.795 -23.792  0.00  0.00    -0.052 C 
ATOM     12  C   UNL     1      31.562  -7.182 -21.778  0.00  0.00    -0.009 C 
ATOM     13  C   UNL     1      32.594  -5.284 -23.776  0.00  0.00    +0.086 C 
ATOM     14  C   UNL     1      31.043  -5.796 -21.913  0.00  0.00    +0.122 A 
ATOM     15  C   UNL     1      30.825  -3.794 -22.755  0.00  0.00    +0.238 A 
ATOM     16  H   UNL     1      33.565  -6.793 -21.880  0.00  0.00    -0.079 HD
BRANCH  15  20
ATOM     17  F   UNL     1      29.960  -1.786 -23.726  0.00  0.00    -0.163 F 
ATOM     18  F   UNL     1      32.058  -1.787 -23.172  0.00  0.00    -0.163 F 
ATOM     19  F   UNL     1      31.390  -2.931 -24.897  0.00  0.00    -0.163 F 
ATOM     20  C   UNL     1      31.050  -2.614 -23.606  0.00  0.00    +0.452 C 
ENDBRANCH  15  20
ENDBRANCH   1   7
BRANCH   3  24
ATOM     21  F   UNL     1      32.966 -13.091 -25.914  0.00  0.00    -0.204 F 
ATOM     22  F   UNL     1      34.921 -15.481 -21.399  0.00  0.00    -0.202 F 
ATOM     23  F   UNL     1      34.577 -16.941 -23.683  0.00  0.00    -0.202 F 
ATOM     24  C   UNL     1      33.621 -12.933 -23.638  0.00  0.00    +0.005 C 
ATOM     25  C   UNL     1      33.444 -13.671 -24.804  0.00  0.00    +0.138 C 
ATOM     26  C   UNL     1      34.118 -13.537 -22.488  0.00  0.00    +0.030 C 
ATOM     27  C   UNL     1      34.441 -14.893 -22.502  0.00  0.00    +0.167 C 
ATOM     28  C   UNL     1      33.767 -15.027 -24.819  0.00  0.00    +0.061 C 
ATOM     29  C   UNL     1      34.265 -15.638 -23.669  0.00  0.00    +0.170 C 
ENDBRANCH   3  24
BRANCH   4  30
ATOM     30  N   UNL     1      35.228 -10.785 -24.992  0.00  0.00    +0.382 N 
ATOM     31  H   UNL     1      34.558 -10.881 -25.754  0.00  0.00    -0.089 HD
ATOM     32  H   UNL     1      35.768 -11.646 -24.903  0.00  0.00    -0.089 HD
ATOM     33  H   UNL     1      35.858 -10.007 -25.189  0.00  0.00    -0.089 HD
ENDBRANCH   4  30
TORSDOF 4
ENDMDL
MODEL 9
REMARK VINA RESULT:      -9.3      7.549     11.418
REMARK  Name = 11538992
REMARK  4 active torsions:
REMARK  status: ('A' for Active; 'I' for Inactive)
REMARK    1  A    between atoms: C_1  and  N_7
REMARK    2  A    between atoms: C_3  and  C_24
REMARK    3  A    between atoms: C_4  and  N_30
REMARK    4  A    between atoms: C_15  and  C_20
REMARK                            x       y       z     vdW  Elec       q    Type
REMARK                         _______ _______ _______ _____ _____    ______ ____
ROOT
ATOM      1  C   UNL     1      32.604 -12.138 -22.837  0.00  0.00    -0.059 C 
ATOM      2  C   UNL     1      33.832 -11.292 -23.191  0.00  0.00    -0.042 C 
ATOM      3  C   UNL     1      32.790  -9.288 -22.017  0.00  0.00    +0.005 C 
ATOM      4  C   UNL     1      33.471  -9.802 -23.311  0.00  0.00    -0.064 C 
ATOM      5  C   UNL     1      31.947 -11.639 -21.548  0.00  0.00    -0.021 C 
ATOM      6  C   UNL     1      31.573 -10.161 -21.653  0.00  0.00    +0.000 C 
ENDROOT
BRANCH   1   7
ATOM      7  N   UNL     1      32.995 -13.539 -22.681  0.00  0.00    +0.394 N 
ATOM      8  N   UNL     1      34.462 -15.887 -22.383  0.00  0.00    -0.299 N 
ATOM      9  N   UNL     1      34.633 -15.780 -20.211  0.00  0.00    -0.136 NA
ATOM     10  N   UNL     1      35.106 -17.011 -20.638  0.00  0.00    -0.125 NA
ATOM     11  C   UNL     1      33.837 -13.976 -23.810  0.00  0.00    -0.052 C 
ATOM     12  C   UNL     1      33.691 -13.740 -21.393  0.00  0.00    -0.009 C 
ATOM     13  C   UNL     1      34.109 -15.486 -23.725  0.00  0.00    +0.086 C 
ATOM     14  C   UNL     1      34.243 -15.115 -21.278  0.00  0.00    +0.122 A 
ATOM     15  C   UNL     1      34.992 -17.053 -21.948  0.00  0.00    +0.238 A 
ATOM     16  H   UNL     1      32.150 -14.111 -22.681  0.00  0.00    -0.079 HD
BRANCH  15  20
ATOM     17  F   UNL     1      36.639 -18.634 -22.664  0.00  0.00    -0.163 F 
ATOM     18  F   UNL     1      34.569 -19.285 -22.697  0.00  0.00    -0.163 F 
ATOM     19  F   UNL     1      35.280 -17.850 -24.169  0.00  0.00    -0.163 F 
ATOM     20  C   UNL     1      35.358 -18.168 -22.837  0.00  0.00    +0.452 C 
ENDBRANCH  15  20
ENDBRANCH   1   7
BRANCH   3  24
ATOM     21  F   UNL     1      32.008  -7.770 -19.750  0.00  0.00    -0.204 F 
ATOM     22  F   UNL     1      32.018  -5.197 -24.576  0.00  0.00    -0.202 F 
ATOM     23  F   UNL     1      31.287  -3.856 -22.310  0.00  0.00    -0.202 F 
ATOM     24  C   UNL     1      32.383  -7.823 -22.093  0.00  0.00    +0.005 C 
ATOM     25  C   UNL     1      32.012  -7.145 -20.936  0.00  0.00    +0.138 C 
ATOM     26  C   UNL     1      32.388  -7.171 -23.322  0.00  0.00    +0.030 C 
ATOM     27  C   UNL     1      32.016  -5.829 -23.396  0.00  0.00    +0.167 C 
ATOM     28  C   UNL     1      31.641  -5.803 -21.009  0.00  0.00    +0.061 C 
ATOM     29  C   UNL     1      31.642  -5.145 -22.239  0.00  0.00    +0.170 C 
ENDBRANCH   3  24
BRANCH   4  30
ATOM     30  N   UNL     1      34.684  -9.030 -23.602  0.00  0.00    +0.382 N 
ATOM     31  H   UNL     1      35.494  -9.509 -23.209  0.00  0.00    -0.089 HD
ATOM     32  H   UNL     1      34.604  -8.102 -23.187  0.00  0.00    -0.089 HD
ATOM     33  H   UNL     1      34.797  -8.942 -24.612  0.00  0.00    -0.089 HD
ENDBRANCH   4  30
TORSDOF 4
ENDMDL
