MODEL 1
REMARK VINA RESULT:     -11.4      0.000      0.000
REMARK  Name = 2765355
REMARK  2 active torsions:
REMARK  status: ('A' for Active; 'I' for Inactive)
REMARK    1  A    between atoms: C_4  and  C_20
REMARK    2  A    between atoms: C_6  and  C_13
REMARK                            x       y       z     vdW  Elec       q    Type
REMARK                         _______ _______ _______ _____ _____    ______ ____
ROOT
ATOM      1  O   UNL     1      31.609 -22.634 -17.415  0.00  0.00    -0.353 OA
ATOM      2  N   UNL     1      31.133 -23.309 -16.298  0.00  0.00    -0.077 NA
ATOM      3  C   UNL     1      33.385 -23.100 -16.196  0.00  0.00    +0.058 A 
ATOM      4  C   UNL     1      32.960 -22.512 -17.349  0.00  0.00    +0.177 A 
ATOM      5  C   UNL     1      32.205 -23.601 -15.540  0.00  0.00    +0.123 A 
ATOM      6  C   UNL     1      34.766 -23.862 -14.521  0.00  0.00    +0.031 C 
ATOM      7  C   UNL     1      34.698 -23.188 -15.756  0.00  0.00    +0.007 C 
ATOM      8  C   UNL     1      32.300 -24.272 -14.309  0.00  0.00    +0.023 C 
ATOM      9  C   UNL     1      33.625 -24.380 -13.829  0.00  0.00    +0.004 C 
ENDROOT
BRANCH   6  13
ATOM     10  N   UNL     1      37.009 -24.556 -14.731  0.00  0.00    -0.338 NA
ATOM     11  N   UNL     1      38.565 -24.435 -12.894  0.00  0.00    -0.170 NA
ATOM     12  N   UNL     1      39.234 -25.260 -14.987  0.00  0.00    -0.293 N 
ATOM     13  C   UNL     1      36.071 -24.044 -13.914  0.00  0.00    +0.146 C 
ATOM     14  C   UNL     1      36.290 -23.706 -12.597  0.00  0.00    +0.055 C 
ATOM     15  C   UNL     1      37.572 -23.926 -12.136  0.00  0.00    +0.114 C 
ATOM     16  C   UNL     1      38.219 -24.724 -14.164  0.00  0.00    +0.141 C 
ATOM     17  H   UNL     1      39.037 -25.489 -15.925  0.00  0.00    +0.155 HD
ATOM     18  H   UNL     1      40.137 -25.403 -14.624  0.00  0.00    +0.155 HD
ENDBRANCH   6  13
BRANCH   4  20
ATOM     19 CL   UNL     1      35.497 -19.676 -21.927  0.00  0.00    -0.082 Cl
ATOM     20  C   UNL     1      33.572 -21.829 -18.453  0.00  0.00    +0.037 C 
ATOM     21  C   UNL     1      34.952 -21.914 -18.656  0.00  0.00    +0.004 C 
ATOM     22  C   UNL     1      32.792 -21.073 -19.333  0.00  0.00    +0.004 C 
ATOM     23  C   UNL     1      35.547 -21.250 -19.730  0.00  0.00    +0.011 C 
ATOM     24  C   UNL     1      33.386 -20.409 -20.406  0.00  0.00    +0.011 C 
ATOM     25  C   UNL     1      34.764 -20.496 -20.604  0.00  0.00    +0.058 C 
ENDBRANCH   4  20
TORSDOF 2
ENDMDL
MODEL 2
REMARK VINA RESULT:     -11.3      2.052      5.221
REMARK  Name = 2765355
REMARK  2 active torsions:
REMARK  status: ('A' for Active; 'I' for Inactive)
REMARK    1  A    between atoms: C_4  and  C_20
REMARK    2  A    between atoms: C_6  and  C_13
REMARK                            x       y       z     vdW  Elec       q    Type
REMARK                         _______ _______ _______ _____ _____    ______ ____
ROOT
ATOM      1  O   UNL     1      36.288 -22.550 -16.939  0.00  0.00    -0.353 OA
ATOM      2  N   UNL     1      36.351 -23.280 -15.760  0.00  0.00    -0.077 NA
ATOM      3  C   UNL     1      34.200 -23.038 -16.425  0.00  0.00    +0.058 A 
ATOM      4  C   UNL     1      34.996 -22.407 -17.333  0.00  0.00    +0.177 A 
ATOM      5  C   UNL     1      35.084 -23.589 -15.430  0.00  0.00    +0.123 A 
ATOM      6  C   UNL     1      32.329 -23.853 -15.364  0.00  0.00    +0.031 C 
ATOM      7  C   UNL     1      32.817 -23.124 -16.466  0.00  0.00    +0.007 C 
ATOM      8  C   UNL     1      34.572 -24.311 -14.338  0.00  0.00    +0.023 C 
ATOM      9  C   UNL     1      33.163 -24.419 -14.348  0.00  0.00    +0.004 C 
ENDROOT
BRANCH   6  13
ATOM     10  N   UNL     1      30.156 -23.268 -16.068  0.00  0.00    -0.338 NA
ATOM     11  N   UNL     1      28.187 -24.296 -15.134  0.00  0.00    -0.170 NA
ATOM     12  N   UNL     1      28.013 -22.653 -16.801  0.00  0.00    -0.293 N 
ATOM     13  C   UNL     1      30.895 -24.041 -15.250  0.00  0.00    +0.146 C 
ATOM     14  C   UNL     1      30.370 -24.950 -14.359  0.00  0.00    +0.055 C 
ATOM     15  C   UNL     1      28.993 -25.036 -14.344  0.00  0.00    +0.114 C 
ATOM     16  C   UNL     1      28.826 -23.445 -15.959  0.00  0.00    +0.141 C 
ATOM     17  H   UNL     1      28.427 -22.014 -17.426  0.00  0.00    +0.155 HD
ATOM     18  H   UNL     1      27.034 -22.741 -16.763  0.00  0.00    +0.155 HD
ENDBRANCH   6  13
BRANCH   4  20
ATOM     19 CL   UNL     1      34.181 -19.326 -22.361  0.00  0.00    -0.082 Cl
ATOM     20  C   UNL     1      34.800 -21.665 -18.546  0.00  0.00    +0.037 C 
ATOM     21  C   UNL     1      35.899 -21.183 -19.262  0.00  0.00    +0.004 C 
ATOM     22  C   UNL     1      33.507 -21.418 -19.019  0.00  0.00    +0.004 C 
ATOM     23  C   UNL     1      35.709 -20.461 -20.441  0.00  0.00    +0.011 C 
ATOM     24  C   UNL     1      33.317 -20.696 -20.197  0.00  0.00    +0.011 C 
ATOM     25  C   UNL     1      34.416 -20.217 -20.908  0.00  0.00    +0.058 C 
ENDBRANCH   4  20
TORSDOF 2
ENDMDL
MODEL 3
REMARK VINA RESULT:     -11.2      2.206      5.219
REMARK  Name = 2765355
REMARK  2 active torsions:
REMARK  status: ('A' for Active; 'I' for Inactive)
REMARK    1  A    between atoms: C_4  and  C_20
REMARK    2  A    between atoms: C_6  and  C_13
REMARK                            x       y       z     vdW  Elec       q    Type
REMARK                         _______ _______ _______ _____ _____    ______ ____
ROOT
ATOM      1  O   UNL     1      36.255 -22.417 -17.269  0.00  0.00    -0.353 OA
ATOM      2  N   UNL     1      36.295 -23.152 -16.092  0.00  0.00    -0.077 NA
ATOM      3  C   UNL     1      34.152 -22.811 -16.736  0.00  0.00    +0.058 A 
ATOM      4  C   UNL     1      34.967 -22.216 -17.651  0.00  0.00    +0.177 A 
ATOM      5  C   UNL     1      35.019 -23.403 -15.750  0.00  0.00    +0.123 A 
ATOM      6  C   UNL     1      32.255 -23.541 -15.658  0.00  0.00    +0.031 C 
ATOM      7  C   UNL     1      32.766 -22.833 -16.765  0.00  0.00    +0.007 C 
ATOM      8  C   UNL     1      34.485 -24.102 -14.654  0.00  0.00    +0.023 C 
ATOM      9  C   UNL     1      33.072 -24.146 -14.651  0.00  0.00    +0.004 C 
ENDROOT
BRANCH   6  13
ATOM     10  N   UNL     1      30.399 -24.717 -14.804  0.00  0.00    -0.338 NA
ATOM     11  N   UNL     1      28.133 -24.007 -15.215  0.00  0.00    -0.170 NA
ATOM     12  N   UNL     1      28.582 -25.920 -13.933  0.00  0.00    -0.293 N 
ATOM     13  C   UNL     1      30.815 -23.663 -15.531  0.00  0.00    +0.146 C 
ATOM     14  C   UNL     1      29.974 -22.749 -16.124  0.00  0.00    +0.055 C 
ATOM     15  C   UNL     1      28.626 -22.974 -15.930  0.00  0.00    +0.114 C 
ATOM     16  C   UNL     1      29.062 -24.827 -14.688  0.00  0.00    +0.141 C 
ATOM     17  H   UNL     1      29.217 -26.552 -13.523  0.00  0.00    +0.155 HD
ATOM     18  H   UNL     1      27.614 -26.049 -13.815  0.00  0.00    +0.155 HD
ENDBRANCH   6  13
BRANCH   4  20
ATOM     19 CL   UNL     1      34.246 -19.094 -22.669  0.00  0.00    -0.082 Cl
ATOM     20  C   UNL     1      34.793 -21.464 -18.862  0.00  0.00    +0.037 C 
ATOM     21  C   UNL     1      35.907 -20.999 -19.568  0.00  0.00    +0.004 C 
ATOM     22  C   UNL     1      33.509 -21.189 -19.342  0.00  0.00    +0.004 C 
ATOM     23  C   UNL     1      35.738 -20.268 -20.745  0.00  0.00    +0.011 C 
ATOM     24  C   UNL     1      33.341 -20.458 -20.518  0.00  0.00    +0.011 C 
ATOM     25  C   UNL     1      34.454 -19.997 -21.219  0.00  0.00    +0.058 C 
ENDBRANCH   4  20
TORSDOF 2
ENDMDL
MODEL 4
REMARK VINA RESULT:     -11.1      2.651      5.995
REMARK  Name = 2765355
REMARK  2 active torsions:
REMARK  status: ('A' for Active; 'I' for Inactive)
REMARK    1  A    between atoms: C_4  and  C_20
REMARK    2  A    between atoms: C_6  and  C_13
REMARK                            x       y       z     vdW  Elec       q    Type
REMARK                         _______ _______ _______ _____ _____    ______ ____
ROOT
ATOM      1  O   UNL     1      35.012 -23.366 -16.733  0.00  0.00    -0.353 OA
ATOM      2  N   UNL     1      34.688 -24.108 -15.605  0.00  0.00    -0.077 NA
ATOM      3  C   UNL     1      32.845 -23.087 -16.434  0.00  0.00    +0.058 A 
ATOM      4  C   UNL     1      33.903 -22.755 -17.226  0.00  0.00    +0.177 A 
ATOM      5  C   UNL     1      33.367 -23.951 -15.408  0.00  0.00    +0.123 A 
ATOM      6  C   UNL     1      30.706 -23.209 -15.596  0.00  0.00    +0.031 C 
ATOM      7  C   UNL     1      31.534 -22.668 -16.600  0.00  0.00    +0.007 C 
ATOM      8  C   UNL     1      32.521 -24.477 -14.416  0.00  0.00    +0.023 C 
ATOM      9  C   UNL     1      31.174 -24.071 -14.554  0.00  0.00    +0.004 C 
ENDROOT
BRANCH   6  13
ATOM     10  N   UNL     1      28.751 -22.798 -16.848  0.00  0.00    -0.338 NA
ATOM     11  N   UNL     1      26.652 -22.246 -15.800  0.00  0.00    -0.170 NA
ATOM     12  N   UNL     1      26.830 -22.396 -18.135  0.00  0.00    -0.293 N 
ATOM     13  C   UNL     1      29.296 -22.872 -15.619  0.00  0.00    +0.146 C 
ATOM     14  C   UNL     1      28.603 -22.651 -14.450  0.00  0.00    +0.055 C 
ATOM     15  C   UNL     1      27.268 -22.338 -14.603  0.00  0.00    +0.114 C 
ATOM     16  C   UNL     1      27.442 -22.484 -16.864  0.00  0.00    +0.141 C 
ATOM     17  H   UNL     1      27.360 -22.562 -18.949  0.00  0.00    +0.155 HD
ATOM     18  H   UNL     1      25.876 -22.171 -18.207  0.00  0.00    +0.155 HD
ENDBRANCH   6  13
BRANCH   4  20
ATOM     19 CL   UNL     1      34.765 -19.422 -22.083  0.00  0.00    -0.082 Cl
ATOM     20  C   UNL     1      34.111 -21.952 -18.397  0.00  0.00    +0.037 C 
ATOM     21  C   UNL     1      35.407 -21.696 -18.854  0.00  0.00    +0.004 C 
ATOM     22  C   UNL     1      33.019 -21.420 -19.089  0.00  0.00    +0.004 C 
ATOM     23  C   UNL     1      35.609 -20.915 -19.993  0.00  0.00    +0.011 C 
ATOM     24  C   UNL     1      33.221 -20.639 -20.227  0.00  0.00    +0.011 C 
ATOM     25  C   UNL     1      34.516 -20.386 -20.679  0.00  0.00    +0.058 C 
ENDBRANCH   4  20
TORSDOF 2
ENDMDL
MODEL 5
REMARK VINA RESULT:     -10.8      1.539      2.255
REMARK  Name = 2765355
REMARK  2 active torsions:
REMARK  status: ('A' for Active; 'I' for Inactive)
REMARK    1  A    between atoms: C_4  and  C_20
REMARK    2  A    between atoms: C_6  and  C_13
REMARK                            x       y       z     vdW  Elec       q    Type
REMARK                         _______ _______ _______ _____ _____    ______ ____
ROOT
ATOM      1  O   UNL     1      31.272 -22.715 -17.231  0.00  0.00    -0.353 OA
ATOM      2  N   UNL     1      30.559 -23.331 -16.210  0.00  0.00    -0.077 NA
ATOM      3  C   UNL     1      32.777 -23.367 -15.759  0.00  0.00    +0.058 A 
ATOM      4  C   UNL     1      32.602 -22.740 -16.955  0.00  0.00    +0.177 A 
ATOM      5  C   UNL     1      31.463 -23.735 -15.300  0.00  0.00    +0.123 A 
ATOM      6  C   UNL     1      33.792 -24.269 -13.901  0.00  0.00    +0.031 C 
ATOM      7  C   UNL     1      33.989 -23.595 -15.123  0.00  0.00    +0.007 C 
ATOM      8  C   UNL     1      31.293 -24.408 -14.078  0.00  0.00    +0.023 C 
ATOM      9  C   UNL     1      32.509 -24.658 -13.401  0.00  0.00    +0.004 C 
ENDROOT
BRANCH   6  13
ATOM     10  N   UNL     1      34.856 -24.272 -11.798  0.00  0.00    -0.338 NA
ATOM     11  N   UNL     1      37.084 -25.137 -11.491  0.00  0.00    -0.170 NA
ATOM     12  N   UNL     1      35.875 -24.253  -9.684  0.00  0.00    -0.293 N 
ATOM     13  C   UNL     1      34.959 -24.588 -13.102  0.00  0.00    +0.146 C 
ATOM     14  C   UNL     1      36.068 -25.171 -13.673  0.00  0.00    +0.055 C 
ATOM     15  C   UNL     1      37.114 -25.426 -12.808  0.00  0.00    +0.114 C 
ATOM     16  C   UNL     1      35.942 -24.570 -11.059  0.00  0.00    +0.141 C 
ATOM     17  H   UNL     1      35.063 -23.837  -9.313  0.00  0.00    +0.155 HD
ATOM     18  H   UNL     1      36.640 -24.449  -9.097  0.00  0.00    +0.155 HD
ENDBRANCH   6  13
BRANCH   4  20
ATOM     19 CL   UNL     1      36.110 -20.220 -21.051  0.00  0.00    -0.082 Cl
ATOM     20  C   UNL     1      33.447 -22.131 -17.942  0.00  0.00    +0.037 C 
ATOM     21  C   UNL     1      32.888 -21.404 -18.997  0.00  0.00    +0.004 C 
ATOM     22  C   UNL     1      34.837 -22.263 -17.857  0.00  0.00    +0.004 C 
ATOM     23  C   UNL     1      33.710 -20.813 -19.957  0.00  0.00    +0.011 C 
ATOM     24  C   UNL     1      35.659 -21.672 -18.816  0.00  0.00    +0.011 C 
ATOM     25  C   UNL     1      35.096 -20.948 -19.867  0.00  0.00    +0.058 C 
ENDBRANCH   4  20
TORSDOF 2
ENDMDL
MODEL 6
REMARK VINA RESULT:     -10.2     11.528     14.117
REMARK  Name = 2765355
REMARK  2 active torsions:
REMARK  status: ('A' for Active; 'I' for Inactive)
REMARK    1  A    between atoms: C_4  and  C_20
REMARK    2  A    between atoms: C_6  and  C_13
REMARK                            x       y       z     vdW  Elec       q    Type
REMARK                         _______ _______ _______ _____ _____    ______ ____
ROOT
ATOM      1  O   UNL     1      31.608  -9.382 -20.307  0.00  0.00    -0.353 OA
ATOM      2  N   UNL     1      31.406 -10.559 -19.599  0.00  0.00    -0.077 NA
ATOM      3  C   UNL     1      32.285 -11.003 -21.638  0.00  0.00    +0.058 A 
ATOM      4  C   UNL     1      32.135  -9.654 -21.529  0.00  0.00    +0.177 A 
ATOM      5  C   UNL     1      31.815 -11.562 -20.397  0.00  0.00    +0.123 A 
ATOM      6  C   UNL     1      32.802 -13.075 -22.495  0.00  0.00    +0.031 C 
ATOM      7  C   UNL     1      32.792 -11.686 -22.733  0.00  0.00    +0.007 C 
ATOM      8  C   UNL     1      31.834 -12.952 -20.183  0.00  0.00    +0.023 C 
ATOM      9  C   UNL     1      32.346 -13.681 -21.281  0.00  0.00    +0.004 C 
ENDROOT
BRANCH   6  13
ATOM     10  N   UNL     1      34.070 -14.964 -23.112  0.00  0.00    -0.338 NA
ATOM     11  N   UNL     1      34.310 -15.650 -25.410  0.00  0.00    -0.170 NA
ATOM     12  N   UNL     1      35.345 -16.851 -23.679  0.00  0.00    -0.293 N 
ATOM     13  C   UNL     1      33.304 -13.944 -23.542  0.00  0.00    +0.146 C 
ATOM     14  C   UNL     1      32.996 -13.709 -24.863  0.00  0.00    +0.055 C 
ATOM     15  C   UNL     1      33.534 -14.605 -25.764  0.00  0.00    +0.114 C 
ATOM     16  C   UNL     1      34.535 -15.768 -24.087  0.00  0.00    +0.141 C 
ATOM     17  H   UNL     1      35.542 -16.986 -22.723  0.00  0.00    +0.155 HD
ATOM     18  H   UNL     1      35.711 -17.471 -24.349  0.00  0.00    +0.155 HD
ENDBRANCH   6  13
BRANCH   4  20
ATOM     19 CL   UNL     1      33.188  -4.910 -24.967  0.00  0.00    -0.082 Cl
ATOM     20  C   UNL     1      32.389  -8.511 -22.359  0.00  0.00    +0.037 C 
ATOM     21  C   UNL     1      33.703  -8.122 -22.639  0.00  0.00    +0.004 C 
ATOM     22  C   UNL     1      31.325  -7.777 -22.891  0.00  0.00    +0.004 C 
ATOM     23  C   UNL     1      33.950  -7.010 -23.446  0.00  0.00    +0.011 C 
ATOM     24  C   UNL     1      31.572  -6.665 -23.697  0.00  0.00    +0.011 C 
ATOM     25  C   UNL     1      32.884  -6.281 -23.974  0.00  0.00    +0.058 C 
ENDBRANCH   4  20
TORSDOF 2
ENDMDL
MODEL 7
REMARK VINA RESULT:     -10.1      3.975      6.804
REMARK  Name = 2765355
REMARK  2 active torsions:
REMARK  status: ('A' for Active; 'I' for Inactive)
REMARK    1  A    between atoms: C_4  and  C_20
REMARK    2  A    between atoms: C_6  and  C_13
REMARK                            x       y       z     vdW  Elec       q    Type
REMARK                         _______ _______ _______ _____ _____    ______ ____
ROOT
ATOM      1  O   UNL     1      35.306 -24.189 -13.833  0.00  0.00    -0.353 OA
ATOM      2  N   UNL     1      36.623 -23.826 -14.081  0.00  0.00    -0.077 NA
ATOM      3  C   UNL     1      35.271 -23.071 -15.733  0.00  0.00    +0.058 A 
ATOM      4  C   UNL     1      34.499 -23.733 -14.827  0.00  0.00    +0.177 A 
ATOM      5  C   UNL     1      36.622 -23.141 -15.239  0.00  0.00    +0.123 A 
ATOM      6  C   UNL     1      35.902 -21.867 -17.589  0.00  0.00    +0.031 C 
ATOM      7  C   UNL     1      34.827 -22.456 -16.894  0.00  0.00    +0.007 C 
ATOM      8  C   UNL     1      37.677 -22.546 -15.952  0.00  0.00    +0.023 C 
ATOM      9  C   UNL     1      37.261 -21.909 -17.143  0.00  0.00    +0.004 C 
ENDROOT
BRANCH   6  13
ATOM     10  N   UNL     1      36.632 -20.443 -19.320  0.00  0.00    -0.338 NA
ATOM     11  N   UNL     1      35.206 -19.831 -21.163  0.00  0.00    -0.170 NA
ATOM     12  N   UNL     1      37.404 -19.021 -21.020  0.00  0.00    -0.293 N 
ATOM     13  C   UNL     1      35.615 -21.177 -18.832  0.00  0.00    +0.146 C 
ATOM     14  C   UNL     1      34.383 -21.292 -19.436  0.00  0.00    +0.055 C 
ATOM     15  C   UNL     1      34.233 -20.588 -20.614  0.00  0.00    +0.114 C 
ATOM     16  C   UNL     1      36.362 -19.804 -20.474  0.00  0.00    +0.141 C 
ATOM     17  H   UNL     1      38.272 -18.965 -20.558  0.00  0.00    +0.155 HD
ATOM     18  H   UNL     1      37.262 -18.533 -21.862  0.00  0.00    +0.155 HD
ENDBRANCH   6  13
BRANCH   4  20
ATOM     19 CL   UNL     1      28.722 -25.036 -14.224  0.00  0.00    -0.082 Cl
ATOM     20  C   UNL     1      33.107 -24.048 -14.683  0.00  0.00    +0.037 C 
ATOM     21  C   UNL     1      32.171 -23.532 -15.584  0.00  0.00    +0.004 C 
ATOM     22  C   UNL     1      32.675 -24.872 -13.638  0.00  0.00    +0.004 C 
ATOM     23  C   UNL     1      30.816 -23.838 -15.443  0.00  0.00    +0.011 C 
ATOM     24  C   UNL     1      31.322 -25.177 -13.497  0.00  0.00    +0.011 C 
ATOM     25  C   UNL     1      30.392 -24.660 -14.399  0.00  0.00    +0.058 C 
ENDBRANCH   4  20
TORSDOF 2
ENDMDL
MODEL 8
REMARK VINA RESULT:     -10.0     11.702     14.742
REMARK  Name = 2765355
REMARK  2 active torsions:
REMARK  status: ('A' for Active; 'I' for Inactive)
REMARK    1  A    between atoms: C_4  and  C_20
REMARK    2  A    between atoms: C_6  and  C_13
REMARK                            x       y       z     vdW  Elec       q    Type
REMARK                         _______ _______ _______ _____ _____    ______ ____
ROOT
ATOM      1  O   UNL     1      31.927  -8.243 -20.924  0.00  0.00    -0.353 OA
ATOM      2  N   UNL     1      31.471  -9.284 -20.127  0.00  0.00    -0.077 NA
ATOM      3  C   UNL     1      32.499 -10.095 -21.974  0.00  0.00    +0.058 A 
ATOM      4  C   UNL     1      32.544  -8.735 -22.030  0.00  0.00    +0.177 A 
ATOM      5  C   UNL     1      31.812 -10.426 -20.752  0.00  0.00    +0.123 A 
ATOM      6  C   UNL     1      32.793 -12.309 -22.529  0.00  0.00    +0.031 C 
ATOM      7  C   UNL     1      33.020 -10.972 -22.914  0.00  0.00    +0.007 C 
ATOM      8  C   UNL     1      31.597 -11.767 -20.391  0.00  0.00    +0.023 C 
ATOM      9  C   UNL     1      32.115 -12.690 -21.327  0.00  0.00    +0.004 C 
ENDROOT
BRANCH   6  13
ATOM     10  N   UNL     1      34.074 -14.268 -22.808  0.00  0.00    -0.338 NA
ATOM     11  N   UNL     1      34.248 -15.393 -24.932  0.00  0.00    -0.170 NA
ATOM     12  N   UNL     1      35.363 -16.216 -23.038  0.00  0.00    -0.293 N 
ATOM     13  C   UNL     1      33.275 -13.362 -23.402  0.00  0.00    +0.146 C 
ATOM     14  C   UNL     1      32.918 -13.396 -24.731  0.00  0.00    +0.055 C 
ATOM     15  C   UNL     1      33.441 -14.447 -25.457  0.00  0.00    +0.114 C 
ATOM     16  C   UNL     1      34.520 -15.244 -23.622  0.00  0.00    +0.141 C 
ATOM     17  H   UNL     1      35.594 -16.157 -22.083  0.00  0.00    +0.155 HD
ATOM     18  H   UNL     1      35.717 -16.952 -23.586  0.00  0.00    +0.155 HD
ENDBRANCH   6  13
BRANCH   4  20
ATOM     19 CL   UNL     1      34.690  -4.653 -25.795  0.00  0.00    -0.082 Cl
ATOM     20  C   UNL     1      33.061  -7.750 -22.937  0.00  0.00    +0.037 C 
ATOM     21  C   UNL     1      32.196  -6.851 -23.569  0.00  0.00    +0.004 C 
ATOM     22  C   UNL     1      34.433  -7.684 -23.197  0.00  0.00    +0.004 C 
ATOM     23  C   UNL     1      32.699  -5.894 -24.451  0.00  0.00    +0.011 C 
ATOM     24  C   UNL     1      34.936  -6.727 -24.078  0.00  0.00    +0.011 C 
ATOM     25  C   UNL     1      34.069  -5.833 -24.706  0.00  0.00    +0.058 C 
ENDBRANCH   4  20
TORSDOF 2
ENDMDL
MODEL 9
REMARK VINA RESULT:      -9.8     11.885     14.855
REMARK  Name = 2765355
REMARK  2 active torsions:
REMARK  status: ('A' for Active; 'I' for Inactive)
REMARK    1  A    between atoms: C_4  and  C_20
REMARK    2  A    between atoms: C_6  and  C_13
REMARK                            x       y       z     vdW  Elec       q    Type
REMARK                         _______ _______ _______ _____ _____    ______ ____
ROOT
ATOM      1  O   UNL     1      31.773  -7.837 -20.803  0.00  0.00    -0.353 OA
ATOM      2  N   UNL     1      31.260  -8.789 -19.931  0.00  0.00    -0.077 NA
ATOM      3  C   UNL     1      32.393  -9.790 -21.616  0.00  0.00    +0.058 A 
ATOM      4  C   UNL     1      32.451  -8.443 -21.812  0.00  0.00    +0.177 A 
ATOM      5  C   UNL     1      31.630  -9.989 -20.411  0.00  0.00    +0.123 A 
ATOM      6  C   UNL     1      32.702 -12.050 -21.918  0.00  0.00    +0.031 C 
ATOM      7  C   UNL     1      32.962 -10.761 -22.426  0.00  0.00    +0.007 C 
ATOM      8  C   UNL     1      31.383 -11.285 -19.926  0.00  0.00    +0.023 C 
ATOM      9  C   UNL     1      31.949 -12.302 -20.727  0.00  0.00    +0.004 C 
ENDROOT
BRANCH   6  13
ATOM     10  N   UNL     1      32.745 -13.336 -23.893  0.00  0.00    -0.338 NA
ATOM     11  N   UNL     1      34.134 -15.292 -24.118  0.00  0.00    -0.170 NA
ATOM     12  N   UNL     1      32.753 -14.586 -25.879  0.00  0.00    -0.293 N 
ATOM     13  C   UNL     1      33.228 -13.189 -22.645  0.00  0.00    +0.146 C 
ATOM     14  C   UNL     1      34.149 -14.033 -22.067  0.00  0.00    +0.055 C 
ATOM     15  C   UNL     1      34.572 -15.081 -22.860  0.00  0.00    +0.114 C 
ATOM     16  C   UNL     1      33.234 -14.395 -24.565  0.00  0.00    +0.141 C 
ATOM     17  H   UNL     1      32.094 -13.960 -26.258  0.00  0.00    +0.155 HD
ATOM     18  H   UNL     1      33.077 -15.344 -26.416  0.00  0.00    +0.155 HD
ENDBRANCH   6  13
BRANCH   4  20
ATOM     19 CL   UNL     1      34.854  -4.781 -25.843  0.00  0.00    -0.082 Cl
ATOM     20  C   UNL     1      33.030  -7.560 -22.783  0.00  0.00    +0.037 C 
ATOM     21  C   UNL     1      32.215  -6.711 -23.538  0.00  0.00    +0.004 C 
ATOM     22  C   UNL     1      34.414  -7.542 -22.983  0.00  0.00    +0.004 C 
ATOM     23  C   UNL     1      32.778  -5.852 -24.482  0.00  0.00    +0.011 C 
ATOM     24  C   UNL     1      34.977  -6.684 -23.927  0.00  0.00    +0.011 C 
ATOM     25  C   UNL     1      34.159  -5.839 -24.678  0.00  0.00    +0.058 C 
ENDBRANCH   4  20
TORSDOF 2
ENDMDL
