MODEL 1
REMARK VINA RESULT:     -11.7      0.000      0.000
REMARK  Name = 66555680
REMARK  4 active torsions:
REMARK  status: ('A' for Active; 'I' for Inactive)
REMARK    1  A    between atoms: N_1  and  C_8
REMARK    2  A    between atoms: C_3  and  C_22
REMARK    3  A    between atoms: C_4  and  N_18
REMARK    4  A    between atoms: C_22  and  C_24
REMARK                            x       y       z     vdW  Elec       q    Type
REMARK                         _______ _______ _______ _____ _____    ______ ____
ROOT
ATOM      1  N   UNL     1      35.058 -19.922 -20.461  0.00  0.00    -0.177 N 
ATOM      2  N   UNL     1      36.265 -20.269 -19.984  0.00  0.00    -0.171 NA
ATOM      3  C   UNL     1      34.674 -21.815 -19.442  0.00  0.00    +0.090 C 
ATOM      4  C   UNL     1      34.070 -20.815 -20.163  0.00  0.00    +0.122 C 
ATOM      5  C   UNL     1      36.024 -21.427 -19.363  0.00  0.00    +0.124 C 
ENDROOT
BRANCH   1   8
ATOM      6  N   UNL     1      34.081 -17.268 -24.494  0.00  0.00    -0.318 N 
ATOM      7  N   UNL     1      34.465 -15.319 -23.496  0.00  0.00    -0.318 N 
ATOM      8  C   UNL     1      34.921 -18.736 -21.185  0.00  0.00    +0.077 C 
ATOM      9  C   UNL     1      34.423 -17.578 -23.203  0.00  0.00    +0.060 C 
ATOM     10  C   UNL     1      34.543 -18.794 -22.530  0.00  0.00    +0.032 C 
ATOM     11  C   UNL     1      34.657 -16.346 -22.601  0.00  0.00    +0.059 C 
ATOM     12  C   UNL     1      35.163 -17.514 -20.554  0.00  0.00    +0.018 C 
ATOM     13  C   UNL     1      35.036 -16.305 -21.248  0.00  0.00    +0.017 C 
ATOM     14  C   UNL     1      34.120 -15.907 -24.620  0.00  0.00    +0.144 C 
ATOM     15  C   UNL     1      33.800 -15.247 -25.899  0.00  0.00    +0.044 C 
ATOM     16  H   UNL     1      33.848 -17.910 -25.203  0.00  0.00    +0.148 HD
ATOM     17  H   UNL     1      34.564 -14.353 -23.332  0.00  0.00    +0.148 HD
ENDBRANCH   1   8
BRANCH   4  18
ATOM     18  N   UNL     1      32.792 -20.630 -20.561  0.00  0.00    -0.344 N 
ATOM     19  H   UNL     1      32.602 -20.279 -21.461  0.00  0.00    +0.144 HD
ATOM     20  H   UNL     1      32.051 -20.847 -19.951  0.00  0.00    +0.144 HD
ENDBRANCH   4  18
BRANCH   3  22
ATOM     21  O   UNL     1      34.056 -24.066 -19.599  0.00  0.00    -0.285 OA
ATOM     22  C   UNL     1      34.004 -23.043 -18.877  0.00  0.00    +0.213 C 
BRANCH  22  24
ATOM     23  N   UNL     1      32.002 -22.864 -17.446  0.00  0.00    -0.310 N 
ATOM     24  C   UNL     1      33.346 -23.062 -17.609  0.00  0.00    +0.088 C 
ATOM     25  C   UNL     1      31.668 -22.941 -16.112  0.00  0.00    +0.048 C 
ATOM     26  C   UNL     1      32.847 -23.197 -15.408  0.00  0.00    +0.015 C 
ATOM     27  C   UNL     1      33.898 -23.271 -16.365  0.00  0.00    +0.019 C 
ATOM     28  C   UNL     1      30.427 -22.804 -15.482  0.00  0.00    +0.015 C 
ATOM     29  C   UNL     1      32.785 -23.325 -14.007  0.00  0.00    +0.001 C 
ATOM     30  C   UNL     1      30.390 -22.935 -14.091  0.00  0.00    +0.001 C 
ATOM     31  C   UNL     1      31.550 -23.191 -13.362  0.00  0.00    +0.000 C 
ATOM     32  H   UNL     1      31.365 -22.691 -18.177  0.00  0.00    +0.152 HD
ENDBRANCH  22  24
ENDBRANCH   3  22
TORSDOF 4
ENDMDL
MODEL 2
REMARK VINA RESULT:     -11.6      1.770      2.497
REMARK  Name = 66555680
REMARK  4 active torsions:
REMARK  status: ('A' for Active; 'I' for Inactive)
REMARK    1  A    between atoms: N_1  and  C_8
REMARK    2  A    between atoms: C_3  and  C_22
REMARK    3  A    between atoms: C_4  and  N_18
REMARK    4  A    between atoms: C_22  and  C_24
REMARK                            x       y       z     vdW  Elec       q    Type
REMARK                         _______ _______ _______ _____ _____    ______ ____
ROOT
ATOM      1  N   UNL     1      35.198 -20.061 -20.396  0.00  0.00    -0.177 N 
ATOM      2  N   UNL     1      36.447 -20.323 -19.975  0.00  0.00    -0.171 NA
ATOM      3  C   UNL     1      34.920 -21.697 -18.977  0.00  0.00    +0.090 C 
ATOM      4  C   UNL     1      34.246 -20.856 -19.829  0.00  0.00    +0.122 C 
ATOM      5  C   UNL     1      36.270 -21.324 -19.108  0.00  0.00    +0.124 C 
ENDROOT
BRANCH   1   8
ATOM      6  N   UNL     1      34.659 -15.377 -21.825  0.00  0.00    -0.318 N 
ATOM      7  N   UNL     1      34.376 -15.898 -23.968  0.00  0.00    -0.318 N 
ATOM      8  C   UNL     1      34.988 -19.046 -21.333  0.00  0.00    +0.077 C 
ATOM      9  C   UNL     1      34.746 -16.745 -21.884  0.00  0.00    +0.060 C 
ATOM     10  C   UNL     1      34.960 -17.715 -20.905  0.00  0.00    +0.032 C 
ATOM     11  C   UNL     1      34.566 -17.045 -23.231  0.00  0.00    +0.059 C 
ATOM     12  C   UNL     1      34.811 -19.379 -22.678  0.00  0.00    +0.018 C 
ATOM     13  C   UNL     1      34.598 -18.388 -23.643  0.00  0.00    +0.017 C 
ATOM     14  C   UNL     1      34.438 -14.918 -23.094  0.00  0.00    +0.144 C 
ATOM     15  C   UNL     1      34.297 -13.477 -23.373  0.00  0.00    +0.044 C 
ATOM     16  H   UNL     1      34.742 -14.825 -21.014  0.00  0.00    +0.148 HD
ATOM     17  H   UNL     1      34.227 -15.827 -24.938  0.00  0.00    +0.148 HD
ENDBRANCH   1   8
BRANCH   4  18
ATOM     18  N   UNL     1      32.936 -20.736 -20.133  0.00  0.00    -0.344 N 
ATOM     19  H   UNL     1      32.594 -19.898 -20.519  0.00  0.00    +0.144 HD
ATOM     20  H   UNL     1      32.321 -21.488 -19.968  0.00  0.00    +0.144 HD
ENDBRANCH   4  18
BRANCH   3  22
ATOM     21  O   UNL     1      33.446 -23.487 -18.667  0.00  0.00    -0.285 OA
ATOM     22  C   UNL     1      34.311 -22.771 -18.110  0.00  0.00    +0.213 C 
BRANCH  22  24
ATOM     23  N   UNL     1      33.853 -23.552 -15.815  0.00  0.00    -0.310 N 
ATOM     24  C   UNL     1      34.677 -22.977 -16.745  0.00  0.00    +0.088 C 
ATOM     25  C   UNL     1      34.485 -23.612 -14.593  0.00  0.00    +0.048 C 
ATOM     26  C   UNL     1      35.754 -23.053 -14.758  0.00  0.00    +0.015 C 
ATOM     27  C   UNL     1      35.861 -22.656 -16.122  0.00  0.00    +0.019 C 
ATOM     28  C   UNL     1      34.035 -24.112 -13.366  0.00  0.00    +0.015 C 
ATOM     29  C   UNL     1      36.617 -22.990 -13.648  0.00  0.00    +0.001 C 
ATOM     30  C   UNL     1      34.908 -24.039 -12.278  0.00  0.00    +0.001 C 
ATOM     31  C   UNL     1      36.181 -23.487 -12.414  0.00  0.00    +0.000 C 
ATOM     32  H   UNL     1      32.941 -23.876 -15.994  0.00  0.00    +0.152 HD
ENDBRANCH  22  24
ENDBRANCH   3  22
TORSDOF 4
ENDMDL
MODEL 3
REMARK VINA RESULT:     -11.6      3.294      8.921
REMARK  Name = 66555680
REMARK  4 active torsions:
REMARK  status: ('A' for Active; 'I' for Inactive)
REMARK    1  A    between atoms: N_1  and  C_8
REMARK    2  A    between atoms: C_3  and  C_22
REMARK    3  A    between atoms: C_4  and  N_18
REMARK    4  A    between atoms: C_22  and  C_24
REMARK                            x       y       z     vdW  Elec       q    Type
REMARK                         _______ _______ _______ _____ _____    ______ ____
ROOT
ATOM      1  N   UNL     1      34.574 -19.049 -21.837  0.00  0.00    -0.177 N 
ATOM      2  N   UNL     1      34.232 -19.435 -23.078  0.00  0.00    -0.171 NA
ATOM      3  C   UNL     1      34.720 -17.205 -22.997  0.00  0.00    +0.090 C 
ATOM      4  C   UNL     1      34.876 -17.723 -21.734  0.00  0.00    +0.122 C 
ATOM      5  C   UNL     1      34.324 -18.303 -23.783  0.00  0.00    +0.124 C 
ENDROOT
BRANCH   1   8
ATOM      6  N   UNL     1      32.505 -21.935 -18.422  0.00  0.00    -0.318 N 
ATOM      7  N   UNL     1      34.443 -22.776 -17.732  0.00  0.00    -0.318 N 
ATOM      8  C   UNL     1      34.591 -19.991 -20.806  0.00  0.00    +0.077 C 
ATOM      9  C   UNL     1      33.462 -21.333 -19.198  0.00  0.00    +0.060 C 
ATOM     10  C   UNL     1      33.384 -20.390 -20.223  0.00  0.00    +0.032 C 
ATOM     11  C   UNL     1      34.663 -21.874 -18.747  0.00  0.00    +0.059 C 
ATOM     12  C   UNL     1      35.812 -20.516 -20.375  0.00  0.00    +0.018 C 
ATOM     13  C   UNL     1      35.867 -21.462 -19.344  0.00  0.00    +0.017 C 
ATOM     14  C   UNL     1      33.140 -22.788 -17.562  0.00  0.00    +0.144 C 
ATOM     15  C   UNL     1      32.384 -23.594 -16.587  0.00  0.00    +0.044 C 
ATOM     16  H   UNL     1      31.534 -21.781 -18.476  0.00  0.00    +0.148 HD
ATOM     17  H   UNL     1      35.116 -23.298 -17.238  0.00  0.00    +0.148 HD
ENDBRANCH   1   8
BRANCH   4  18
ATOM     18  N   UNL     1      35.241 -17.158 -20.563  0.00  0.00    -0.344 N 
ATOM     19  H   UNL     1      34.936 -16.249 -20.338  0.00  0.00    +0.144 HD
ATOM     20  H   UNL     1      35.814 -17.655 -19.935  0.00  0.00    +0.144 HD
ENDBRANCH   4  18
BRANCH   3  22
ATOM     21  O   UNL     1      35.842 -15.584 -24.257  0.00  0.00    -0.285 OA
ATOM     22  C   UNL     1      34.937 -15.771 -23.411  0.00  0.00    +0.213 C 
BRANCH  22  24
ATOM     23  N   UNL     1      33.566 -14.701 -21.660  0.00  0.00    -0.310 N 
ATOM     24  C   UNL     1      34.177 -14.681 -22.885  0.00  0.00    +0.088 C 
ATOM     25  C   UNL     1      32.911 -13.510 -21.436  0.00  0.00    +0.048 C 
ATOM     26  C   UNL     1      33.117 -12.710 -22.563  0.00  0.00    +0.015 C 
ATOM     27  C   UNL     1      33.917 -13.462 -23.469  0.00  0.00    +0.019 C 
ATOM     28  C   UNL     1      32.161 -13.084 -20.335  0.00  0.00    +0.015 C 
ATOM     29  C   UNL     1      32.547 -11.423 -22.593  0.00  0.00    +0.001 C 
ATOM     30  C   UNL     1      31.606 -11.803 -20.388  0.00  0.00    +0.001 C 
ATOM     31  C   UNL     1      31.794 -10.983 -21.499  0.00  0.00    +0.000 C 
ATOM     32  H   UNL     1      33.591 -15.457 -21.030  0.00  0.00    +0.152 HD
ENDBRANCH  22  24
ENDBRANCH   3  22
TORSDOF 4
ENDMDL
MODEL 4
REMARK VINA RESULT:     -11.1      3.599      5.931
REMARK  Name = 66555680
REMARK  4 active torsions:
REMARK  status: ('A' for Active; 'I' for Inactive)
REMARK    1  A    between atoms: N_1  and  C_8
REMARK    2  A    between atoms: C_3  and  C_22
REMARK    3  A    between atoms: C_4  and  N_18
REMARK    4  A    between atoms: C_22  and  C_24
REMARK                            x       y       z     vdW  Elec       q    Type
REMARK                         _______ _______ _______ _____ _____    ______ ____
ROOT
ATOM      1  N   UNL     1      34.167 -15.133 -22.688  0.00  0.00    -0.177 N 
ATOM      2  N   UNL     1      34.229 -15.541 -23.967  0.00  0.00    -0.171 NA
ATOM      3  C   UNL     1      35.225 -17.040 -22.560  0.00  0.00    +0.090 C 
ATOM      4  C   UNL     1      34.749 -15.995 -21.805  0.00  0.00    +0.122 C 
ATOM      5  C   UNL     1      34.877 -16.706 -23.882  0.00  0.00    +0.124 C 
ENDROOT
BRANCH   1   8
ATOM      6  N   UNL     1      33.193 -10.350 -23.348  0.00  0.00    -0.318 N 
ATOM      7  N   UNL     1      31.786 -10.238 -21.631  0.00  0.00    -0.318 N 
ATOM      8  C   UNL     1      33.543 -13.922 -22.383  0.00  0.00    +0.077 C 
ATOM      9  C   UNL     1      33.164 -11.613 -22.815  0.00  0.00    +0.060 C 
ATOM     10  C   UNL     1      33.815 -12.795 -23.166  0.00  0.00    +0.032 C 
ATOM     11  C   UNL     1      32.279 -11.517 -21.745  0.00  0.00    +0.059 C 
ATOM     12  C   UNL     1      32.659 -13.856 -21.303  0.00  0.00    +0.018 C 
ATOM     13  C   UNL     1      32.016 -12.659 -20.969  0.00  0.00    +0.017 C 
ATOM     14  C   UNL     1      32.354  -9.565 -22.606  0.00  0.00    +0.144 C 
ATOM     15  C   UNL     1      32.161  -8.138 -22.924  0.00  0.00    +0.044 C 
ATOM     16  H   UNL     1      33.723 -10.060 -24.125  0.00  0.00    +0.148 HD
ATOM     17  H   UNL     1      31.146  -9.899 -20.963  0.00  0.00    +0.148 HD
ENDBRANCH   1   8
BRANCH   4  18
ATOM     18  N   UNL     1      34.781 -15.750 -20.477  0.00  0.00    -0.344 N 
ATOM     19  H   UNL     1      34.228 -16.286 -19.864  0.00  0.00    +0.144 HD
ATOM     20  H   UNL     1      35.357 -15.035 -20.122  0.00  0.00    +0.144 HD
ENDBRANCH   4  18
BRANCH   3  22
ATOM     21  O   UNL     1      37.138 -18.380 -22.439  0.00  0.00    -0.285 OA
ATOM     22  C   UNL     1      35.955 -18.256 -22.047  0.00  0.00    +0.213 C 
BRANCH  22  24
ATOM     23  N   UNL     1      36.070 -20.016 -20.322  0.00  0.00    -0.310 N 
ATOM     24  C   UNL     1      35.357 -19.217 -21.175  0.00  0.00    +0.088 C 
ATOM     25  C   UNL     1      35.218 -20.836 -19.616  0.00  0.00    +0.048 C 
ATOM     26  C   UNL     1      33.920 -20.542 -20.039  0.00  0.00    +0.015 C 
ATOM     27  C   UNL     1      34.024 -19.519 -21.023  0.00  0.00    +0.019 C 
ATOM     28  C   UNL     1      35.494 -21.804 -18.645  0.00  0.00    +0.015 C 
ATOM     29  C   UNL     1      32.844 -21.247 -19.466  0.00  0.00    +0.001 C 
ATOM     30  C   UNL     1      34.411 -22.491 -18.090  0.00  0.00    +0.001 C 
ATOM     31  C   UNL     1      33.105 -22.219 -18.493  0.00  0.00    +0.000 C 
ATOM     32  H   UNL     1      37.050 -20.007 -20.227  0.00  0.00    +0.152 HD
ENDBRANCH  22  24
ENDBRANCH   3  22
TORSDOF 4
ENDMDL
MODEL 5
REMARK VINA RESULT:     -11.0      2.340      9.343
REMARK  Name = 66555680
REMARK  4 active torsions:
REMARK  status: ('A' for Active; 'I' for Inactive)
REMARK    1  A    between atoms: N_1  and  C_8
REMARK    2  A    between atoms: C_3  and  C_22
REMARK    3  A    between atoms: C_4  and  N_18
REMARK    4  A    between atoms: C_22  and  C_24
REMARK                            x       y       z     vdW  Elec       q    Type
REMARK                         _______ _______ _______ _____ _____    ______ ____
ROOT
ATOM      1  N   UNL     1      34.394 -20.886 -19.650  0.00  0.00    -0.177 N 
ATOM      2  N   UNL     1      33.232 -20.673 -20.290  0.00  0.00    -0.171 NA
ATOM      3  C   UNL     1      34.949 -19.528 -21.269  0.00  0.00    +0.090 C 
ATOM      4  C   UNL     1      35.454 -20.223 -20.197  0.00  0.00    +0.122 C 
ATOM      5  C   UNL     1      33.577 -19.843 -21.278  0.00  0.00    +0.124 C 
ENDROOT
BRANCH   1   8
ATOM      6  N   UNL     1      36.522 -23.055 -15.773  0.00  0.00    -0.318 N 
ATOM      7  N   UNL     1      34.690 -24.173 -15.194  0.00  0.00    -0.318 N 
ATOM      8  C   UNL     1      34.420 -21.726 -18.535  0.00  0.00    +0.077 C 
ATOM      9  C   UNL     1      35.571 -22.703 -16.696  0.00  0.00    +0.060 C 
ATOM     10  C   UNL     1      35.603 -21.850 -17.799  0.00  0.00    +0.032 C 
ATOM     11  C   UNL     1      34.437 -23.414 -16.313  0.00  0.00    +0.059 C 
ATOM     12  C   UNL     1      33.267 -22.427 -18.175  0.00  0.00    +0.018 C 
ATOM     13  C   UNL     1      33.257 -23.278 -17.064  0.00  0.00    +0.017 C 
ATOM     14  C   UNL     1      35.948 -23.935 -14.897  0.00  0.00    +0.144 C 
ATOM     15  C   UNL     1      36.714 -24.507 -13.775  0.00  0.00    +0.044 C 
ATOM     16  H   UNL     1      37.451 -22.732 -15.745  0.00  0.00    +0.148 HD
ATOM     17  H   UNL     1      34.065 -24.767 -14.718  0.00  0.00    +0.148 HD
ENDBRANCH   1   8
BRANCH   4  18
ATOM     18  N   UNL     1      36.701 -20.318 -19.687  0.00  0.00    -0.344 N 
ATOM     19  H   UNL     1      37.472 -19.998 -20.207  0.00  0.00    +0.144 HD
ATOM     20  H   UNL     1      36.839 -20.709 -18.794  0.00  0.00    +0.144 HD
ENDBRANCH   4  18
BRANCH   3  22
ATOM     21  O   UNL     1      36.932 -18.937 -22.359  0.00  0.00    -0.285 OA
ATOM     22  C   UNL     1      35.725 -18.636 -22.205  0.00  0.00    +0.213 C 
BRANCH  22  24
ATOM     23  N   UNL     1      35.071 -16.261 -22.343  0.00  0.00    -0.310 N 
ATOM     24  C   UNL     1      35.147 -17.518 -22.880  0.00  0.00    +0.088 C 
ATOM     25  C   UNL     1      34.462 -15.401 -23.230  0.00  0.00    +0.048 C 
ATOM     26  C   UNL     1      34.144 -16.143 -24.369  0.00  0.00    +0.015 C 
ATOM     27  C   UNL     1      34.581 -17.478 -24.134  0.00  0.00    +0.019 C 
ATOM     28  C   UNL     1      34.173 -14.038 -23.112  0.00  0.00    +0.015 C 
ATOM     29  C   UNL     1      33.506 -15.495 -25.444  0.00  0.00    +0.001 C 
ATOM     30  C   UNL     1      33.540 -13.416 -24.191  0.00  0.00    +0.001 C 
ATOM     31  C   UNL     1      33.210 -14.131 -25.341  0.00  0.00    +0.000 C 
ATOM     32  H   UNL     1      35.402 -16.009 -21.451  0.00  0.00    +0.152 HD
ENDBRANCH  22  24
ENDBRANCH   3  22
TORSDOF 4
ENDMDL
MODEL 6
REMARK VINA RESULT:     -10.9      1.404      2.081
REMARK  Name = 66555680
REMARK  4 active torsions:
REMARK  status: ('A' for Active; 'I' for Inactive)
REMARK    1  A    between atoms: N_1  and  C_8
REMARK    2  A    between atoms: C_3  and  C_22
REMARK    3  A    between atoms: C_4  and  N_18
REMARK    4  A    between atoms: C_22  and  C_24
REMARK                            x       y       z     vdW  Elec       q    Type
REMARK                         _______ _______ _______ _____ _____    ______ ____
ROOT
ATOM      1  N   UNL     1      35.193 -19.784 -20.478  0.00  0.00    -0.177 N 
ATOM      2  N   UNL     1      36.442 -20.149 -20.138  0.00  0.00    -0.171 NA
ATOM      3  C   UNL     1      34.888 -21.601 -19.304  0.00  0.00    +0.090 C 
ATOM      4  C   UNL     1      34.226 -20.621 -20.003  0.00  0.00    +0.122 C 
ATOM      5  C   UNL     1      36.248 -21.259 -19.421  0.00  0.00    +0.124 C 
ENDROOT
BRANCH   1   8
ATOM      6  N   UNL     1      34.019 -17.347 -24.594  0.00  0.00    -0.318 N 
ATOM      7  N   UNL     1      34.373 -15.344 -23.697  0.00  0.00    -0.318 N 
ATOM      8  C   UNL     1      34.999 -18.637 -21.249  0.00  0.00    +0.077 C 
ATOM      9  C   UNL     1      34.408 -17.588 -23.301  0.00  0.00    +0.060 C 
ATOM     10  C   UNL     1      34.584 -18.768 -22.579  0.00  0.00    +0.032 C 
ATOM     11  C   UNL     1      34.623 -16.323 -22.763  0.00  0.00    +0.059 C 
ATOM     12  C   UNL     1      35.223 -17.381 -20.681  0.00  0.00    +0.018 C 
ATOM     13  C   UNL     1      35.039 -16.210 -21.426  0.00  0.00    +0.017 C 
ATOM     14  C   UNL     1      34.013 -15.993 -24.782  0.00  0.00    +0.144 C 
ATOM     15  C   UNL     1      33.636 -15.402 -26.079  0.00  0.00    +0.044 C 
ATOM     16  H   UNL     1      33.785 -18.028 -25.266  0.00  0.00    +0.148 HD
ATOM     17  H   UNL     1      34.447 -14.369 -23.579  0.00  0.00    +0.148 HD
ENDBRANCH   1   8
BRANCH   4  18
ATOM     18  N   UNL     1      32.914 -20.413 -20.246  0.00  0.00    -0.344 N 
ATOM     19  H   UNL     1      32.283 -20.314 -19.496  0.00  0.00    +0.144 HD
ATOM     20  H   UNL     1      32.587 -20.360 -21.173  0.00  0.00    +0.144 HD
ENDBRANCH   4  18
BRANCH   3  22
ATOM     21  O   UNL     1      33.557 -23.524 -19.295  0.00  0.00    -0.285 OA
ATOM     22  C   UNL     1      34.260 -22.769 -18.585  0.00  0.00    +0.213 C 
BRANCH  22  24
ATOM     23  N   UNL     1      35.600 -22.755 -16.513  0.00  0.00    -0.310 N 
ATOM     24  C   UNL     1      34.439 -23.016 -17.189  0.00  0.00    +0.088 C 
ATOM     25  C   UNL     1      35.465 -23.100 -15.186  0.00  0.00    +0.048 C 
ATOM     26  C   UNL     1      34.170 -23.597 -15.020  0.00  0.00    +0.015 C 
ATOM     27  C   UNL     1      33.535 -23.538 -16.293  0.00  0.00    +0.019 C 
ATOM     28  C   UNL     1      36.380 -23.011 -14.132  0.00  0.00    +0.015 C 
ATOM     29  C   UNL     1      33.767 -24.025 -13.741  0.00  0.00    +0.001 C 
ATOM     30  C   UNL     1      35.958 -23.442 -12.871  0.00  0.00    +0.001 C 
ATOM     31  C   UNL     1      34.672 -23.942 -12.676  0.00  0.00    +0.000 C 
ATOM     32  H   UNL     1      36.414 -22.376 -16.916  0.00  0.00    +0.152 HD
ENDBRANCH  22  24
ENDBRANCH   3  22
TORSDOF 4
ENDMDL
MODEL 7
REMARK VINA RESULT:     -10.9      6.804     10.327
REMARK  Name = 66555680
REMARK  4 active torsions:
REMARK  status: ('A' for Active; 'I' for Inactive)
REMARK    1  A    between atoms: N_1  and  C_8
REMARK    2  A    between atoms: C_3  and  C_22
REMARK    3  A    between atoms: C_4  and  N_18
REMARK    4  A    between atoms: C_22  and  C_24
REMARK                            x       y       z     vdW  Elec       q    Type
REMARK                         _______ _______ _______ _____ _____    ______ ____
ROOT
ATOM      1  N   UNL     1      32.241 -10.742 -21.899  0.00  0.00    -0.177 N 
ATOM      2  N   UNL     1      31.600 -11.690 -21.194  0.00  0.00    -0.171 NA
ATOM      3  C   UNL     1      32.924 -12.604 -22.815  0.00  0.00    +0.090 C 
ATOM      4  C   UNL     1      33.047 -11.237 -22.882  0.00  0.00    +0.122 C 
ATOM      5  C   UNL     1      32.021 -12.825 -21.758  0.00  0.00    +0.124 C 
ENDROOT
BRANCH   1   8
ATOM      6  N   UNL     1      30.925  -6.099 -22.882  0.00  0.00    -0.318 N 
ATOM      7  N   UNL     1      31.380  -5.369 -20.832  0.00  0.00    -0.318 N 
ATOM      8  C   UNL     1      32.040  -9.397 -21.583  0.00  0.00    +0.077 C 
ATOM      9  C   UNL     1      31.373  -7.197 -22.193  0.00  0.00    +0.060 C 
ATOM     10  C   UNL     1      31.553  -8.529 -22.566  0.00  0.00    +0.032 C 
ATOM     11  C   UNL     1      31.651  -6.715 -20.917  0.00  0.00    +0.059 C 
ATOM     12  C   UNL     1      32.328  -8.943 -20.294  0.00  0.00    +0.018 C 
ATOM     13  C   UNL     1      32.139  -7.602 -19.942  0.00  0.00    +0.017 C 
ATOM     14  C   UNL     1      30.947  -5.032 -22.026  0.00  0.00    +0.144 C 
ATOM     15  C   UNL     1      30.520  -3.690 -22.464  0.00  0.00    +0.044 C 
ATOM     16  H   UNL     1      30.637  -6.082 -23.823  0.00  0.00    +0.148 HD
ATOM     17  H   UNL     1      31.488  -4.784 -20.047  0.00  0.00    +0.148 HD
ENDBRANCH   1   8
BRANCH   4  18
ATOM     18  N   UNL     1      33.770 -10.433 -23.691  0.00  0.00    -0.344 N 
ATOM     19  H   UNL     1      34.617 -10.045 -23.372  0.00  0.00    +0.144 HD
ATOM     20  H   UNL     1      33.449 -10.233 -24.600  0.00  0.00    +0.144 HD
ENDBRANCH   4  18
BRANCH   3  22
ATOM     21  O   UNL     1      33.796 -13.256 -24.886  0.00  0.00    -0.285 OA
ATOM     22  C   UNL     1      33.619 -13.611 -23.697  0.00  0.00    +0.213 C 
BRANCH  22  24
ATOM     23  N   UNL     1      34.014 -16.029 -23.990  0.00  0.00    -0.310 N 
ATOM     24  C   UNL     1      34.055 -14.890 -23.232  0.00  0.00    +0.088 C 
ATOM     25  C   UNL     1      34.499 -17.097 -23.269  0.00  0.00    +0.048 C 
ATOM     26  C   UNL     1      34.859 -16.613 -22.009  0.00  0.00    +0.015 C 
ATOM     27  C   UNL     1      34.573 -15.219 -22.000  0.00  0.00    +0.019 C 
ATOM     28  C   UNL     1      34.646 -18.440 -23.631  0.00  0.00    +0.015 C 
ATOM     29  C   UNL     1      35.391 -17.512 -21.065  0.00  0.00    +0.001 C 
ATOM     30  C   UNL     1      35.176 -19.313 -22.678  0.00  0.00    +0.001 C 
ATOM     31  C   UNL     1      35.543 -18.858 -21.413  0.00  0.00    +0.000 C 
ATOM     32  H   UNL     1      33.686 -16.077 -24.917  0.00  0.00    +0.152 HD
ENDBRANCH  22  24
ENDBRANCH   3  22
TORSDOF 4
ENDMDL
MODEL 8
REMARK VINA RESULT:     -10.8      8.001     14.195
REMARK  Name = 66555680
REMARK  4 active torsions:
REMARK  status: ('A' for Active; 'I' for Inactive)
REMARK    1  A    between atoms: N_1  and  C_8
REMARK    2  A    between atoms: C_3  and  C_22
REMARK    3  A    between atoms: C_4  and  N_18
REMARK    4  A    between atoms: C_22  and  C_24
REMARK                            x       y       z     vdW  Elec       q    Type
REMARK                         _______ _______ _______ _____ _____    ______ ____
ROOT
ATOM      1  N   UNL     1      33.532 -10.995 -23.416  0.00  0.00    -0.177 N 
ATOM      2  N   UNL     1      32.480 -10.619 -22.667  0.00  0.00    -0.171 NA
ATOM      3  C   UNL     1      33.824  -8.843 -23.176  0.00  0.00    +0.090 C 
ATOM      4  C   UNL     1      34.367  -9.968 -23.747  0.00  0.00    +0.122 C 
ATOM      5  C   UNL     1      32.664  -9.304 -22.524  0.00  0.00    +0.124 C 
ENDROOT
BRANCH   1   8
ATOM      6  N   UNL     1      34.749 -15.700 -22.613  0.00  0.00    -0.318 N 
ATOM      7  N   UNL     1      34.174 -16.362 -24.656  0.00  0.00    -0.318 N 
ATOM      8  C   UNL     1      33.675 -12.336 -23.774  0.00  0.00    +0.077 C 
ATOM      9  C   UNL     1      34.303 -14.571 -23.252  0.00  0.00    +0.060 C 
ATOM     10  C   UNL     1      34.181 -13.245 -22.838  0.00  0.00    +0.032 C 
ATOM     11  C   UNL     1      33.950 -15.010 -24.524  0.00  0.00    +0.059 C 
ATOM     12  C   UNL     1      33.313 -12.748 -25.059  0.00  0.00    +0.018 C 
ATOM     13  C   UNL     1      33.444 -14.084 -25.452  0.00  0.00    +0.017 C 
ATOM     14  C   UNL     1      34.653 -16.742 -23.493  0.00  0.00    +0.144 C 
ATOM     15  C   UNL     1      35.058 -18.107 -23.109  0.00  0.00    +0.044 C 
ATOM     16  H   UNL     1      35.079 -15.750 -21.687  0.00  0.00    +0.148 HD
ATOM     17  H   UNL     1      34.012 -16.922 -25.449  0.00  0.00    +0.148 HD
ENDBRANCH   1   8
BRANCH   4  18
ATOM     18  N   UNL     1      35.475 -10.158 -24.496  0.00  0.00    -0.344 N 
ATOM     19  H   UNL     1      36.159  -9.452 -24.552  0.00  0.00    +0.144 HD
ATOM     20  H   UNL     1      35.599 -11.002 -24.987  0.00  0.00    +0.144 HD
ENDBRANCH   4  18
BRANCH   3  22
ATOM     21  O   UNL     1      35.575  -7.316 -22.904  0.00  0.00    -0.285 OA
ATOM     22  C   UNL     1      34.377  -7.442 -23.253  0.00  0.00    +0.213 C 
BRANCH  22  24
ATOM     23  N   UNL     1      32.560  -5.796 -22.982  0.00  0.00    -0.310 N 
ATOM     24  C   UNL     1      33.609  -6.320 -23.689  0.00  0.00    +0.088 C 
ATOM     25  C   UNL     1      32.021  -4.724 -23.657  0.00  0.00    +0.048 C 
ATOM     26  C   UNL     1      32.757  -4.566 -24.834  0.00  0.00    +0.015 C 
ATOM     27  C   UNL     1      33.756  -5.581 -24.840  0.00  0.00    +0.019 C 
ATOM     28  C   UNL     1      30.949  -3.890 -23.321  0.00  0.00    +0.015 C 
ATOM     29  C   UNL     1      32.409  -3.527 -25.717  0.00  0.00    +0.001 C 
ATOM     30  C   UNL     1      30.622  -2.866 -24.213  0.00  0.00    +0.001 C 
ATOM     31  C   UNL     1      31.339  -2.685 -25.394  0.00  0.00    +0.000 C 
ATOM     32  H   UNL     1      32.238  -6.136 -22.116  0.00  0.00    +0.152 HD
ENDBRANCH  22  24
ENDBRANCH   3  22
TORSDOF 4
ENDMDL
MODEL 9
REMARK VINA RESULT:     -10.8      1.889      9.367
REMARK  Name = 66555680
REMARK  4 active torsions:
REMARK  status: ('A' for Active; 'I' for Inactive)
REMARK    1  A    between atoms: N_1  and  C_8
REMARK    2  A    between atoms: C_3  and  C_22
REMARK    3  A    between atoms: C_4  and  N_18
REMARK    4  A    between atoms: C_22  and  C_24
REMARK                            x       y       z     vdW  Elec       q    Type
REMARK                         _______ _______ _______ _____ _____    ______ ____
ROOT
ATOM      1  N   UNL     1      33.726 -22.020 -18.206  0.00  0.00    -0.177 N 
ATOM      2  N   UNL     1      32.704 -21.782 -19.045  0.00  0.00    -0.171 NA
ATOM      3  C   UNL     1      34.648 -20.858 -19.809  0.00  0.00    +0.090 C 
ATOM      4  C   UNL     1      34.913 -21.488 -18.617  0.00  0.00    +0.122 C 
ATOM      5  C   UNL     1      33.274 -21.072 -20.023  0.00  0.00    +0.124 C 
ENDROOT
BRANCH   1   8
ATOM      6  N   UNL     1      30.922 -23.948 -14.645  0.00  0.00    -0.318 N 
ATOM      7  N   UNL     1      32.634 -24.898 -13.592  0.00  0.00    -0.318 N 
ATOM      8  C   UNL     1      33.501 -22.755 -17.040  0.00  0.00    +0.077 C 
ATOM      9  C   UNL     1      32.030 -23.626 -15.385  0.00  0.00    +0.060 C 
ATOM     10  C   UNL     1      32.196 -22.882 -16.553  0.00  0.00    +0.032 C 
ATOM     11  C   UNL     1      33.086 -24.230 -14.708  0.00  0.00    +0.059 C 
ATOM     12  C   UNL     1      34.580 -23.350 -16.383  0.00  0.00    +0.018 C 
ATOM     13  C   UNL     1      34.390 -24.093 -15.212  0.00  0.00    +0.017 C 
ATOM     14  C   UNL     1      31.334 -24.708 -13.585  0.00  0.00    +0.144 C 
ATOM     15  C   UNL     1      30.373 -25.220 -12.591  0.00  0.00    +0.044 C 
ATOM     16  H   UNL     1      29.995 -23.680 -14.842  0.00  0.00    +0.148 HD
ATOM     17  H   UNL     1      33.169 -25.406 -12.941  0.00  0.00    +0.148 HD
ENDBRANCH   1   8
BRANCH   4  18
ATOM     18  N   UNL     1      36.049 -21.627 -17.900  0.00  0.00    -0.344 N 
ATOM     19  H   UNL     1      36.784 -22.185 -18.244  0.00  0.00    +0.144 HD
ATOM     20  H   UNL     1      36.143 -21.171 -17.033  0.00  0.00    +0.144 HD
ENDBRANCH   4  18
BRANCH   3  22
ATOM     21  O   UNL     1      36.844 -20.402 -20.476  0.00  0.00    -0.285 OA
ATOM     22  C   UNL     1      35.639 -20.114 -20.669  0.00  0.00    +0.213 C 
BRANCH  22  24
ATOM     23  N   UNL     1      35.379 -17.789 -21.454  0.00  0.00    -0.310 N 
ATOM     24  C   UNL     1      35.256 -19.140 -21.641  0.00  0.00    +0.088 C 
ATOM     25  C   UNL     1      34.926 -17.113 -22.565  0.00  0.00    +0.048 C 
ATOM     26  C   UNL     1      34.501 -18.073 -23.486  0.00  0.00    +0.015 C 
ATOM     27  C   UNL     1      34.715 -19.348 -22.889  0.00  0.00    +0.019 C 
ATOM     28  C   UNL     1      34.860 -15.740 -22.823  0.00  0.00    +0.015 C 
ATOM     29  C   UNL     1      33.986 -17.644 -24.725  0.00  0.00    +0.001 C 
ATOM     30  C   UNL     1      34.345 -15.337 -24.058  0.00  0.00    +0.001 C 
ATOM     31  C   UNL     1      33.914 -16.273 -24.996  0.00  0.00    +0.000 C 
ATOM     32  H   UNL     1      35.739 -17.363 -20.644  0.00  0.00    +0.152 HD
ENDBRANCH  22  24
ENDBRANCH   3  22
TORSDOF 4
ENDMDL
