MODEL 1
REMARK VINA RESULT:     -11.8      0.000      0.000
REMARK  Name = 446129
REMARK  7 active torsions:
REMARK  status: ('A' for Active; 'I' for Inactive)
REMARK    1  A    between atoms: C_1  and  O_2
REMARK    2  A    between atoms: C_1  and  C_4
REMARK    3  A    between atoms: C_1  and  C_18
REMARK    4  A    between atoms: C_4  and  N_5
REMARK    5  A    between atoms: C_18  and  O_19
REMARK    6  A    between atoms: O_19  and  C_23
REMARK    7  A    between atoms: C_20  and  C_26
REMARK                            x       y       z     vdW  Elec       q    Type
REMARK                         _______ _______ _______ _____ _____    ______ ____
ROOT
ATOM      1  C   UNL     1      33.515 -15.662 -24.316  0.00  0.00    +0.133 C 
ENDROOT
BRANCH   1   2
ATOM      2  O   UNL     1      32.724 -16.047 -25.444  0.00  0.00    -0.383 OA
ATOM      3  H   UNL     1      33.274 -16.542 -26.071  0.00  0.00    +0.210 HD
ENDBRANCH   1   2
BRANCH   1   4
ATOM      4  C   UNL     1      34.940 -16.176 -24.535  0.00  0.00    -0.043 C 
BRANCH   4   5
ATOM      5  N   UNL     1      35.236 -17.346 -23.708  0.00  0.00    +0.391 N 
ATOM      6  N   UNL     1      34.845 -19.189 -21.562  0.00  0.00    -0.298 N 
ATOM      7  C   UNL     1      34.118 -18.296 -23.740  0.00  0.00    -0.055 C 
ATOM      8  C   UNL     1      35.510 -16.941 -22.324  0.00  0.00    -0.055 C 
ATOM      9  C   UNL     1      34.439 -19.550 -22.924  0.00  0.00    +0.069 C 
ATOM     10  C   UNL     1      35.877 -18.151 -21.460  0.00  0.00    +0.069 C 
ATOM     11  H   UNL     1      36.067 -17.801 -24.088  0.00  0.00    -0.079 HD
ATOM     12  N   UNL     1      35.893 -20.503 -19.853  0.00  0.00    -0.229 NA
ATOM     13  C   UNL     1      34.766 -20.140 -20.538  0.00  0.00    +0.132 C 
ATOM     14  C   UNL     1      33.516 -20.701 -20.241  0.00  0.00    +0.034 C 
ATOM     15  C   UNL     1      33.422 -21.648 -19.228  0.00  0.00    +0.004 C 
ATOM     16  C   UNL     1      35.763 -21.427 -18.874  0.00  0.00    +0.100 C 
ATOM     17  C   UNL     1      34.562 -22.023 -18.526  0.00  0.00    +0.021 C 
ENDBRANCH   4   5
ENDBRANCH   1   4
BRANCH   1  18
ATOM     18  C   UNL     1      33.438 -14.144 -24.160  0.00  0.00    +0.232 C 
BRANCH  18  19
ATOM     19  O   UNL     1      33.206 -13.834 -22.789  0.00  0.00    -0.473 OA
BRANCH  19  23
ATOM     20  C   UNL     1      32.044  -9.943 -21.928  0.00  0.00    -0.022 C 
ATOM     21  C   UNL     1      32.960 -10.187 -22.951  0.00  0.00    -0.001 C 
ATOM     22  C   UNL     1      31.520 -11.007 -21.193  0.00  0.00    -0.001 C 
ATOM     23  C   UNL     1      32.824 -12.550 -22.505  0.00  0.00    +0.139 C 
ATOM     24  C   UNL     1      33.350 -11.494 -23.241  0.00  0.00    +0.037 C 
ATOM     25  C   UNL     1      31.912 -12.314 -21.482  0.00  0.00    +0.037 C 
BRANCH  20  26
ATOM     26  C   UNL     1      31.621  -8.521 -21.612  0.00  0.00    +0.022 C 
ATOM     27  C   UNL     1      32.706  -7.758 -20.832  0.00  0.00    +0.004 C 
ATOM     28  C   UNL     1      31.211  -7.752 -22.879  0.00  0.00    +0.004 C 
ATOM     29  C   UNL     1      32.265  -6.331 -20.512  0.00  0.00    +0.000 C 
ATOM     30  C   UNL     1      30.776  -6.324 -22.551  0.00  0.00    +0.000 C 
ATOM     31  C   UNL     1      31.851  -5.574 -21.770  0.00  0.00    +0.000 C 
ENDBRANCH  20  26
ENDBRANCH  19  23
ENDBRANCH  18  19
ENDBRANCH   1  18
TORSDOF 7
ENDMDL
MODEL 2
REMARK VINA RESULT:     -11.7      3.046     11.035
REMARK  Name = 446129
REMARK  7 active torsions:
REMARK  status: ('A' for Active; 'I' for Inactive)
REMARK    1  A    between atoms: C_1  and  O_2
REMARK    2  A    between atoms: C_1  and  C_4
REMARK    3  A    between atoms: C_1  and  C_18
REMARK    4  A    between atoms: C_4  and  N_5
REMARK    5  A    between atoms: C_18  and  O_19
REMARK    6  A    between atoms: O_19  and  C_23
REMARK    7  A    between atoms: C_20  and  C_26
REMARK                            x       y       z     vdW  Elec       q    Type
REMARK                         _______ _______ _______ _____ _____    ______ ____
ROOT
ATOM      1  C   UNL     1      35.656 -18.021 -21.971  0.00  0.00    +0.133 C 
ENDROOT
BRANCH   1   2
ATOM      2  O   UNL     1      37.036 -18.328 -22.182  0.00  0.00    -0.383 OA
ATOM      3  H   UNL     1      37.388 -17.764 -22.889  0.00  0.00    +0.210 HD
ENDBRANCH   1   2
BRANCH   1   4
ATOM      4  C   UNL     1      35.134 -17.290 -23.210  0.00  0.00    -0.043 C 
BRANCH   4   5
ATOM      5  N   UNL     1      34.883 -15.873 -22.947  0.00  0.00    +0.391 N 
ATOM      6  N   UNL     1      33.332 -13.593 -22.204  0.00  0.00    -0.298 N 
ATOM      7  C   UNL     1      34.485 -15.669 -21.550  0.00  0.00    -0.055 C 
ATOM      8  C   UNL     1      33.840 -15.360 -23.844  0.00  0.00    -0.055 C 
ATOM      9  C   UNL     1      34.275 -14.183 -21.248  0.00  0.00    +0.069 C 
ATOM     10  C   UNL     1      33.609 -13.864 -23.620  0.00  0.00    +0.069 C 
ATOM     11  H   UNL     1      35.748 -15.360 -23.122  0.00  0.00    -0.079 HD
ATOM     12  N   UNL     1      32.825 -11.296 -22.667  0.00  0.00    -0.229 NA
ATOM     13  C   UNL     1      32.668 -12.404 -21.880  0.00  0.00    +0.132 C 
ATOM     14  C   UNL     1      31.850 -12.385 -20.741  0.00  0.00    +0.034 C 
ATOM     15  C   UNL     1      31.185 -11.211 -20.406  0.00  0.00    +0.004 C 
ATOM     16  C   UNL     1      32.162 -10.173 -22.309  0.00  0.00    +0.100 C 
ATOM     17  C   UNL     1      31.338 -10.080 -21.199  0.00  0.00    +0.021 C 
ENDBRANCH   4   5
ENDBRANCH   1   4
BRANCH   1  18
ATOM     18  C   UNL     1      34.906 -19.319 -21.675  0.00  0.00    +0.232 C 
BRANCH  18  19
ATOM     19  O   UNL     1      35.738 -20.161 -20.882  0.00  0.00    -0.473 OA
BRANCH  19  23
ATOM     20  C   UNL     1      33.859 -22.382 -17.921  0.00  0.00    -0.022 C 
ATOM     21  C   UNL     1      35.252 -22.349 -17.990  0.00  0.00    -0.001 C 
ATOM     22  C   UNL     1      33.098 -21.669 -18.848  0.00  0.00    -0.001 C 
ATOM     23  C   UNL     1      35.118 -20.894 -19.906  0.00  0.00    +0.139 C 
ATOM     24  C   UNL     1      35.883 -21.602 -18.985  0.00  0.00    +0.037 C 
ATOM     25  C   UNL     1      33.730 -20.924 -19.843  0.00  0.00    +0.037 C 
BRANCH  20  26
ATOM     26  C   UNL     1      33.173 -23.195 -16.840  0.00  0.00    +0.022 C 
ATOM     27  C   UNL     1      33.933 -23.131 -15.503  0.00  0.00    +0.004 C 
ATOM     28  C   UNL     1      31.703 -22.779 -16.657  0.00  0.00    +0.004 C 
ATOM     29  C   UNL     1      33.239 -23.960 -14.424  0.00  0.00    +0.000 C 
ATOM     30  C   UNL     1      31.017 -23.610 -15.573  0.00  0.00    +0.000 C 
ATOM     31  C   UNL     1      31.779 -23.550 -14.253  0.00  0.00    +0.000 C 
ENDBRANCH  20  26
ENDBRANCH  19  23
ENDBRANCH  18  19
ENDBRANCH   1  18
TORSDOF 7
ENDMDL
MODEL 3
REMARK VINA RESULT:     -11.5      2.982     11.152
REMARK  Name = 446129
REMARK  7 active torsions:
REMARK  status: ('A' for Active; 'I' for Inactive)
REMARK    1  A    between atoms: C_1  and  O_2
REMARK    2  A    between atoms: C_1  and  C_4
REMARK    3  A    between atoms: C_1  and  C_18
REMARK    4  A    between atoms: C_4  and  N_5
REMARK    5  A    between atoms: C_18  and  O_19
REMARK    6  A    between atoms: O_19  and  C_23
REMARK    7  A    between atoms: C_20  and  C_26
REMARK                            x       y       z     vdW  Elec       q    Type
REMARK                         _______ _______ _______ _____ _____    ______ ____
ROOT
ATOM      1  C   UNL     1      35.478 -17.911 -22.083  0.00  0.00    +0.133 C 
ENDROOT
BRANCH   1   2
ATOM      2  O   UNL     1      36.862 -18.251 -22.205  0.00  0.00    -0.383 OA
ATOM      3  H   UNL     1      36.986 -19.188 -21.988  0.00  0.00    +0.210 HD
ENDBRANCH   1   2
BRANCH   1   4
ATOM      4  C   UNL     1      35.016 -17.307 -23.411  0.00  0.00    -0.043 C 
BRANCH   4   5
ATOM      5  N   UNL     1      34.155 -16.141 -23.215  0.00  0.00    +0.391 N 
ATOM      6  N   UNL     1      33.551 -13.365 -22.920  0.00  0.00    -0.298 N 
ATOM      7  C   UNL     1      34.243 -15.235 -24.366  0.00  0.00    -0.055 C 
ATOM      8  C   UNL     1      34.527 -15.427 -21.988  0.00  0.00    -0.055 C 
ATOM      9  C   UNL     1      33.303 -14.039 -24.199  0.00  0.00    +0.069 C 
ATOM     10  C   UNL     1      33.597 -14.237 -21.740  0.00  0.00    +0.069 C 
ATOM     11  H   UNL     1      33.193 -16.469 -23.126  0.00  0.00    -0.079 HD
ATOM     12  N   UNL     1      32.249 -11.727 -21.751  0.00  0.00    -0.229 NA
ATOM     13  C   UNL     1      33.138 -12.039 -22.742  0.00  0.00    +0.132 C 
ATOM     14  C   UNL     1      33.655 -11.058 -23.600  0.00  0.00    +0.034 C 
ATOM     15  C   UNL     1      33.254  -9.736 -23.436  0.00  0.00    +0.004 C 
ATOM     16  C   UNL     1      31.882 -10.432 -21.622  0.00  0.00    +0.100 C 
ATOM     17  C   UNL     1      32.351  -9.409 -22.431  0.00  0.00    +0.021 C 
ENDBRANCH   4   5
ENDBRANCH   1   4
BRANCH   1  18
ATOM     18  C   UNL     1      34.700 -19.165 -21.687  0.00  0.00    +0.232 C 
BRANCH  18  19
ATOM     19  O   UNL     1      35.582 -20.063 -21.021  0.00  0.00    -0.473 OA
BRANCH  19  23
ATOM     20  C   UNL     1      33.954 -22.359 -17.970  0.00  0.00    -0.022 C 
ATOM     21  C   UNL     1      33.117 -21.703 -18.872  0.00  0.00    -0.001 C 
ATOM     22  C   UNL     1      35.339 -22.243 -18.093  0.00  0.00    -0.001 C 
ATOM     23  C   UNL     1      35.045 -20.820 -20.014  0.00  0.00    +0.139 C 
ATOM     24  C   UNL     1      33.663 -20.932 -19.897  0.00  0.00    +0.037 C 
ATOM     25  C   UNL     1      35.886 -21.470 -19.118  0.00  0.00    +0.037 C 
BRANCH  20  26
ATOM     26  C   UNL     1      33.359 -23.198 -16.855  0.00  0.00    +0.022 C 
ATOM     27  C   UNL     1      34.182 -23.097 -15.558  0.00  0.00    +0.004 C 
ATOM     28  C   UNL     1      31.884 -22.846 -16.599  0.00  0.00    +0.004 C 
ATOM     29  C   UNL     1      33.579 -23.951 -14.445  0.00  0.00    +0.000 C 
ATOM     30  C   UNL     1      31.290 -23.701 -15.481  0.00  0.00    +0.000 C 
ATOM     31  C   UNL     1      32.113 -23.605 -14.200  0.00  0.00    +0.000 C 
ENDBRANCH  20  26
ENDBRANCH  19  23
ENDBRANCH  18  19
ENDBRANCH   1  18
TORSDOF 7
ENDMDL
MODEL 4
REMARK VINA RESULT:     -11.3      2.747     10.725
REMARK  Name = 446129
REMARK  7 active torsions:
REMARK  status: ('A' for Active; 'I' for Inactive)
REMARK    1  A    between atoms: C_1  and  O_2
REMARK    2  A    between atoms: C_1  and  C_4
REMARK    3  A    between atoms: C_1  and  C_18
REMARK    4  A    between atoms: C_4  and  N_5
REMARK    5  A    between atoms: C_18  and  O_19
REMARK    6  A    between atoms: O_19  and  C_23
REMARK    7  A    between atoms: C_20  and  C_26
REMARK                            x       y       z     vdW  Elec       q    Type
REMARK                         _______ _______ _______ _____ _____    ______ ____
ROOT
ATOM      1  C   UNL     1      33.556 -14.296 -24.672  0.00  0.00    +0.133 C 
ENDROOT
BRANCH   1   2
ATOM      2  O   UNL     1      32.385 -14.232 -25.490  0.00  0.00    -0.383 OA
ATOM      3  H   UNL     1      32.081 -13.313 -25.548  0.00  0.00    +0.210 HD
ENDBRANCH   1   2
BRANCH   1   4
ATOM      4  C   UNL     1      33.138 -14.049 -23.221  0.00  0.00    -0.043 C 
BRANCH   4   5
ATOM      5  N   UNL     1      33.292 -12.647 -22.834  0.00  0.00    +0.391 N 
ATOM      6  N   UNL     1      32.725  -9.848 -22.894  0.00  0.00    -0.298 N 
ATOM      7  C   UNL     1      32.044 -12.130 -22.262  0.00  0.00    -0.055 C 
ATOM      8  C   UNL     1      33.685 -11.835 -23.992  0.00  0.00    -0.055 C 
ATOM      9  C   UNL     1      32.209 -10.679 -21.802  0.00  0.00    +0.069 C 
ATOM     10  C   UNL     1      33.906 -10.374 -23.590  0.00  0.00    +0.069 C 
ATOM     11  H   UNL     1      34.027 -12.591 -22.129  0.00  0.00    -0.079 HD
ATOM     12  N   UNL     1      33.640  -7.633 -22.861  0.00  0.00    -0.229 NA
ATOM     13  C   UNL     1      32.551  -8.460 -22.853  0.00  0.00    +0.132 C 
ATOM     14  C   UNL     1      31.245  -7.952 -22.803  0.00  0.00    +0.034 C 
ATOM     15  C   UNL     1      31.055  -6.575 -22.761  0.00  0.00    +0.004 C 
ATOM     16  C   UNL     1      33.417  -6.300 -22.819  0.00  0.00    +0.100 C 
ATOM     17  C   UNL     1      32.157  -5.727 -22.769  0.00  0.00    +0.021 C 
ENDBRANCH   4   5
ENDBRANCH   1   4
BRANCH   1  18
ATOM     18  C   UNL     1      34.227 -15.652 -24.885  0.00  0.00    +0.232 C 
BRANCH  18  19
ATOM     19  O   UNL     1      35.193 -15.854 -23.858  0.00  0.00    -0.473 OA
BRANCH  19  23
ATOM     20  C   UNL     1      34.801 -19.298 -21.575  0.00  0.00    -0.022 C 
ATOM     21  C   UNL     1      34.493 -19.324 -22.935  0.00  0.00    -0.001 C 
ATOM     22  C   UNL     1      35.240 -18.115 -20.983  0.00  0.00    -0.001 C 
ATOM     23  C   UNL     1      35.063 -16.990 -23.105  0.00  0.00    +0.139 C 
ATOM     24  C   UNL     1      34.625 -18.167 -23.703  0.00  0.00    +0.037 C 
ATOM     25  C   UNL     1      35.371 -16.957 -21.750  0.00  0.00    +0.037 C 
BRANCH  20  26
ATOM     26  C   UNL     1      34.656 -20.557 -20.741  0.00  0.00    +0.022 C 
ATOM     27  C   UNL     1      35.839 -20.745 -19.774  0.00  0.00    +0.004 C 
ATOM     28  C   UNL     1      33.317 -20.592 -19.985  0.00  0.00    +0.004 C 
ATOM     29  C   UNL     1      35.688 -22.019 -18.946  0.00  0.00    +0.000 C 
ATOM     30  C   UNL     1      33.176 -21.868 -19.156  0.00  0.00    +0.000 C 
ATOM     31  C   UNL     1      34.354 -22.054 -18.205  0.00  0.00    +0.000 C 
ENDBRANCH  20  26
ENDBRANCH  19  23
ENDBRANCH  18  19
ENDBRANCH   1  18
TORSDOF 7
ENDMDL
MODEL 5
REMARK VINA RESULT:     -11.3      2.720     10.981
REMARK  Name = 446129
REMARK  7 active torsions:
REMARK  status: ('A' for Active; 'I' for Inactive)
REMARK    1  A    between atoms: C_1  and  O_2
REMARK    2  A    between atoms: C_1  and  C_4
REMARK    3  A    between atoms: C_1  and  C_18
REMARK    4  A    between atoms: C_4  and  N_5
REMARK    5  A    between atoms: C_18  and  O_19
REMARK    6  A    between atoms: O_19  and  C_23
REMARK    7  A    between atoms: C_20  and  C_26
REMARK                            x       y       z     vdW  Elec       q    Type
REMARK                         _______ _______ _______ _____ _____    ______ ____
ROOT
ATOM      1  C   UNL     1      34.488 -16.409 -23.341  0.00  0.00    +0.133 C 
ENDROOT
BRANCH   1   2
ATOM      2  O   UNL     1      35.782 -15.904 -23.681  0.00  0.00    -0.383 OA
ATOM      3  H   UNL     1      36.180 -15.482 -22.903  0.00  0.00    +0.210 HD
ENDBRANCH   1   2
BRANCH   1   4
ATOM      4  C   UNL     1      33.499 -15.944 -24.412  0.00  0.00    -0.043 C 
BRANCH   4   5
ATOM      5  N   UNL     1      33.161 -14.528 -24.273  0.00  0.00    +0.391 N 
ATOM      6  N   UNL     1      33.660 -11.770 -23.720  0.00  0.00    -0.298 N 
ATOM      7  C   UNL     1      33.954 -13.715 -25.203  0.00  0.00    -0.055 C 
ATOM      8  C   UNL     1      33.391 -14.077 -22.895  0.00  0.00    -0.055 C 
ATOM      9  C   UNL     1      33.570 -12.237 -25.107  0.00  0.00    +0.069 C 
ATOM     10  C   UNL     1      32.988 -12.611 -22.721  0.00  0.00    +0.069 C 
ATOM     11  H   UNL     1      32.172 -14.413 -24.495  0.00  0.00    -0.079 HD
ATOM     12  N   UNL     1      32.833  -9.766 -22.698  0.00  0.00    -0.229 NA
ATOM     13  C   UNL     1      33.780 -10.401 -23.453  0.00  0.00    +0.132 C 
ATOM     14  C   UNL     1      34.883  -9.713 -23.977  0.00  0.00    +0.034 C 
ATOM     15  C   UNL     1      35.015  -8.352 -23.722  0.00  0.00    +0.004 C 
ATOM     16  C   UNL     1      32.995  -8.443 -22.471  0.00  0.00    +0.100 C 
ATOM     17  C   UNL     1      34.058  -7.698 -22.955  0.00  0.00    +0.021 C 
ENDBRANCH   4   5
ENDBRANCH   1   4
BRANCH   1  18
ATOM     18  C   UNL     1      34.573 -17.929 -23.215  0.00  0.00    +0.232 C 
BRANCH  18  19
ATOM     19  O   UNL     1      35.663 -18.260 -22.361  0.00  0.00    -0.473 OA
BRANCH  19  23
ATOM     20  C   UNL     1      34.966 -21.178 -19.493  0.00  0.00    -0.022 C 
ATOM     21  C   UNL     1      33.902 -20.649 -20.222  0.00  0.00    -0.001 C 
ATOM     22  C   UNL     1      36.265 -20.726 -19.727  0.00  0.00    -0.001 C 
ATOM     23  C   UNL     1      35.433 -19.222 -21.415  0.00  0.00    +0.139 C 
ATOM     24  C   UNL     1      34.136 -19.669 -21.186  0.00  0.00    +0.037 C 
ATOM     25  C   UNL     1      36.499 -19.745 -20.690  0.00  0.00    +0.037 C 
BRANCH  20  26
ATOM     26  C   UNL     1      34.711 -22.244 -18.443  0.00  0.00    +0.022 C 
ATOM     27  C   UNL     1      35.585 -22.040 -17.193  0.00  0.00    +0.004 C 
ATOM     28  C   UNL     1      33.222 -22.331 -18.066  0.00  0.00    +0.004 C 
ATOM     29  C   UNL     1      35.327 -23.123 -16.147  0.00  0.00    +0.000 C 
ATOM     30  C   UNL     1      32.973 -23.413 -17.016  0.00  0.00    +0.000 C 
ATOM     31  C   UNL     1      33.847 -23.212 -15.782  0.00  0.00    +0.000 C 
ENDBRANCH  20  26
ENDBRANCH  19  23
ENDBRANCH  18  19
ENDBRANCH   1  18
TORSDOF 7
ENDMDL
MODEL 6
REMARK VINA RESULT:     -11.0      3.193     11.258
REMARK  Name = 446129
REMARK  7 active torsions:
REMARK  status: ('A' for Active; 'I' for Inactive)
REMARK    1  A    between atoms: C_1  and  O_2
REMARK    2  A    between atoms: C_1  and  C_4
REMARK    3  A    between atoms: C_1  and  C_18
REMARK    4  A    between atoms: C_4  and  N_5
REMARK    5  A    between atoms: C_18  and  O_19
REMARK    6  A    between atoms: O_19  and  C_23
REMARK    7  A    between atoms: C_20  and  C_26
REMARK                            x       y       z     vdW  Elec       q    Type
REMARK                         _______ _______ _______ _____ _____    ______ ____
ROOT
ATOM      1  C   UNL     1      35.860 -18.401 -21.567  0.00  0.00    +0.133 C 
ENDROOT
BRANCH   1   2
ATOM      2  O   UNL     1      37.246 -18.753 -21.535  0.00  0.00    -0.383 OA
ATOM      3  H   UNL     1      37.638 -18.603 -22.409  0.00  0.00    +0.210 HD
ENDBRANCH   1   2
BRANCH   1   4
ATOM      4  C   UNL     1      35.539 -17.853 -22.960  0.00  0.00    -0.043 C 
BRANCH   4   5
ATOM      5  N   UNL     1      34.633 -16.705 -22.904  0.00  0.00    +0.391 N 
ATOM      6  N   UNL     1      33.929 -13.937 -22.877  0.00  0.00    -0.298 N 
ATOM      7  C   UNL     1      34.748 -15.898 -24.124  0.00  0.00    -0.055 C 
ATOM      8  C   UNL     1      34.924 -15.877 -21.727  0.00  0.00    -0.055 C 
ATOM      9  C   UNL     1      33.765 -14.725 -24.102  0.00  0.00    +0.069 C 
ATOM     10  C   UNL     1      33.946 -14.704 -21.625  0.00  0.00    +0.069 C 
ATOM     11  H   UNL     1      33.679 -17.058 -22.831  0.00  0.00    -0.079 HD
ATOM     12  N   UNL     1      32.522 -12.253 -21.913  0.00  0.00    -0.229 NA
ATOM     13  C   UNL     1      33.468 -12.617 -22.832  0.00  0.00    +0.132 C 
ATOM     14  C   UNL     1      33.995 -11.694 -23.746  0.00  0.00    +0.034 C 
ATOM     15  C   UNL     1      33.545 -10.378 -23.715  0.00  0.00    +0.004 C 
ATOM     16  C   UNL     1      32.110 -10.965 -21.912  0.00  0.00    +0.100 C 
ATOM     17  C   UNL     1      32.586  -9.999 -22.784  0.00  0.00    +0.021 C 
ENDBRANCH   4   5
ENDBRANCH   1   4
BRANCH   1  18
ATOM     18  C   UNL     1      35.034 -19.633 -21.199  0.00  0.00    +0.232 C 
BRANCH  18  19
ATOM     19  O   UNL     1      35.836 -20.505 -20.407  0.00  0.00    -0.473 OA
BRANCH  19  23
ATOM     20  C   UNL     1      33.887 -22.636 -17.426  0.00  0.00    -0.022 C 
ATOM     21  C   UNL     1      35.266 -22.435 -17.352  0.00  0.00    -0.001 C 
ATOM     22  C   UNL     1      33.164 -22.122 -18.502  0.00  0.00    -0.001 C 
ATOM     23  C   UNL     1      35.194 -21.208 -19.424  0.00  0.00    +0.139 C 
ATOM     24  C   UNL     1      35.920 -21.718 -18.354  0.00  0.00    +0.037 C 
ATOM     25  C   UNL     1      33.820 -21.406 -19.505  0.00  0.00    +0.037 C 
BRANCH  20  26
ATOM     26  C   UNL     1      33.176 -23.416 -16.337  0.00  0.00    +0.022 C 
ATOM     27  C   UNL     1      33.906 -23.313 -14.986  0.00  0.00    +0.004 C 
ATOM     28  C   UNL     1      31.703 -22.994 -16.199  0.00  0.00    +0.004 C 
ATOM     29  C   UNL     1      33.186 -24.110 -13.899  0.00  0.00    +0.000 C 
ATOM     30  C   UNL     1      30.992 -23.791 -15.107  0.00  0.00    +0.000 C 
ATOM     31  C   UNL     1      31.723 -23.694 -13.772  0.00  0.00    +0.000 C 
ENDBRANCH  20  26
ENDBRANCH  19  23
ENDBRANCH  18  19
ENDBRANCH   1  18
TORSDOF 7
ENDMDL
MODEL 7
REMARK VINA RESULT:     -10.7      2.815     11.170
REMARK  Name = 446129
REMARK  7 active torsions:
REMARK  status: ('A' for Active; 'I' for Inactive)
REMARK    1  A    between atoms: C_1  and  O_2
REMARK    2  A    between atoms: C_1  and  C_4
REMARK    3  A    between atoms: C_1  and  C_18
REMARK    4  A    between atoms: C_4  and  N_5
REMARK    5  A    between atoms: C_18  and  O_19
REMARK    6  A    between atoms: O_19  and  C_23
REMARK    7  A    between atoms: C_20  and  C_26
REMARK                            x       y       z     vdW  Elec       q    Type
REMARK                         _______ _______ _______ _____ _____    ______ ____
ROOT
ATOM      1  C   UNL     1      34.823 -15.715 -23.083  0.00  0.00    +0.133 C 
ENDROOT
BRANCH   1   2
ATOM      2  O   UNL     1      35.865 -15.461 -24.029  0.00  0.00    -0.383 OA
ATOM      3  H   UNL     1      36.598 -16.078 -23.877  0.00  0.00    +0.210 HD
ENDBRANCH   1   2
BRANCH   1   4
ATOM      4  C   UNL     1      33.599 -14.891 -23.489  0.00  0.00    -0.043 C 
BRANCH   4   5
ATOM      5  N   UNL     1      33.720 -13.490 -23.087  0.00  0.00    +0.391 N 
ATOM      6  N   UNL     1      32.972 -10.736 -22.971  0.00  0.00    -0.298 N 
ATOM      7  C   UNL     1      32.545 -13.071 -22.314  0.00  0.00    -0.055 C 
ATOM      8  C   UNL     1      33.876 -12.628 -24.266  0.00  0.00    -0.055 C 
ATOM      9  C   UNL     1      32.686 -11.623 -21.840  0.00  0.00    +0.069 C 
ATOM     10  C   UNL     1      34.062 -11.165 -23.856  0.00  0.00    +0.069 C 
ATOM     11  H   UNL     1      34.551 -13.399 -22.501  0.00  0.00    -0.079 HD
ATOM     12  N   UNL     1      33.737  -8.464 -23.009  0.00  0.00    -0.229 NA
ATOM     13  C   UNL     1      32.717  -9.364 -22.861  0.00  0.00    +0.132 C 
ATOM     14  C   UNL     1      31.404  -8.948 -22.596  0.00  0.00    +0.034 C 
ATOM     15  C   UNL     1      31.135  -7.588 -22.482  0.00  0.00    +0.004 C 
ATOM     16  C   UNL     1      33.437  -7.151 -22.892  0.00  0.00    +0.100 C 
ATOM     17  C   UNL     1      32.165  -6.667 -22.632  0.00  0.00    +0.021 C 
ENDBRANCH   4   5
ENDBRANCH   1   4
BRANCH   1  18
ATOM     18  C   UNL     1      34.553 -17.218 -23.043  0.00  0.00    +0.232 C 
BRANCH  18  19
ATOM     19  O   UNL     1      35.727 -17.885 -22.588  0.00  0.00    -0.473 OA
BRANCH  19  23
ATOM     20  C   UNL     1      35.190 -20.898 -19.784  0.00  0.00    -0.022 C 
ATOM     21  C   UNL     1      36.449 -20.323 -19.957  0.00  0.00    -0.001 C 
ATOM     22  C   UNL     1      34.112 -20.461 -20.554  0.00  0.00    -0.001 C 
ATOM     23  C   UNL     1      35.550 -18.879 -21.664  0.00  0.00    +0.139 C 
ATOM     24  C   UNL     1      36.629 -19.310 -20.899  0.00  0.00    +0.037 C 
ATOM     25  C   UNL     1      34.293 -19.449 -21.497  0.00  0.00    +0.037 C 
BRANCH  20  26
ATOM     26  C   UNL     1      34.994 -22.000 -18.760  0.00  0.00    +0.022 C 
ATOM     27  C   UNL     1      35.881 -21.796 -17.520  0.00  0.00    +0.004 C 
ATOM     28  C   UNL     1      33.517 -22.154 -18.361  0.00  0.00    +0.004 C 
ATOM     29  C   UNL     1      35.683 -22.916 -16.500  0.00  0.00    +0.000 C 
ATOM     30  C   UNL     1      33.328 -23.273 -17.337  0.00  0.00    +0.000 C 
ATOM     31  C   UNL     1      34.215 -23.071 -16.113  0.00  0.00    +0.000 C 
ENDBRANCH  20  26
ENDBRANCH  19  23
ENDBRANCH  18  19
ENDBRANCH   1  18
TORSDOF 7
ENDMDL
MODEL 8
REMARK VINA RESULT:     -10.6      6.576     10.214
REMARK  Name = 446129
REMARK  7 active torsions:
REMARK  status: ('A' for Active; 'I' for Inactive)
REMARK    1  A    between atoms: C_1  and  O_2
REMARK    2  A    between atoms: C_1  and  C_4
REMARK    3  A    between atoms: C_1  and  C_18
REMARK    4  A    between atoms: C_4  and  N_5
REMARK    5  A    between atoms: C_18  and  O_19
REMARK    6  A    between atoms: O_19  and  C_23
REMARK    7  A    between atoms: C_20  and  C_26
REMARK                            x       y       z     vdW  Elec       q    Type
REMARK                         _______ _______ _______ _____ _____    ______ ____
ROOT
ATOM      1  C   UNL     1      32.307 -22.576 -16.577  0.00  0.00    +0.133 C 
ENDROOT
BRANCH   1   2
ATOM      2  O   UNL     1      30.892 -22.767 -16.647  0.00  0.00    -0.383 OA
ATOM      3  H   UNL     1      30.678 -23.324 -17.412  0.00  0.00    +0.210 HD
ENDBRANCH   1   2
BRANCH   1   4
ATOM      4  C   UNL     1      32.815 -23.238 -15.294  0.00  0.00    -0.043 C 
BRANCH   4   5
ATOM      5  N   UNL     1      34.173 -23.760 -15.445  0.00  0.00    +0.391 N 
ATOM      6  N   UNL     1      36.768 -24.570 -14.567  0.00  0.00    -0.298 N 
ATOM      7  C   UNL     1      34.342 -24.991 -14.665  0.00  0.00    -0.055 C 
ATOM      8  C   UNL     1      35.159 -22.759 -15.018  0.00  0.00    -0.055 C 
ATOM      9  C   UNL     1      35.743 -25.578 -14.859  0.00  0.00    +0.069 C 
ATOM     10  C   UNL     1      36.587 -23.270 -15.224  0.00  0.00    +0.069 C 
ATOM     11  H   UNL     1      34.325 -23.971 -16.431  0.00  0.00    -0.079 HD
ATOM     12  N   UNL     1      39.118 -24.564 -15.038  0.00  0.00    -0.229 NA
ATOM     13  C   UNL     1      38.072 -24.975 -14.258  0.00  0.00    +0.132 C 
ATOM     14  C   UNL     1      38.268 -25.802 -13.143  0.00  0.00    +0.034 C 
ATOM     15  C   UNL     1      39.558 -26.213 -12.825  0.00  0.00    +0.004 C 
ATOM     16  C   UNL     1      40.357 -24.984 -14.697  0.00  0.00    +0.100 C 
ATOM     17  C   UNL     1      40.627 -25.800 -13.611  0.00  0.00    +0.021 C 
ENDBRANCH   4   5
ENDBRANCH   1   4
BRANCH   1  18
ATOM     18  C   UNL     1      32.941 -23.147 -17.844  0.00  0.00    +0.232 C 
BRANCH  18  19
ATOM     19  O   UNL     1      34.259 -22.624 -17.975  0.00  0.00    -0.473 OA
BRANCH  19  23
ATOM     20  C   UNL     1      34.877 -19.859 -21.008  0.00  0.00    -0.022 C 
ATOM     21  C   UNL     1      33.579 -20.195 -20.625  0.00  0.00    -0.001 C 
ATOM     22  C   UNL     1      35.967 -20.452 -20.372  0.00  0.00    -0.001 C 
ATOM     23  C   UNL     1      34.463 -21.712 -18.976  0.00  0.00    +0.139 C 
ATOM     24  C   UNL     1      33.371 -21.124 -19.606  0.00  0.00    +0.037 C 
ATOM     25  C   UNL     1      35.759 -21.382 -19.354  0.00  0.00    +0.037 C 
BRANCH  20  26
ATOM     26  C   UNL     1      35.102 -18.849 -22.118  0.00  0.00    +0.022 C 
ATOM     27  C   UNL     1      34.116 -19.046 -23.283  0.00  0.00    +0.004 C 
ATOM     28  C   UNL     1      35.053 -17.403 -21.595  0.00  0.00    +0.004 C 
ATOM     29  C   UNL     1      34.358 -18.030 -24.398  0.00  0.00    +0.000 C 
ATOM     30  C   UNL     1      35.291 -16.393 -22.717  0.00  0.00    +0.000 C 
ATOM     31  C   UNL     1      34.317 -16.598 -23.873  0.00  0.00    +0.000 C 
ENDBRANCH  20  26
ENDBRANCH  19  23
ENDBRANCH  18  19
ENDBRANCH   1  18
TORSDOF 7
ENDMDL
MODEL 9
REMARK VINA RESULT:     -10.5      4.654      8.205
REMARK  Name = 446129
REMARK  7 active torsions:
REMARK  status: ('A' for Active; 'I' for Inactive)
REMARK    1  A    between atoms: C_1  and  O_2
REMARK    2  A    between atoms: C_1  and  C_4
REMARK    3  A    between atoms: C_1  and  C_18
REMARK    4  A    between atoms: C_4  and  N_5
REMARK    5  A    between atoms: C_18  and  O_19
REMARK    6  A    between atoms: O_19  and  C_23
REMARK    7  A    between atoms: C_20  and  C_26
REMARK                            x       y       z     vdW  Elec       q    Type
REMARK                         _______ _______ _______ _____ _____    ______ ____
ROOT
ATOM      1  C   UNL     1      33.705 -21.255 -19.159  0.00  0.00    +0.133 C 
ENDROOT
BRANCH   1   2
ATOM      2  O   UNL     1      32.405 -20.930 -19.658  0.00  0.00    -0.383 OA
ATOM      3  H   UNL     1      32.472 -20.186 -20.277  0.00  0.00    +0.210 HD
ENDBRANCH   1   2
BRANCH   1   4
ATOM      4  C   UNL     1      33.615 -22.599 -18.433  0.00  0.00    -0.043 C 
BRANCH   4   5
ATOM      5  N   UNL     1      34.153 -22.528 -17.074  0.00  0.00    +0.391 N 
ATOM      6  N   UNL     1      35.627 -23.435 -14.802  0.00  0.00    -0.298 N 
ATOM      7  C   UNL     1      35.621 -22.547 -17.099  0.00  0.00    -0.055 C 
ATOM      8  C   UNL     1      33.653 -23.645 -16.263  0.00  0.00    -0.055 C 
ATOM      9  C   UNL     1      36.197 -22.415 -15.688  0.00  0.00    +0.069 C 
ATOM     10  C   UNL     1      34.163 -23.550 -14.823  0.00  0.00    +0.069 C 
ATOM     11  H   UNL     1      33.842 -21.651 -16.655  0.00  0.00    -0.079 HD
ATOM     12  N   UNL     1      35.680 -23.623 -12.413  0.00  0.00    -0.229 NA
ATOM     13  C   UNL     1      36.296 -23.785 -13.624  0.00  0.00    +0.132 C 
ATOM     14  C   UNL     1      37.598 -24.298 -13.722  0.00  0.00    +0.034 C 
ATOM     15  C   UNL     1      38.276 -24.649 -12.560  0.00  0.00    +0.004 C 
ATOM     16  C   UNL     1      36.371 -23.976 -11.305  0.00  0.00    +0.100 C 
ATOM     17  C   UNL     1      37.658 -24.489 -11.325  0.00  0.00    +0.021 C 
ENDBRANCH   4   5
ENDBRANCH   1   4
BRANCH   1  18
ATOM     18  C   UNL     1      34.689 -21.266 -20.328  0.00  0.00    +0.232 C 
BRANCH  18  19
ATOM     19  O   UNL     1      35.557 -20.142 -20.210  0.00  0.00    -0.473 OA
BRANCH  19  23
ATOM     20  C   UNL     1      34.901 -16.993 -22.833  0.00  0.00    -0.022 C 
ATOM     21  C   UNL     1      35.265 -16.736 -21.511  0.00  0.00    -0.001 C 
ATOM     22  C   UNL     1      34.757 -18.309 -23.272  0.00  0.00    -0.001 C 
ATOM     23  C   UNL     1      35.340 -19.104 -21.074  0.00  0.00    +0.139 C 
ATOM     24  C   UNL     1      35.485 -17.794 -20.630  0.00  0.00    +0.037 C 
ATOM     25  C   UNL     1      34.976 -19.367 -22.390  0.00  0.00    +0.037 C 
BRANCH  20  26
ATOM     26  C   UNL     1      34.660 -15.842 -23.791  0.00  0.00    +0.022 C 
ATOM     27  C   UNL     1      33.712 -16.237 -24.937  0.00  0.00    +0.004 C 
ATOM     28  C   UNL     1      34.149 -14.588 -23.062  0.00  0.00    +0.004 C 
ATOM     29  C   UNL     1      33.484 -15.074 -25.901  0.00  0.00    +0.000 C 
ATOM     30  C   UNL     1      33.919 -13.431 -24.033  0.00  0.00    +0.000 C 
ATOM     31  C   UNL     1      32.986 -13.829 -25.172  0.00  0.00    +0.000 C 
ENDBRANCH  20  26
ENDBRANCH  19  23
ENDBRANCH  18  19
ENDBRANCH   1  18
TORSDOF 7
ENDMDL
