MODEL 1
REMARK VINA RESULT:     -11.4      0.000      0.000
REMARK  Name = 72696796
REMARK  9 active torsions:
REMARK  status: ('A' for Active; 'I' for Inactive)
REMARK    1  A    between atoms: N_2  and  C_29
REMARK    2  A    between atoms: C_10  and  C_12
REMARK    3  A    between atoms: C_13  and  C_16
REMARK    4  A    between atoms: N_15  and  C_18
REMARK    5  A    between atoms: C_18  and  C_20
REMARK    6  A    between atoms: C_29  and  O_30
REMARK    7  A    between atoms: O_30  and  P_31
REMARK    8  A    between atoms: P_31  and  O_33
REMARK    9  A    between atoms: P_31  and  O_35
REMARK                            x       y       z     vdW  Elec       q    Type
REMARK                         _______ _______ _______ _____ _____    ______ ____
ROOT
ATOM      1  O   UNL     1      31.707  -7.561 -19.859  0.00  0.00    -0.274 OA
ATOM      2  N   UNL     1      32.500  -8.955 -21.549  0.00  0.00    -0.217 N 
ATOM      3  N   UNL     1      33.368 -10.473 -23.202  0.00  0.00    -0.229 NA
ATOM      4  C   UNL     1      31.211 -11.092 -20.171  0.00  0.00    +0.039 C 
ATOM      5  C   UNL     1      32.064 -11.345 -21.374  0.00  0.00    +0.010 C 
ATOM      6  C   UNL     1      31.741  -9.897 -19.405  0.00  0.00    +0.090 C 
ATOM      7  C   UNL     1      32.663 -10.284 -22.056  0.00  0.00    +0.135 C 
ATOM      8  C   UNL     1      31.945  -8.690 -20.295  0.00  0.00    +0.233 C 
ATOM      9  C   UNL     1      32.204 -12.636 -21.893  0.00  0.00    +0.000 C 
ATOM     10  C   UNL     1      32.937 -12.843 -23.054  0.00  0.00    +0.019 C 
ATOM     11  C   UNL     1      33.493 -11.737 -23.665  0.00  0.00    +0.100 C 
ENDROOT
BRANCH  10  12
ATOM     12  C   UNL     1      33.123 -14.175 -23.597  0.00  0.00    +0.006 C 
ATOM     13  C   UNL     1      34.309 -14.824 -23.689  0.00  0.00    +0.058 C 
BRANCH  13  16
ATOM     14  O   UNL     1      34.126 -16.330 -25.499  0.00  0.00    -0.270 OA
ATOM     15  N   UNL     1      34.759 -17.224 -23.449  0.00  0.00    -0.267 N 
ATOM     16  C   UNL     1      34.377 -16.184 -24.301  0.00  0.00    +0.250 C 
ATOM     17  C   UNL     1      34.878 -18.576 -23.979  0.00  0.00    +0.116 C 
BRANCH  15  18
ATOM     18  C   UNL     1      35.095 -17.071 -22.035  0.00  0.00    +0.158 C 
BRANCH  18  20
ATOM     19  O   UNL     1      33.859 -18.887 -21.003  0.00  0.00    -0.456 OA
ATOM     20  C   UNL     1      35.085 -18.387 -21.310  0.00  0.00    +0.139 A 
ATOM     21  C   UNL     1      36.078 -19.230 -20.872  0.00  0.00    +0.013 A 
ATOM     22  C   UNL     1      35.427 -20.328 -20.251  0.00  0.00    +0.033 A 
ATOM     23  C   UNL     1      34.065 -20.069 -20.357  0.00  0.00    +0.145 A 
ATOM     24  C   UNL     1      37.533 -19.030 -21.021  0.00  0.00    +0.034 C 
ATOM     25  C   UNL     1      35.838 -21.510 -19.611  0.00  0.00    +0.003 C 
ATOM     26  C   UNL     1      33.069 -20.911 -19.867  0.00  0.00    +0.037 C 
ATOM     27  C   UNL     1      34.859 -22.378 -19.108  0.00  0.00    +0.000 C 
ATOM     28  C   UNL     1      33.500 -22.081 -19.234  0.00  0.00    +0.003 C 
ENDBRANCH  18  20
ENDBRANCH  15  18
ENDBRANCH  13  16
ENDBRANCH  10  12
BRANCH   2  29
ATOM     29  C   UNL     1      32.935  -7.857 -22.406  0.00  0.00    +0.257 C 
BRANCH  29  30
ATOM     30  O   UNL     1      31.796  -7.154 -22.864  0.00  0.00    -0.251 OA
BRANCH  30  31
ATOM     31  P   UNL     1      31.842  -5.536 -22.876  0.00  0.00    +0.475 P 
ATOM     32  O   UNL     1      32.663  -4.921 -23.972  0.00  0.00    -0.227 OA
BRANCH  31  33
ATOM     33  O   UNL     1      32.319  -5.167 -21.376  0.00  0.00    -0.303 OA
ATOM     34  H   UNL     1      33.288  -5.192 -21.329  0.00  0.00    +0.222 HD
ENDBRANCH  31  33
BRANCH  31  35
ATOM     35  O   UNL     1      30.281  -5.109 -22.878  0.00  0.00    -0.303 OA
ATOM     36  H   UNL     1      30.147  -4.371 -22.264  0.00  0.00    +0.222 HD
ENDBRANCH  31  35
ENDBRANCH  30  31
ENDBRANCH  29  30
ENDBRANCH   2  29
TORSDOF 9
ENDMDL
MODEL 2
REMARK VINA RESULT:     -11.0      1.170      2.214
REMARK  Name = 72696796
REMARK  9 active torsions:
REMARK  status: ('A' for Active; 'I' for Inactive)
REMARK    1  A    between atoms: N_2  and  C_29
REMARK    2  A    between atoms: C_10  and  C_12
REMARK    3  A    between atoms: C_13  and  C_16
REMARK    4  A    between atoms: N_15  and  C_18
REMARK    5  A    between atoms: C_18  and  C_20
REMARK    6  A    between atoms: C_29  and  O_30
REMARK    7  A    between atoms: O_30  and  P_31
REMARK    8  A    between atoms: P_31  and  O_33
REMARK    9  A    between atoms: P_31  and  O_35
REMARK                            x       y       z     vdW  Elec       q    Type
REMARK                         _______ _______ _______ _____ _____    ______ ____
ROOT
ATOM      1  O   UNL     1      34.343  -6.613 -22.717  0.00  0.00    -0.274 OA
ATOM      2  N   UNL     1      33.340  -8.702 -22.476  0.00  0.00    -0.217 N 
ATOM      3  N   UNL     1      32.301 -10.869 -22.358  0.00  0.00    -0.229 NA
ATOM      4  C   UNL     1      35.341  -9.688 -24.251  0.00  0.00    +0.039 C 
ATOM      5  C   UNL     1      34.226 -10.563 -23.773  0.00  0.00    +0.010 C 
ATOM      6  C   UNL     1      34.862  -8.255 -24.360  0.00  0.00    +0.090 C 
ATOM      7  C   UNL     1      33.271 -10.073 -22.879  0.00  0.00    +0.135 C 
ATOM      8  C   UNL     1      34.189  -7.778 -23.089  0.00  0.00    +0.233 C 
ATOM      9  C   UNL     1      34.169 -11.912 -24.137  0.00  0.00    +0.000 C 
ATOM     10  C   UNL     1      33.171 -12.729 -23.625  0.00  0.00    +0.019 C 
ATOM     11  C   UNL     1      32.269 -12.164 -22.745  0.00  0.00    +0.100 C 
ENDROOT
BRANCH  10  12
ATOM     12  C   UNL     1      33.069 -14.125 -24.010  0.00  0.00    +0.006 C 
ATOM     13  C   UNL     1      34.095 -15.008 -24.029  0.00  0.00    +0.058 C 
BRANCH  13  16
ATOM     14  O   UNL     1      33.309 -16.630 -25.554  0.00  0.00    -0.270 OA
ATOM     15  N   UNL     1      34.351 -17.415 -23.630  0.00  0.00    -0.267 N 
ATOM     16  C   UNL     1      33.870 -16.414 -24.478  0.00  0.00    +0.250 C 
ATOM     17  C   UNL     1      34.197 -18.813 -24.014  0.00  0.00    +0.116 C 
BRANCH  15  18
ATOM     18  C   UNL     1      35.050 -17.183 -22.367  0.00  0.00    +0.158 C 
BRANCH  18  20
ATOM     19  O   UNL     1      33.894 -18.962 -21.189  0.00  0.00    -0.456 OA
ATOM     20  C   UNL     1      35.097 -18.420 -21.517  0.00  0.00    +0.139 A 
ATOM     21  C   UNL     1      36.125 -19.155 -20.975  0.00  0.00    +0.013 A 
ATOM     22  C   UNL     1      35.522 -20.225 -20.263  0.00  0.00    +0.033 A 
ATOM     23  C   UNL     1      34.151 -20.060 -20.424  0.00  0.00    +0.145 A 
ATOM     24  C   UNL     1      37.569 -18.882 -21.111  0.00  0.00    +0.034 C 
ATOM     25  C   UNL     1      35.984 -21.311 -19.500  0.00  0.00    +0.003 C 
ATOM     26  C   UNL     1      33.192 -20.910 -19.876  0.00  0.00    +0.037 C 
ATOM     27  C   UNL     1      35.043 -22.184 -18.935  0.00  0.00    +0.000 C 
ATOM     28  C   UNL     1      33.673 -21.984 -19.120  0.00  0.00    +0.003 C 
ENDBRANCH  18  20
ENDBRANCH  15  18
ENDBRANCH  13  16
ENDBRANCH  10  12
BRANCH   2  29
ATOM     29  C   UNL     1      32.480  -8.287 -21.372  0.00  0.00    +0.257 C 
BRANCH  29  30
ATOM     30  O   UNL     1      31.339  -7.638 -21.900  0.00  0.00    -0.251 OA
BRANCH  30  31
ATOM     31  P   UNL     1      31.194  -6.040 -21.688  0.00  0.00    +0.475 P 
ATOM     32  O   UNL     1      29.826  -5.561 -21.298  0.00  0.00    -0.227 OA
BRANCH  31  33
ATOM     33  O   UNL     1      31.763  -5.429 -23.073  0.00  0.00    -0.303 OA
ATOM     34  H   UNL     1      32.562  -5.913 -23.336  0.00  0.00    +0.222 HD
ENDBRANCH  31  33
BRANCH  31  35
ATOM     35  O   UNL     1      32.363  -5.688 -20.626  0.00  0.00    -0.303 OA
ATOM     36  H   UNL     1      31.998  -5.142 -19.913  0.00  0.00    +0.222 HD
ENDBRANCH  31  35
ENDBRANCH  30  31
ENDBRANCH  29  30
ENDBRANCH   2  29
TORSDOF 9
ENDMDL
MODEL 3
REMARK VINA RESULT:     -10.9      5.478     11.949
REMARK  Name = 72696796
REMARK  9 active torsions:
REMARK  status: ('A' for Active; 'I' for Inactive)
REMARK    1  A    between atoms: N_2  and  C_29
REMARK    2  A    between atoms: C_10  and  C_12
REMARK    3  A    between atoms: C_13  and  C_16
REMARK    4  A    between atoms: N_15  and  C_18
REMARK    5  A    between atoms: C_18  and  C_20
REMARK    6  A    between atoms: C_29  and  O_30
REMARK    7  A    between atoms: O_30  and  P_31
REMARK    8  A    between atoms: P_31  and  O_33
REMARK    9  A    between atoms: P_31  and  O_35
REMARK                            x       y       z     vdW  Elec       q    Type
REMARK                         _______ _______ _______ _____ _____    ______ ____
ROOT
ATOM      1  O   UNL     1      34.576 -23.577 -14.960  0.00  0.00    -0.274 OA
ATOM      2  N   UNL     1      35.333 -22.322 -16.772  0.00  0.00    -0.217 N 
ATOM      3  N   UNL     1      36.059 -21.115 -18.722  0.00  0.00    -0.229 NA
ATOM      4  C   UNL     1      32.653 -22.401 -17.740  0.00  0.00    +0.039 C 
ATOM      5  C   UNL     1      33.755 -21.796 -18.551  0.00  0.00    +0.010 C 
ATOM      6  C   UNL     1      33.195 -23.538 -16.899  0.00  0.00    +0.090 C 
ATOM      7  C   UNL     1      35.057 -21.738 -18.049  0.00  0.00    +0.135 C 
ATOM      8  C   UNL     1      34.412 -23.127 -16.096  0.00  0.00    +0.233 C 
ATOM      9  C   UNL     1      33.488 -21.196 -19.785  0.00  0.00    +0.000 C 
ATOM     10  C   UNL     1      34.509 -20.572 -20.490  0.00  0.00    +0.019 C 
ATOM     11  C   UNL     1      35.766 -20.558 -19.918  0.00  0.00    +0.100 C 
ENDROOT
BRANCH  10  12
ATOM     12  C   UNL     1      34.267 -19.968 -21.787  0.00  0.00    +0.006 C 
ATOM     13  C   UNL     1      34.785 -18.791 -22.211  0.00  0.00    +0.058 C 
BRANCH  13  16
ATOM     14  O   UNL     1      33.828 -18.969 -24.362  0.00  0.00    -0.270 OA
ATOM     15  N   UNL     1      34.807 -16.934 -23.814  0.00  0.00    -0.267 N 
ATOM     16  C   UNL     1      34.434 -18.256 -23.560  0.00  0.00    +0.250 C 
ATOM     17  C   UNL     1      34.473 -16.330 -25.098  0.00  0.00    +0.116 C 
BRANCH  15  18
ATOM     18  C   UNL     1      35.495 -16.058 -22.867  0.00  0.00    +0.158 C 
BRANCH  18  20
ATOM     19  O   UNL     1      34.127 -14.059 -23.020  0.00  0.00    -0.456 OA
ATOM     20  C   UNL     1      34.556 -15.076 -22.227  0.00  0.00    +0.139 A 
ATOM     21  C   UNL     1      34.012 -14.974 -20.968  0.00  0.00    +0.013 A 
ATOM     22  C   UNL     1      33.191 -13.816 -20.979  0.00  0.00    +0.033 A 
ATOM     23  C   UNL     1      33.297 -13.290 -22.262  0.00  0.00    +0.145 A 
ATOM     24  C   UNL     1      34.240 -15.889 -19.833  0.00  0.00    +0.034 C 
ATOM     25  C   UNL     1      32.372 -13.155 -20.047  0.00  0.00    +0.003 C 
ATOM     26  C   UNL     1      32.637 -12.140 -22.692  0.00  0.00    +0.037 C 
ATOM     27  C   UNL     1      31.696 -11.995 -20.450  0.00  0.00    +0.000 C 
ATOM     28  C   UNL     1      31.828 -11.498 -21.749  0.00  0.00    +0.003 C 
ENDBRANCH  18  20
ENDBRANCH  15  18
ENDBRANCH  13  16
ENDBRANCH  10  12
BRANCH   2  29
ATOM     29  C   UNL     1      36.635 -22.041 -16.176  0.00  0.00    +0.257 C 
BRANCH  29  30
ATOM     30  O   UNL     1      37.439 -23.202 -16.264  0.00  0.00    -0.251 OA
BRANCH  30  31
ATOM     31  P   UNL     1      37.860 -23.953 -14.894  0.00  0.00    +0.475 P 
ATOM     32  O   UNL     1      37.584 -23.193 -13.629  0.00  0.00    -0.227 OA
BRANCH  31  33
ATOM     33  O   UNL     1      39.412 -24.331 -15.139  0.00  0.00    -0.303 OA
ATOM     34  H   UNL     1      39.951 -23.973 -14.417  0.00  0.00    +0.222 HD
ENDBRANCH  31  33
BRANCH  31  35
ATOM     35  O   UNL     1      37.114 -25.385 -14.998  0.00  0.00    -0.303 OA
ATOM     36  H   UNL     1      37.605 -25.962 -15.605  0.00  0.00    +0.222 HD
ENDBRANCH  31  35
ENDBRANCH  30  31
ENDBRANCH  29  30
ENDBRANCH   2  29
TORSDOF 9
ENDMDL
MODEL 4
REMARK VINA RESULT:     -10.9      5.132     11.954
REMARK  Name = 72696796
REMARK  9 active torsions:
REMARK  status: ('A' for Active; 'I' for Inactive)
REMARK    1  A    between atoms: N_2  and  C_29
REMARK    2  A    between atoms: C_10  and  C_12
REMARK    3  A    between atoms: C_13  and  C_16
REMARK    4  A    between atoms: N_15  and  C_18
REMARK    5  A    between atoms: C_18  and  C_20
REMARK    6  A    between atoms: C_29  and  O_30
REMARK    7  A    between atoms: O_30  and  P_31
REMARK    8  A    between atoms: P_31  and  O_33
REMARK    9  A    between atoms: P_31  and  O_35
REMARK                            x       y       z     vdW  Elec       q    Type
REMARK                         _______ _______ _______ _____ _____    ______ ____
ROOT
ATOM      1  O   UNL     1      35.646 -23.619 -15.622  0.00  0.00    -0.274 OA
ATOM      2  N   UNL     1      34.338 -22.713 -17.323  0.00  0.00    -0.217 N 
ATOM      3  N   UNL     1      33.043 -21.662 -19.058  0.00  0.00    -0.229 NA
ATOM      4  C   UNL     1      36.757 -21.669 -18.410  0.00  0.00    +0.039 C 
ATOM      5  C   UNL     1      35.428 -21.332 -19.007  0.00  0.00    +0.010 C 
ATOM      6  C   UNL     1      36.615 -21.871 -16.915  0.00  0.00    +0.090 C 
ATOM      7  C   UNL     1      34.254 -21.877 -18.482  0.00  0.00    +0.135 C 
ATOM      8  C   UNL     1      35.508 -22.845 -16.571  0.00  0.00    +0.233 C 
ATOM      9  C   UNL     1      35.340 -20.541 -20.157  0.00  0.00    +0.000 C 
ATOM     10  C   UNL     1      34.105 -20.301 -20.743  0.00  0.00    +0.019 C 
ATOM     11  C   UNL     1      32.996 -20.881 -20.160  0.00  0.00    +0.100 C 
ENDROOT
BRANCH  10  12
ATOM     12  C   UNL     1      33.981 -19.459 -21.918  0.00  0.00    +0.006 C 
ATOM     13  C   UNL     1      34.742 -18.371 -22.186  0.00  0.00    +0.058 C 
BRANCH  13  16
ATOM     14  O   UNL     1      34.348 -18.131 -24.501  0.00  0.00    -0.270 OA
ATOM     15  N   UNL     1      34.420 -16.179 -23.240  0.00  0.00    -0.267 N 
ATOM     16  C   UNL     1      34.495 -17.564 -23.416  0.00  0.00    +0.250 C 
ATOM     17  C   UNL     1      34.151 -15.325 -24.390  0.00  0.00    +0.116 C 
BRANCH  15  18
ATOM     18  C   UNL     1      34.556 -15.486 -21.960  0.00  0.00    +0.158 C 
BRANCH  18  20
ATOM     19  O   UNL     1      34.322 -13.286 -22.958  0.00  0.00    -0.456 OA
ATOM     20  C   UNL     1      33.902 -14.134 -21.982  0.00  0.00    +0.139 A 
ATOM     21  C   UNL     1      32.935 -13.541 -21.204  0.00  0.00    +0.013 A 
ATOM     22  C   UNL     1      32.741 -12.238 -21.731  0.00  0.00    +0.033 A 
ATOM     23  C   UNL     1      33.617 -12.130 -22.806  0.00  0.00    +0.145 A 
ATOM     24  C   UNL     1      32.239 -14.145 -20.052  0.00  0.00    +0.034 C 
ATOM     25  C   UNL     1      31.924 -11.138 -21.418  0.00  0.00    +0.003 C 
ATOM     26  C   UNL     1      33.739 -10.993 -23.603  0.00  0.00    +0.037 C 
ATOM     27  C   UNL     1      32.024  -9.980 -22.202  0.00  0.00    +0.000 C 
ATOM     28  C   UNL     1      32.917  -9.912 -23.274  0.00  0.00    +0.003 C 
ENDBRANCH  18  20
ENDBRANCH  15  18
ENDBRANCH  13  16
ENDBRANCH  10  12
BRANCH   2  29
ATOM     29  C   UNL     1      33.136 -23.449 -16.944  0.00  0.00    +0.257 C 
BRANCH  29  30
ATOM     30  O   UNL     1      32.445 -22.715 -15.950  0.00  0.00    -0.251 OA
BRANCH  30  31
ATOM     31  P   UNL     1      31.984 -23.488 -14.604  0.00  0.00    +0.475 P 
ATOM     32  O   UNL     1      30.677 -24.220 -14.694  0.00  0.00    -0.227 OA
BRANCH  31  33
ATOM     33  O   UNL     1      32.045 -22.332 -13.475  0.00  0.00    -0.303 OA
ATOM     34  H   UNL     1      32.353 -21.504 -13.875  0.00  0.00    +0.222 HD
ENDBRANCH  31  33
BRANCH  31  35
ATOM     35  O   UNL     1      33.257 -24.419 -14.243  0.00  0.00    -0.303 OA
ATOM     36  H   UNL     1      32.956 -25.211 -13.772  0.00  0.00    +0.222 HD
ENDBRANCH  31  35
ENDBRANCH  30  31
ENDBRANCH  29  30
ENDBRANCH   2  29
TORSDOF 9
ENDMDL
MODEL 5
REMARK VINA RESULT:     -10.9      5.658     11.992
REMARK  Name = 72696796
REMARK  9 active torsions:
REMARK  status: ('A' for Active; 'I' for Inactive)
REMARK    1  A    between atoms: N_2  and  C_29
REMARK    2  A    between atoms: C_10  and  C_12
REMARK    3  A    between atoms: C_13  and  C_16
REMARK    4  A    between atoms: N_15  and  C_18
REMARK    5  A    between atoms: C_18  and  C_20
REMARK    6  A    between atoms: C_29  and  O_30
REMARK    7  A    between atoms: O_30  and  P_31
REMARK    8  A    between atoms: P_31  and  O_33
REMARK    9  A    between atoms: P_31  and  O_35
REMARK                            x       y       z     vdW  Elec       q    Type
REMARK                         _______ _______ _______ _____ _____    ______ ____
ROOT
ATOM      1  O   UNL     1      34.660 -23.529 -14.952  0.00  0.00    -0.274 OA
ATOM      2  N   UNL     1      35.505 -22.295 -16.739  0.00  0.00    -0.217 N 
ATOM      3  N   UNL     1      36.326 -21.111 -18.666  0.00  0.00    -0.229 NA
ATOM      4  C   UNL     1      32.881 -22.406 -17.846  0.00  0.00    +0.039 C 
ATOM      5  C   UNL     1      34.021 -21.805 -18.607  0.00  0.00    +0.010 C 
ATOM      6  C   UNL     1      33.385 -23.527 -16.961  0.00  0.00    +0.090 C 
ATOM      7  C   UNL     1      35.294 -21.731 -18.037  0.00  0.00    +0.135 C 
ATOM      8  C   UNL     1      34.555 -23.097 -16.101  0.00  0.00    +0.233 C 
ATOM      9  C   UNL     1      33.816 -21.224 -19.862  0.00  0.00    +0.000 C 
ATOM     10  C   UNL     1      34.869 -20.604 -20.521  0.00  0.00    +0.019 C 
ATOM     11  C   UNL     1      36.094 -20.574 -19.884  0.00  0.00    +0.100 C 
ENDROOT
BRANCH  10  12
ATOM     12  C   UNL     1      34.693 -20.020 -21.837  0.00  0.00    +0.006 C 
ATOM     13  C   UNL     1      34.569 -18.697 -22.097  0.00  0.00    +0.058 C 
BRANCH  13  16
ATOM     14  O   UNL     1      33.844 -18.971 -24.327  0.00  0.00    -0.270 OA
ATOM     15  N   UNL     1      34.748 -16.905 -23.763  0.00  0.00    -0.267 N 
ATOM     16  C   UNL     1      34.358 -18.221 -23.495  0.00  0.00    +0.250 C 
ATOM     17  C   UNL     1      34.546 -16.357 -25.099  0.00  0.00    +0.116 C 
BRANCH  15  18
ATOM     18  C   UNL     1      35.327 -15.985 -22.786  0.00  0.00    +0.158 C 
BRANCH  18  20
ATOM     19  O   UNL     1      33.864 -14.928 -21.164  0.00  0.00    -0.456 OA
ATOM     20  C   UNL     1      34.375 -14.882 -22.422  0.00  0.00    +0.139 A 
ATOM     21  C   UNL     1      33.887 -13.793 -23.106  0.00  0.00    +0.013 A 
ATOM     22  C   UNL     1      33.014 -13.117 -22.213  0.00  0.00    +0.033 A 
ATOM     23  C   UNL     1      33.034 -13.855 -21.034  0.00  0.00    +0.145 A 
ATOM     24  C   UNL     1      34.210 -13.407 -24.493  0.00  0.00    +0.034 C 
ATOM     25  C   UNL     1      32.210 -11.966 -22.271  0.00  0.00    +0.003 C 
ATOM     26  C   UNL     1      32.304 -13.526 -19.894  0.00  0.00    +0.037 C 
ATOM     27  C   UNL     1      31.463 -11.609 -21.140  0.00  0.00    +0.000 C 
ATOM     28  C   UNL     1      31.511 -12.378 -19.974  0.00  0.00    +0.003 C 
ENDBRANCH  18  20
ENDBRANCH  15  18
ENDBRANCH  13  16
ENDBRANCH  10  12
BRANCH   2  29
ATOM     29  C   UNL     1      36.772 -21.996 -16.080  0.00  0.00    +0.257 C 
BRANCH  29  30
ATOM     30  O   UNL     1      37.642 -23.102 -16.236  0.00  0.00    -0.251 OA
BRANCH  30  31
ATOM     31  P   UNL     1      38.030 -23.968 -14.925  0.00  0.00    +0.475 P 
ATOM     32  O   UNL     1      39.487 -24.292 -14.771  0.00  0.00    -0.227 OA
BRANCH  31  33
ATOM     33  O   UNL     1      37.051 -25.251 -15.025  0.00  0.00    -0.303 OA
ATOM     34  H   UNL     1      37.226 -25.850 -14.282  0.00  0.00    +0.222 HD
ENDBRANCH  31  33
BRANCH  31  35
ATOM     35  O   UNL     1      37.393 -23.118 -13.704  0.00  0.00    -0.303 OA
ATOM     36  H   UNL     1      37.008 -22.297 -14.047  0.00  0.00    +0.222 HD
ENDBRANCH  31  35
ENDBRANCH  30  31
ENDBRANCH  29  30
ENDBRANCH   2  29
TORSDOF 9
ENDMDL
MODEL 6
REMARK VINA RESULT:     -10.6      5.967     12.722
REMARK  Name = 72696796
REMARK  9 active torsions:
REMARK  status: ('A' for Active; 'I' for Inactive)
REMARK    1  A    between atoms: N_2  and  C_29
REMARK    2  A    between atoms: C_10  and  C_12
REMARK    3  A    between atoms: C_13  and  C_16
REMARK    4  A    between atoms: N_15  and  C_18
REMARK    5  A    between atoms: C_18  and  C_20
REMARK    6  A    between atoms: C_29  and  O_30
REMARK    7  A    between atoms: O_30  and  P_31
REMARK    8  A    between atoms: P_31  and  O_33
REMARK    9  A    between atoms: P_31  and  O_35
REMARK                            x       y       z     vdW  Elec       q    Type
REMARK                         _______ _______ _______ _____ _____    ______ ____
ROOT
ATOM      1  O   UNL     1      33.723 -24.180 -14.383  0.00  0.00    -0.274 OA
ATOM      2  N   UNL     1      34.916 -23.097 -16.066  0.00  0.00    -0.217 N 
ATOM      3  N   UNL     1      36.080 -22.047 -17.891  0.00  0.00    -0.229 NA
ATOM      4  C   UNL     1      32.392 -22.493 -17.245  0.00  0.00    +0.039 C 
ATOM      5  C   UNL     1      33.674 -22.152 -17.936  0.00  0.00    +0.010 C 
ATOM      6  C   UNL     1      32.569 -23.752 -16.420  0.00  0.00    +0.090 C 
ATOM      7  C   UNL     1      34.902 -22.427 -17.330  0.00  0.00    +0.135 C 
ATOM      8  C   UNL     1      33.773 -23.672 -15.505  0.00  0.00    +0.233 C 
ATOM      9  C   UNL     1      33.669 -21.470 -19.156  0.00  0.00    +0.000 C 
ATOM     10  C   UNL     1      34.868 -21.093 -19.747  0.00  0.00    +0.019 C 
ATOM     11  C   UNL     1      36.035 -21.402 -19.078  0.00  0.00    +0.100 C 
ENDROOT
BRANCH  10  12
ATOM     12  C   UNL     1      34.893 -20.412 -21.028  0.00  0.00    +0.006 C 
ATOM     13  C   UNL     1      34.605 -19.104 -21.224  0.00  0.00    +0.058 C 
BRANCH  13  16
ATOM     14  O   UNL     1      34.495 -19.262 -23.578  0.00  0.00    -0.270 OA
ATOM     15  N   UNL     1      34.797 -17.139 -22.681  0.00  0.00    -0.267 N 
ATOM     16  C   UNL     1      34.634 -18.525 -22.600  0.00  0.00    +0.250 C 
ATOM     17  C   UNL     1      34.805 -16.495 -23.989  0.00  0.00    +0.116 C 
BRANCH  15  18
ATOM     18  C   UNL     1      34.929 -16.240 -21.536  0.00  0.00    +0.158 C 
BRANCH  18  20
ATOM     19  O   UNL     1      34.731 -14.245 -22.904  0.00  0.00    -0.456 OA
ATOM     20  C   UNL     1      34.297 -14.903 -21.797  0.00  0.00    +0.139 A 
ATOM     21  C   UNL     1      33.338 -14.168 -21.139  0.00  0.00    +0.013 A 
ATOM     22  C   UNL     1      33.165 -12.973 -21.887  0.00  0.00    +0.033 A 
ATOM     23  C   UNL     1      34.045 -13.069 -22.961  0.00  0.00    +0.145 A 
ATOM     24  C   UNL     1      32.631 -14.549 -19.902  0.00  0.00    +0.034 C 
ATOM     25  C   UNL     1      32.365 -11.823 -21.775  0.00  0.00    +0.003 C 
ATOM     26  C   UNL     1      34.187 -12.092 -23.944  0.00  0.00    +0.037 C 
ATOM     27  C   UNL     1      32.486 -10.822 -22.749  0.00  0.00    +0.000 C 
ATOM     28  C   UNL     1      33.382 -10.957 -23.813  0.00  0.00    +0.003 C 
ENDBRANCH  18  20
ENDBRANCH  15  18
ENDBRANCH  13  16
ENDBRANCH  10  12
BRANCH   2  29
ATOM     29  C   UNL     1      36.190 -23.157 -15.357  0.00  0.00    +0.257 C 
BRANCH  29  30
ATOM     30  O   UNL     1      36.675 -24.486 -15.400  0.00  0.00    -0.251 OA
BRANCH  30  31
ATOM     31  P   UNL     1      37.471 -25.057 -14.112  0.00  0.00    +0.475 P 
ATOM     32  O   UNL     1      38.027 -24.019 -13.182  0.00  0.00    -0.227 OA
BRANCH  31  33
ATOM     33  O   UNL     1      38.569 -26.049 -14.764  0.00  0.00    -0.303 OA
ATOM     34  H   UNL     1      39.028 -25.593 -15.487  0.00  0.00    +0.222 HD
ENDBRANCH  31  33
BRANCH  31  35
ATOM     35  O   UNL     1      36.416 -26.079 -13.432  0.00  0.00    -0.303 OA
ATOM     36  H   UNL     1      35.841 -26.453 -14.117  0.00  0.00    +0.222 HD
ENDBRANCH  31  35
ENDBRANCH  30  31
ENDBRANCH  29  30
ENDBRANCH   2  29
TORSDOF 9
ENDMDL
MODEL 7
REMARK VINA RESULT:     -10.4      6.449     12.138
REMARK  Name = 72696796
REMARK  9 active torsions:
REMARK  status: ('A' for Active; 'I' for Inactive)
REMARK    1  A    between atoms: N_2  and  C_29
REMARK    2  A    between atoms: C_10  and  C_12
REMARK    3  A    between atoms: C_13  and  C_16
REMARK    4  A    between atoms: N_15  and  C_18
REMARK    5  A    between atoms: C_18  and  C_20
REMARK    6  A    between atoms: C_29  and  O_30
REMARK    7  A    between atoms: O_30  and  P_31
REMARK    8  A    between atoms: P_31  and  O_33
REMARK    9  A    between atoms: P_31  and  O_35
REMARK                            x       y       z     vdW  Elec       q    Type
REMARK                         _______ _______ _______ _____ _____    ______ ____
ROOT
ATOM      1  O   UNL     1      30.539 -24.495 -13.411  0.00  0.00    -0.274 OA
ATOM      2  N   UNL     1      31.236 -23.662 -15.472  0.00  0.00    -0.217 N 
ATOM      3  N   UNL     1      32.026 -22.710 -17.536  0.00  0.00    -0.229 NA
ATOM      4  C   UNL     1      33.897 -23.849 -14.467  0.00  0.00    +0.039 C 
ATOM      5  C   UNL     1      33.612 -23.235 -15.800  0.00  0.00    +0.010 C 
ATOM      6  C   UNL     1      32.740 -23.595 -13.523  0.00  0.00    +0.090 C 
ATOM      7  C   UNL     1      32.305 -23.179 -16.292  0.00  0.00    +0.135 C 
ATOM      8  C   UNL     1      31.410 -23.995 -14.126  0.00  0.00    +0.233 C 
ATOM      9  C   UNL     1      34.653 -22.789 -16.621  0.00  0.00    +0.000 C 
ATOM     10  C   UNL     1      34.377 -22.292 -17.887  0.00  0.00    +0.019 C 
ATOM     11  C   UNL     1      33.057 -22.275 -18.294  0.00  0.00    +0.100 C 
ENDROOT
BRANCH  10  12
ATOM     12  C   UNL     1      35.434 -21.794 -18.746  0.00  0.00    +0.006 C 
ATOM     13  C   UNL     1      35.382 -20.651 -19.470  0.00  0.00    +0.058 C 
BRANCH  13  16
ATOM     14  O   UNL     1      37.421 -21.075 -20.582  0.00  0.00    -0.270 OA
ATOM     15  N   UNL     1      36.484 -18.968 -20.875  0.00  0.00    -0.267 N 
ATOM     16  C   UNL     1      36.525 -20.261 -20.346  0.00  0.00    +0.250 C 
ATOM     17  C   UNL     1      37.549 -18.524 -21.765  0.00  0.00    +0.116 C 
BRANCH  15  18
ATOM     18  C   UNL     1      35.417 -17.998 -20.638  0.00  0.00    +0.158 C 
BRANCH  18  20
ATOM     19  O   UNL     1      34.835 -16.013 -21.908  0.00  0.00    -0.456 OA
ATOM     20  C   UNL     1      34.938 -17.368 -21.915  0.00  0.00    +0.139 A 
ATOM     21  C   UNL     1      34.567 -17.877 -23.137  0.00  0.00    +0.013 A 
ATOM     22  C   UNL     1      34.209 -16.765 -23.944  0.00  0.00    +0.033 A 
ATOM     23  C   UNL     1      34.391 -15.643 -23.141  0.00  0.00    +0.145 A 
ATOM     24  C   UNL     1      34.546 -19.300 -23.529  0.00  0.00    +0.034 C 
ATOM     25  C   UNL     1      33.752 -16.583 -25.260  0.00  0.00    +0.003 C 
ATOM     26  C   UNL     1      34.148 -14.336 -23.560  0.00  0.00    +0.037 C 
ATOM     27  C   UNL     1      33.499 -15.280 -25.710  0.00  0.00    +0.000 C 
ATOM     28  C   UNL     1      33.694 -14.178 -24.873  0.00  0.00    +0.003 C 
ENDBRANCH  18  20
ENDBRANCH  15  18
ENDBRANCH  13  16
ENDBRANCH  10  12
BRANCH   2  29
ATOM     29  C   UNL     1      29.927 -23.805 -16.099  0.00  0.00    +0.257 C 
BRANCH  29  30
ATOM     30  O   UNL     1      29.134 -22.681 -15.767  0.00  0.00    -0.251 OA
BRANCH  30  31
ATOM     31  P   UNL     1      27.543 -22.749 -16.056  0.00  0.00    +0.475 P 
ATOM     32  O   UNL     1      26.665 -22.787 -14.839  0.00  0.00    -0.227 OA
BRANCH  31  33
ATOM     33  O   UNL     1      27.399 -24.021 -17.043  0.00  0.00    -0.303 OA
ATOM     34  H   UNL     1      28.147 -24.038 -17.660  0.00  0.00    +0.222 HD
ENDBRANCH  31  33
BRANCH  31  35
ATOM     35  O   UNL     1      27.279 -21.492 -17.040  0.00  0.00    -0.303 OA
ATOM     36  H   UNL     1      27.014 -21.816 -17.915  0.00  0.00    +0.222 HD
ENDBRANCH  31  35
ENDBRANCH  30  31
ENDBRANCH  29  30
ENDBRANCH   2  29
TORSDOF 9
ENDMDL
MODEL 8
REMARK VINA RESULT:      -9.7      4.366     11.587
REMARK  Name = 72696796
REMARK  9 active torsions:
REMARK  status: ('A' for Active; 'I' for Inactive)
REMARK    1  A    between atoms: N_2  and  C_29
REMARK    2  A    between atoms: C_10  and  C_12
REMARK    3  A    between atoms: C_13  and  C_16
REMARK    4  A    between atoms: N_15  and  C_18
REMARK    5  A    between atoms: C_18  and  C_20
REMARK    6  A    between atoms: C_29  and  O_30
REMARK    7  A    between atoms: O_30  and  P_31
REMARK    8  A    between atoms: P_31  and  O_33
REMARK    9  A    between atoms: P_31  and  O_35
REMARK                            x       y       z     vdW  Elec       q    Type
REMARK                         _______ _______ _______ _____ _____    ______ ____
ROOT
ATOM      1  O   UNL     1      36.866 -21.713 -18.128  0.00  0.00    -0.274 OA
ATOM      2  N   UNL     1      35.497 -20.949 -19.852  0.00  0.00    -0.217 N 
ATOM      3  N   UNL     1      34.098 -20.038 -21.584  0.00  0.00    -0.229 NA
ATOM      4  C   UNL     1      37.544 -19.048 -20.418  0.00  0.00    +0.039 C 
ATOM      5  C   UNL     1      36.238 -19.022 -21.145  0.00  0.00    +0.010 C 
ATOM      6  C   UNL     1      37.338 -19.551 -19.004  0.00  0.00    +0.090 C 
ATOM      7  C   UNL     1      35.257 -19.980 -20.878  0.00  0.00    +0.135 C 
ATOM      8  C   UNL     1      36.574 -20.858 -18.966  0.00  0.00    +0.233 C 
ATOM      9  C   UNL     1      36.007 -18.100 -22.170  0.00  0.00    +0.000 C 
ATOM     10  C   UNL     1      34.818 -18.138 -22.886  0.00  0.00    +0.019 C 
ATOM     11  C   UNL     1      33.905 -19.120 -22.558  0.00  0.00    +0.100 C 
ENDROOT
BRANCH  10  12
ATOM     12  C   UNL     1      34.540 -17.174 -23.934  0.00  0.00    +0.006 C 
ATOM     13  C   UNL     1      34.158 -15.890 -23.734  0.00  0.00    +0.058 C 
BRANCH  13  16
ATOM     14  O   UNL     1      34.079 -15.404 -26.043  0.00  0.00    -0.270 OA
ATOM     15  N   UNL     1      33.334 -13.745 -24.595  0.00  0.00    -0.267 N 
ATOM     16  C   UNL     1      33.867 -15.001 -24.898  0.00  0.00    +0.250 C 
ATOM     17  C   UNL     1      32.994 -12.832 -25.679  0.00  0.00    +0.116 C 
BRANCH  15  18
ATOM     18  C   UNL     1      33.041 -13.259 -23.248  0.00  0.00    +0.158 C 
BRANCH  18  20
ATOM     19  O   UNL     1      34.287 -11.248 -23.789  0.00  0.00    -0.456 OA
ATOM     20  C   UNL     1      33.214 -11.771 -23.140  0.00  0.00    +0.139 A 
ATOM     21  C   UNL     1      32.501 -10.782 -22.504  0.00  0.00    +0.013 A 
ATOM     22  C   UNL     1      33.175  -9.562 -22.777  0.00  0.00    +0.033 A 
ATOM     23  C   UNL     1      34.266  -9.903 -23.570  0.00  0.00    +0.145 A 
ATOM     24  C   UNL     1      31.276 -10.957 -21.700  0.00  0.00    +0.034 C 
ATOM     25  C   UNL     1      32.984  -8.211 -22.442  0.00  0.00    +0.003 C 
ATOM     26  C   UNL     1      35.193  -8.985 -24.059  0.00  0.00    +0.037 C 
ATOM     27  C   UNL     1      33.900  -7.263 -22.920  0.00  0.00    +0.000 C 
ATOM     28  C   UNL     1      34.984  -7.646 -23.714  0.00  0.00    +0.003 C 
ENDBRANCH  18  20
ENDBRANCH  15  18
ENDBRANCH  13  16
ENDBRANCH  10  12
BRANCH   2  29
ATOM     29  C   UNL     1      34.564 -22.067 -19.758  0.00  0.00    +0.257 C 
BRANCH  29  30
ATOM     30  O   UNL     1      33.661 -21.823 -18.696  0.00  0.00    -0.251 OA
BRANCH  30  31
ATOM     31  P   UNL     1      33.419 -22.994 -17.606  0.00  0.00    +0.475 P 
ATOM     32  O   UNL     1      32.157 -22.880 -16.803  0.00  0.00    -0.227 OA
BRANCH  31  33
ATOM     33  O   UNL     1      34.784 -22.983 -16.740  0.00  0.00    -0.303 OA
ATOM     34  H   UNL     1      34.854 -23.808 -16.235  0.00  0.00    +0.222 HD
ENDBRANCH  31  33
BRANCH  31  35
ATOM     35  O   UNL     1      33.549 -24.355 -18.473  0.00  0.00    -0.303 OA
ATOM     36  H   UNL     1      34.290 -24.274 -19.093  0.00  0.00    +0.222 HD
ENDBRANCH  31  35
ENDBRANCH  30  31
ENDBRANCH  29  30
ENDBRANCH   2  29
TORSDOF 9
ENDMDL
MODEL 9
REMARK VINA RESULT:      -9.5      7.683     11.390
REMARK  Name = 72696796
REMARK  9 active torsions:
REMARK  status: ('A' for Active; 'I' for Inactive)
REMARK    1  A    between atoms: N_2  and  C_29
REMARK    2  A    between atoms: C_10  and  C_12
REMARK    3  A    between atoms: C_13  and  C_16
REMARK    4  A    between atoms: N_15  and  C_18
REMARK    5  A    between atoms: C_18  and  C_20
REMARK    6  A    between atoms: C_29  and  O_30
REMARK    7  A    between atoms: O_30  and  P_31
REMARK    8  A    between atoms: P_31  and  O_33
REMARK    9  A    between atoms: P_31  and  O_35
REMARK                            x       y       z     vdW  Elec       q    Type
REMARK                         _______ _______ _______ _____ _____    ______ ____
ROOT
ATOM      1  O   UNL     1      36.995 -19.007 -21.398  0.00  0.00    -0.274 OA
ATOM      2  N   UNL     1      35.021 -19.860 -20.503  0.00  0.00    -0.217 N 
ATOM      3  N   UNL     1      33.030 -20.861 -19.594  0.00  0.00    -0.229 NA
ATOM      4  C   UNL     1      36.664 -21.355 -18.718  0.00  0.00    +0.039 C 
ATOM      5  C   UNL     1      35.180 -21.542 -18.749  0.00  0.00    +0.010 C 
ATOM      6  C   UNL     1      37.168 -20.995 -20.100  0.00  0.00    +0.090 C 
ATOM      7  C   UNL     1      34.386 -20.779 -19.608  0.00  0.00    +0.135 C 
ATOM      8  C   UNL     1      36.403 -19.837 -20.705  0.00  0.00    +0.233 C 
ATOM      9  C   UNL     1      34.550 -22.415 -17.856  0.00  0.00    +0.000 C 
ATOM     10  C   UNL     1      33.166 -22.520 -17.847  0.00  0.00    +0.019 C 
ATOM     11  C   UNL     1      32.458 -21.726 -18.727  0.00  0.00    +0.100 C 
ENDROOT
BRANCH  10  12
ATOM     12  C   UNL     1      32.488 -23.439 -16.953  0.00  0.00    +0.006 C 
ATOM     13  C   UNL     1      31.694 -23.081 -15.916  0.00  0.00    +0.058 C 
BRANCH  13  16
ATOM     14  O   UNL     1      30.169 -24.832 -15.487  0.00  0.00    -0.270 OA
ATOM     15  N   UNL     1      31.607 -24.245 -13.758  0.00  0.00    -0.267 N 
ATOM     16  C   UNL     1      31.076 -24.124 -15.045  0.00  0.00    +0.250 C 
ATOM     17  C   UNL     1      31.077 -25.262 -12.858  0.00  0.00    +0.116 C 
BRANCH  15  18
ATOM     18  C   UNL     1      32.704 -23.442 -13.222  0.00  0.00    +0.158 C 
BRANCH  18  20
ATOM     19  O   UNL     1      34.291 -24.875 -14.369  0.00  0.00    -0.456 OA
ATOM     20  C   UNL     1      34.004 -24.194 -13.229  0.00  0.00    +0.139 A 
ATOM     21  C   UNL     1      35.008 -24.351 -12.302  0.00  0.00    +0.013 A 
ATOM     22  C   UNL     1      35.984 -25.187 -12.906  0.00  0.00    +0.033 A 
ATOM     23  C   UNL     1      35.496 -25.482 -14.175  0.00  0.00    +0.145 A 
ATOM     24  C   UNL     1      35.057 -23.765 -10.949  0.00  0.00    +0.034 C 
ATOM     25  C   UNL     1      37.223 -25.726 -12.520  0.00  0.00    +0.003 C 
ATOM     26  C   UNL     1      36.160 -26.284 -15.100  0.00  0.00    +0.037 C 
ATOM     27  C   UNL     1      37.916 -26.538 -13.430  0.00  0.00    +0.000 C 
ATOM     28  C   UNL     1      37.391 -26.811 -14.696  0.00  0.00    +0.003 C 
ENDBRANCH  18  20
ENDBRANCH  15  18
ENDBRANCH  13  16
ENDBRANCH  10  12
BRANCH   2  29
ATOM     29  C   UNL     1      34.160 -18.918 -21.212  0.00  0.00    +0.257 C 
BRANCH  29  30
ATOM     30  O   UNL     1      33.670 -19.541 -22.385  0.00  0.00    -0.251 OA
BRANCH  30  31
ATOM     31  P   UNL     1      34.155 -18.971 -23.820  0.00  0.00    +0.475 P 
ATOM     32  O   UNL     1      33.065 -18.461 -24.716  0.00  0.00    -0.227 OA
BRANCH  31  33
ATOM     33  O   UNL     1      35.026 -20.191 -24.427  0.00  0.00    -0.303 OA
ATOM     34  H   UNL     1      35.570 -19.865 -25.162  0.00  0.00    +0.222 HD
ENDBRANCH  31  33
BRANCH  31  35
ATOM     35  O   UNL     1      35.282 -17.875 -23.435  0.00  0.00    -0.303 OA
ATOM     36  H   UNL     1      35.725 -18.141 -22.614  0.00  0.00    +0.222 HD
ENDBRANCH  31  35
ENDBRANCH  30  31
ENDBRANCH  29  30
ENDBRANCH   2  29
TORSDOF 9
ENDMDL
