MODEL 1
REMARK VINA RESULT:     -11.6      0.000      0.000
REMARK  Name = 24779724
REMARK  3 active torsions:
REMARK  status: ('A' for Active; 'I' for Inactive)
REMARK    1  A    between atoms: C_5  and  C_12
REMARK    2  A    between atoms: C_7  and  S_16
REMARK    3  A    between atoms: S_16  and  C_19
REMARK                            x       y       z     vdW  Elec       q    Type
REMARK                         _______ _______ _______ _____ _____    ______ ____
ROOT
ATOM      1  N   UNL     1      34.512 -21.764 -18.491  0.00  0.00    -0.186 N 
ATOM      2  N   UNL     1      35.542 -22.126 -17.686  0.00  0.00    -0.162 NA
ATOM      3  N   UNL     1      32.495 -21.546 -19.333  0.00  0.00    -0.126 NA
ATOM      4  N   UNL     1      33.381 -20.850 -20.131  0.00  0.00    -0.120 NA
ATOM      5  C   UNL     1      35.184 -22.863 -16.673  0.00  0.00    +0.104 C 
ATOM      6  C   UNL     1      33.184 -22.091 -18.352  0.00  0.00    +0.187 A 
ATOM      7  C   UNL     1      34.581 -20.992 -19.615  0.00  0.00    +0.217 A 
ATOM      8  C   UNL     1      33.778 -23.311 -16.406  0.00  0.00    +0.024 C 
ATOM      9  C   UNL     1      32.829 -22.904 -17.257  0.00  0.00    +0.042 C 
ENDROOT
BRANCH   5  12
ATOM     10  N   UNL     1      37.279 -24.414 -14.145  0.00  0.00    -0.208 N 
ATOM     11  N   UNL     1      38.176 -23.496 -14.544  0.00  0.00    -0.176 NA
ATOM     12  C   UNL     1      36.221 -23.320 -15.713  0.00  0.00    +0.056 C 
ATOM     13  C   UNL     1      36.092 -24.351 -14.814  0.00  0.00    +0.087 C 
ATOM     14  C   UNL     1      37.525 -22.831 -15.502  0.00  0.00    +0.121 C 
ATOM     15  C   UNL     1      37.623 -25.345 -13.097  0.00  0.00    +0.140 C 
ENDBRANCH   5  12
BRANCH   7  16
ATOM     16  S   UNL     1      36.102 -20.301 -20.246  0.00  0.00    -0.051 S 
BRANCH  16  19
ATOM     17  N   UNL     1      34.050 -16.665 -24.483  0.00  0.00    -0.248 NA
ATOM     18  C   UNL     1      34.912 -16.967 -22.254  0.00  0.00    -0.003 C 
ATOM     19  C   UNL     1      35.490 -19.203 -21.508  0.00  0.00    +0.011 C 
ATOM     20  C   UNL     1      34.517 -17.470 -23.511  0.00  0.00    +0.060 C 
ATOM     21  C   UNL     1      35.396 -17.836 -21.262  0.00  0.00    +0.060 C 
ATOM     22  C   UNL     1      35.102 -19.705 -22.743  0.00  0.00    -0.017 C 
ATOM     23  C   UNL     1      34.621 -18.841 -23.730  0.00  0.00    +0.072 C 
ATOM     24  C   UNL     1      34.808 -15.587 -22.033  0.00  0.00    -0.001 C 
ATOM     25  C   UNL     1      34.326 -14.754 -23.033  0.00  0.00    +0.020 C 
ATOM     26  C   UNL     1      33.964 -15.339 -24.230  0.00  0.00    +0.098 C 
ENDBRANCH  16  19
ENDBRANCH   7  16
TORSDOF 3
ENDMDL
MODEL 2
REMARK VINA RESULT:     -11.4      0.838      1.543
REMARK  Name = 24779724
REMARK  3 active torsions:
REMARK  status: ('A' for Active; 'I' for Inactive)
REMARK    1  A    between atoms: C_5  and  C_12
REMARK    2  A    between atoms: C_7  and  S_16
REMARK    3  A    between atoms: S_16  and  C_19
REMARK                            x       y       z     vdW  Elec       q    Type
REMARK                         _______ _______ _______ _____ _____    ______ ____
ROOT
ATOM      1  N   UNL     1      34.443 -22.064 -18.176  0.00  0.00    -0.186 N 
ATOM      2  N   UNL     1      35.448 -22.471 -17.361  0.00  0.00    -0.162 NA
ATOM      3  N   UNL     1      32.441 -21.712 -19.008  0.00  0.00    -0.126 NA
ATOM      4  N   UNL     1      33.373 -21.146 -19.854  0.00  0.00    -0.120 NA
ATOM      5  C   UNL     1      35.040 -23.115 -16.304  0.00  0.00    +0.104 C 
ATOM      6  C   UNL     1      33.093 -22.260 -18.004  0.00  0.00    +0.187 A 
ATOM      7  C   UNL     1      34.563 -21.367 -19.343  0.00  0.00    +0.217 A 
ATOM      8  C   UNL     1      33.604 -23.418 -15.997  0.00  0.00    +0.024 C 
ATOM      9  C   UNL     1      32.682 -22.975 -16.862  0.00  0.00    +0.042 C 
ENDROOT
BRANCH   5  12
ATOM     10  N   UNL     1      37.099 -24.822 -13.848  0.00  0.00    -0.208 N 
ATOM     11  N   UNL     1      37.914 -23.767 -14.023  0.00  0.00    -0.176 NA
ATOM     12  C   UNL     1      36.046 -23.609 -15.330  0.00  0.00    +0.056 C 
ATOM     13  C   UNL     1      35.966 -24.775 -14.607  0.00  0.00    +0.087 C 
ATOM     14  C   UNL     1      37.266 -23.031 -14.929  0.00  0.00    +0.121 C 
ATOM     15  C   UNL     1      37.465 -25.864 -12.919  0.00  0.00    +0.140 C 
ENDBRANCH   5  12
BRANCH   7  16
ATOM     16  S   UNL     1      36.131 -20.853 -20.027  0.00  0.00    -0.051 S 
BRANCH  16  19
ATOM     17  N   UNL     1      34.495 -16.201 -23.355  0.00  0.00    -0.248 NA
ATOM     18  C   UNL     1      34.604 -18.588 -23.044  0.00  0.00    -0.003 C 
ATOM     19  C   UNL     1      35.636 -19.467 -21.031  0.00  0.00    +0.011 C 
ATOM     20  C   UNL     1      34.856 -17.267 -22.617  0.00  0.00    +0.060 C 
ATOM     21  C   UNL     1      34.995 -19.677 -22.248  0.00  0.00    +0.060 C 
ATOM     22  C   UNL     1      35.889 -18.169 -20.605  0.00  0.00    -0.017 C 
ATOM     23  C   UNL     1      35.500 -17.086 -21.395  0.00  0.00    +0.072 C 
ATOM     24  C   UNL     1      33.956 -18.770 -24.273  0.00  0.00    -0.001 C 
ATOM     25  C   UNL     1      33.582 -17.674 -25.035  0.00  0.00    +0.020 C 
ATOM     26  C   UNL     1      33.873 -16.421 -24.535  0.00  0.00    +0.098 C 
ENDBRANCH  16  19
ENDBRANCH   7  16
TORSDOF 3
ENDMDL
MODEL 3
REMARK VINA RESULT:     -10.7      6.353     12.081
REMARK  Name = 24779724
REMARK  3 active torsions:
REMARK  status: ('A' for Active; 'I' for Inactive)
REMARK    1  A    between atoms: C_5  and  C_12
REMARK    2  A    between atoms: C_7  and  S_16
REMARK    3  A    between atoms: S_16  and  C_19
REMARK                            x       y       z     vdW  Elec       q    Type
REMARK                         _______ _______ _______ _____ _____    ______ ____
ROOT
ATOM      1  N   UNL     1      32.431 -11.560 -21.800  0.00  0.00    -0.186 N 
ATOM      2  N   UNL     1      32.553 -10.345 -22.391  0.00  0.00    -0.162 NA
ATOM      3  N   UNL     1      31.933 -13.143 -20.361  0.00  0.00    -0.126 NA
ATOM      4  N   UNL     1      32.558 -13.720 -21.448  0.00  0.00    -0.120 NA
ATOM      5  C   UNL     1      32.054  -9.367 -21.689  0.00  0.00    +0.104 C 
ATOM      6  C   UNL     1      31.862 -11.847 -20.582  0.00  0.00    +0.187 A 
ATOM      7  C   UNL     1      32.850 -12.761 -22.297  0.00  0.00    +0.217 A 
ATOM      8  C   UNL     1      31.421  -9.528 -20.340  0.00  0.00    +0.024 C 
ATOM      9  C   UNL     1      31.347 -10.767 -19.838  0.00  0.00    +0.042 C 
ENDROOT
BRANCH   5  12
ATOM     10  N   UNL     1      31.626  -5.926 -22.766  0.00  0.00    -0.208 N 
ATOM     11  N   UNL     1      32.859  -6.092 -23.276  0.00  0.00    -0.176 NA
ATOM     12  C   UNL     1      32.121  -7.986 -22.231  0.00  0.00    +0.056 C 
ATOM     13  C   UNL     1      31.139  -7.031 -22.131  0.00  0.00    +0.087 C 
ATOM     14  C   UNL     1      33.156  -7.352 -22.946  0.00  0.00    +0.121 C 
ATOM     15  C   UNL     1      30.950  -4.660 -22.923  0.00  0.00    +0.140 C 
ENDBRANCH   5  12
BRANCH   7  16
ATOM     16  S   UNL     1      33.667 -12.944 -23.875  0.00  0.00    -0.051 S 
BRANCH  16  19
ATOM     17  N   UNL     1      34.232 -18.855 -24.238  0.00  0.00    -0.248 NA
ATOM     18  C   UNL     1      34.735 -16.793 -23.096  0.00  0.00    -0.003 C 
ATOM     19  C   UNL     1      33.842 -14.714 -23.974  0.00  0.00    +0.011 C 
ATOM     20  C   UNL     1      34.116 -17.517 -24.137  0.00  0.00    +0.060 C 
ATOM     21  C   UNL     1      34.593 -15.397 -23.022  0.00  0.00    +0.060 C 
ATOM     22  C   UNL     1      33.230 -15.421 -25.001  0.00  0.00    -0.017 C 
ATOM     23  C   UNL     1      33.371 -16.808 -25.075  0.00  0.00    +0.072 C 
ATOM     24  C   UNL     1      35.485 -17.506 -22.152  0.00  0.00    -0.001 C 
ATOM     25  C   UNL     1      35.606 -18.885 -22.253  0.00  0.00    +0.020 C 
ATOM     26  C   UNL     1      34.964 -19.506 -23.306  0.00  0.00    +0.098 C 
ENDBRANCH  16  19
ENDBRANCH   7  16
TORSDOF 3
ENDMDL
MODEL 4
REMARK VINA RESULT:     -10.6      2.289      9.362
REMARK  Name = 24779724
REMARK  3 active torsions:
REMARK  status: ('A' for Active; 'I' for Inactive)
REMARK    1  A    between atoms: C_5  and  C_12
REMARK    2  A    between atoms: C_7  and  S_16
REMARK    3  A    between atoms: S_16  and  C_19
REMARK                            x       y       z     vdW  Elec       q    Type
REMARK                         _______ _______ _______ _____ _____    ______ ____
ROOT
ATOM      1  N   UNL     1      35.294 -20.130 -20.478  0.00  0.00    -0.186 N 
ATOM      2  N   UNL     1      34.563 -19.595 -21.487  0.00  0.00    -0.162 NA
ATOM      3  N   UNL     1      36.961 -20.599 -19.126  0.00  0.00    -0.126 NA
ATOM      4  N   UNL     1      35.851 -21.310 -18.716  0.00  0.00    -0.120 NA
ATOM      5  C   UNL     1      35.231 -18.764 -22.236  0.00  0.00    +0.104 C 
ATOM      6  C   UNL     1      36.616 -19.894 -20.184  0.00  0.00    +0.187 A 
ATOM      7  C   UNL     1      34.865 -21.020 -19.535  0.00  0.00    +0.217 A 
ATOM      8  C   UNL     1      36.679 -18.425 -22.045  0.00  0.00    +0.024 C 
ATOM      9  C   UNL     1      37.317 -19.004 -21.021  0.00  0.00    +0.042 C 
ENDROOT
BRANCH   5  12
ATOM     10  N   UNL     1      33.801 -16.613 -24.789  0.00  0.00    -0.208 N 
ATOM     11  N   UNL     1      33.266 -17.761 -25.240  0.00  0.00    -0.176 NA
ATOM     12  C   UNL     1      34.539 -18.106 -23.374  0.00  0.00    +0.056 C 
ATOM     13  C   UNL     1      34.571 -16.766 -23.673  0.00  0.00    +0.087 C 
ATOM     14  C   UNL     1      33.721 -18.669 -24.373  0.00  0.00    +0.121 C 
ATOM     15  C   UNL     1      33.533 -15.376 -25.482  0.00  0.00    +0.140 C 
ENDBRANCH   5  12
BRANCH   7  16
ATOM     16  S   UNL     1      33.199 -21.660 -19.469  0.00  0.00    -0.051 S 
BRANCH  16  19
ATOM     17  N   UNL     1      33.154 -24.139 -14.062  0.00  0.00    -0.248 NA
ATOM     18  C   UNL     1      31.945 -23.141 -15.892  0.00  0.00    -0.003 C 
ATOM     19  C   UNL     1      33.174 -22.402 -17.850  0.00  0.00    +0.011 C 
ATOM     20  C   UNL     1      33.142 -23.576 -15.284  0.00  0.00    +0.060 C 
ATOM     21  C   UNL     1      31.970 -22.557 -17.170  0.00  0.00    +0.060 C 
ATOM     22  C   UNL     1      34.356 -22.827 -17.257  0.00  0.00    -0.017 C 
ATOM     23  C   UNL     1      34.332 -23.407 -15.987  0.00  0.00    +0.072 C 
ATOM     24  C   UNL     1      30.748 -23.310 -15.185  0.00  0.00    -0.001 C 
ATOM     25  C   UNL     1      30.756 -23.890 -13.924  0.00  0.00    +0.020 C 
ATOM     26  C   UNL     1      31.976 -24.284 -13.413  0.00  0.00    +0.098 C 
ENDBRANCH  16  19
ENDBRANCH   7  16
TORSDOF 3
ENDMDL
MODEL 5
REMARK VINA RESULT:     -10.5      2.646      3.813
REMARK  Name = 24779724
REMARK  3 active torsions:
REMARK  status: ('A' for Active; 'I' for Inactive)
REMARK    1  A    between atoms: C_5  and  C_12
REMARK    2  A    between atoms: C_7  and  S_16
REMARK    3  A    between atoms: S_16  and  C_19
REMARK                            x       y       z     vdW  Elec       q    Type
REMARK                         _______ _______ _______ _____ _____    ______ ____
ROOT
ATOM      1  N   UNL     1      32.874 -23.368 -15.742  0.00  0.00    -0.186 N 
ATOM      2  N   UNL     1      33.911 -23.880 -15.033  0.00  0.00    -0.162 NA
ATOM      3  N   UNL     1      30.924 -22.501 -16.262  0.00  0.00    -0.126 NA
ATOM      4  N   UNL     1      31.658 -22.654 -17.420  0.00  0.00    -0.120 NA
ATOM      5  C   UNL     1      33.689 -23.943 -13.751  0.00  0.00    +0.104 C 
ATOM      6  C   UNL     1      31.663 -22.932 -15.261  0.00  0.00    +0.187 A 
ATOM      7  C   UNL     1      32.819 -23.175 -17.093  0.00  0.00    +0.217 A 
ATOM      8  C   UNL     1      32.412 -23.522 -13.088  0.00  0.00    +0.024 C 
ATOM      9  C   UNL     1      31.445 -23.029 -13.872  0.00  0.00    +0.042 C 
ENDROOT
BRANCH   5  12
ATOM     10  N   UNL     1      36.590 -25.408 -12.130  0.00  0.00    -0.208 N 
ATOM     11  N   UNL     1      35.932 -25.089 -11.003  0.00  0.00    -0.176 NA
ATOM     12  C   UNL     1      34.752 -24.482 -12.863  0.00  0.00    +0.056 C 
ATOM     13  C   UNL     1      35.926 -25.066 -13.272  0.00  0.00    +0.087 C 
ATOM     14  C   UNL     1      34.810 -24.523 -11.457  0.00  0.00    +0.121 C 
ATOM     15  C   UNL     1      37.879 -26.053 -12.049  0.00  0.00    +0.140 C 
ENDBRANCH   5  12
BRANCH   7  16
ATOM     16  S   UNL     1      34.157 -23.583 -18.203  0.00  0.00    -0.051 S 
BRANCH  16  19
ATOM     17  N   UNL     1      34.554 -18.580 -21.396  0.00  0.00    -0.248 NA
ATOM     18  C   UNL     1      35.644 -20.359 -20.190  0.00  0.00    -0.003 C 
ATOM     19  C   UNL     1      34.287 -22.086 -19.159  0.00  0.00    +0.011 C 
ATOM     20  C   UNL     1      34.487 -19.713 -20.673  0.00  0.00    +0.060 C 
ATOM     21  C   UNL     1      35.537 -21.540 -19.438  0.00  0.00    +0.060 C 
ATOM     22  C   UNL     1      33.143 -21.455 -19.630  0.00  0.00    -0.017 C 
ATOM     23  C   UNL     1      33.250 -20.281 -20.378  0.00  0.00    +0.072 C 
ATOM     24  C   UNL     1      36.889 -19.787 -20.486  0.00  0.00    -0.001 C 
ATOM     25  C   UNL     1      36.962 -18.620 -21.232  0.00  0.00    +0.020 C 
ATOM     26  C   UNL     1      35.775 -18.061 -21.660  0.00  0.00    +0.098 C 
ENDBRANCH  16  19
ENDBRANCH   7  16
TORSDOF 3
ENDMDL
MODEL 6
REMARK VINA RESULT:     -10.4      2.050      9.314
REMARK  Name = 24779724
REMARK  3 active torsions:
REMARK  status: ('A' for Active; 'I' for Inactive)
REMARK    1  A    between atoms: C_5  and  C_12
REMARK    2  A    between atoms: C_7  and  S_16
REMARK    3  A    between atoms: S_16  and  C_19
REMARK                            x       y       z     vdW  Elec       q    Type
REMARK                         _______ _______ _______ _____ _____    ______ ____
ROOT
ATOM      1  N   UNL     1      35.298 -20.138 -20.465  0.00  0.00    -0.186 N 
ATOM      2  N   UNL     1      34.566 -19.605 -21.476  0.00  0.00    -0.162 NA
ATOM      3  N   UNL     1      36.961 -20.593 -19.106  0.00  0.00    -0.126 NA
ATOM      4  N   UNL     1      35.859 -21.322 -18.708  0.00  0.00    -0.120 NA
ATOM      5  C   UNL     1      35.227 -18.759 -22.214  0.00  0.00    +0.104 C 
ATOM      6  C   UNL     1      36.615 -19.886 -20.161  0.00  0.00    +0.187 A 
ATOM      7  C   UNL     1      34.875 -21.039 -19.532  0.00  0.00    +0.217 A 
ATOM      8  C   UNL     1      36.669 -18.402 -22.011  0.00  0.00    +0.024 C 
ATOM      9  C   UNL     1      37.309 -18.980 -20.987  0.00  0.00    +0.042 C 
ENDROOT
BRANCH   5  12
ATOM     10  N   UNL     1      33.786 -16.610 -24.762  0.00  0.00    -0.208 N 
ATOM     11  N   UNL     1      33.269 -17.762 -25.224  0.00  0.00    -0.176 NA
ATOM     12  C   UNL     1      34.534 -18.103 -23.352  0.00  0.00    +0.056 C 
ATOM     13  C   UNL     1      34.551 -16.760 -23.643  0.00  0.00    +0.087 C 
ATOM     14  C   UNL     1      33.729 -18.670 -24.360  0.00  0.00    +0.121 C 
ATOM     15  C   UNL     1      33.507 -15.372 -25.449  0.00  0.00    +0.140 C 
ENDBRANCH   5  12
BRANCH   7  16
ATOM     16  S   UNL     1      33.217 -21.702 -19.481  0.00  0.00    -0.051 S 
BRANCH  16  19
ATOM     17  N   UNL     1      33.017 -24.021 -14.007  0.00  0.00    -0.248 NA
ATOM     18  C   UNL     1      34.316 -23.309 -15.908  0.00  0.00    -0.003 C 
ATOM     19  C   UNL     1      33.168 -22.397 -17.842  0.00  0.00    +0.011 C 
ATOM     20  C   UNL     1      33.085 -23.497 -15.245  0.00  0.00    +0.060 C 
ATOM     21  C   UNL     1      34.349 -22.760 -17.200  0.00  0.00    +0.060 C 
ATOM     22  C   UNL     1      31.953 -22.580 -17.196  0.00  0.00    -0.017 C 
ATOM     23  C   UNL     1      31.919 -23.125 -15.911  0.00  0.00    +0.072 C 
ATOM     24  C   UNL     1      35.488 -23.683 -15.238  0.00  0.00    -0.001 C 
ATOM     25  C   UNL     1      35.422 -24.223 -13.962  0.00  0.00    +0.020 C 
ATOM     26  C   UNL     1      34.172 -24.369 -13.396  0.00  0.00    +0.098 C 
ENDBRANCH  16  19
ENDBRANCH   7  16
TORSDOF 3
ENDMDL
MODEL 7
REMARK VINA RESULT:     -10.1      2.696      9.460
REMARK  Name = 24779724
REMARK  3 active torsions:
REMARK  status: ('A' for Active; 'I' for Inactive)
REMARK    1  A    between atoms: C_5  and  C_12
REMARK    2  A    between atoms: C_7  and  S_16
REMARK    3  A    between atoms: S_16  and  C_19
REMARK                            x       y       z     vdW  Elec       q    Type
REMARK                         _______ _______ _______ _____ _____    ______ ____
ROOT
ATOM      1  N   UNL     1      34.473 -17.798 -23.562  0.00  0.00    -0.186 N 
ATOM      2  N   UNL     1      34.438 -16.552 -23.028  0.00  0.00    -0.162 NA
ATOM      3  N   UNL     1      34.157 -19.502 -24.912  0.00  0.00    -0.126 NA
ATOM      4  N   UNL     1      34.916 -19.926 -23.841  0.00  0.00    -0.120 NA
ATOM      5  C   UNL     1      33.776 -15.690 -23.746  0.00  0.00    +0.104 C 
ATOM      6  C   UNL     1      33.896 -18.223 -24.736  0.00  0.00    +0.187 A 
ATOM      7  C   UNL     1      35.094 -18.897 -23.043  0.00  0.00    +0.217 A 
ATOM      8  C   UNL     1      33.082 -16.015 -25.035  0.00  0.00    +0.024 C 
ATOM      9  C   UNL     1      33.171 -17.274 -25.483  0.00  0.00    +0.042 C 
ENDROOT
BRANCH   5  12
ATOM     10  N   UNL     1      33.645 -12.103 -23.194  0.00  0.00    -0.208 N 
ATOM     11  N   UNL     1      33.382 -12.462 -21.926  0.00  0.00    -0.176 NA
ATOM     12  C   UNL     1      33.670 -14.287 -23.270  0.00  0.00    +0.056 C 
ATOM     13  C   UNL     1      33.826 -13.159 -24.039  0.00  0.00    +0.087 C 
ATOM     14  C   UNL     1      33.398 -13.797 -21.978  0.00  0.00    +0.121 C 
ATOM     15  C   UNL     1      33.712 -10.705 -23.544  0.00  0.00    +0.140 C 
ENDBRANCH   5  12
BRANCH   7  16
ATOM     16  S   UNL     1      36.003 -18.883 -21.506  0.00  0.00    -0.051 S 
BRANCH  16  19
ATOM     17  N   UNL     1      32.607 -22.429 -18.148  0.00  0.00    -0.248 NA
ATOM     18  C   UNL     1      34.789 -21.568 -18.700  0.00  0.00    -0.003 C 
ATOM     19  C   UNL     1      34.995 -19.947 -20.495  0.00  0.00    +0.011 C 
ATOM     20  C   UNL     1      33.394 -21.633 -18.896  0.00  0.00    +0.060 C 
ATOM     21  C   UNL     1      35.579 -20.726 -19.499  0.00  0.00    +0.060 C 
ATOM     22  C   UNL     1      33.622 -20.007 -20.694  0.00  0.00    -0.017 C 
ATOM     23  C   UNL     1      32.836 -20.844 -19.899  0.00  0.00    +0.072 C 
ATOM     24  C   UNL     1      35.350 -22.362 -17.691  0.00  0.00    -0.001 C 
ATOM     25  C   UNL     1      34.543 -23.183 -16.918  0.00  0.00    +0.020 C 
ATOM     26  C   UNL     1      33.189 -23.180 -17.185  0.00  0.00    +0.098 C 
ENDBRANCH  16  19
ENDBRANCH   7  16
TORSDOF 3
ENDMDL
MODEL 8
REMARK VINA RESULT:     -10.0      6.074     12.560
REMARK  Name = 24779724
REMARK  3 active torsions:
REMARK  status: ('A' for Active; 'I' for Inactive)
REMARK    1  A    between atoms: C_5  and  C_12
REMARK    2  A    between atoms: C_7  and  S_16
REMARK    3  A    between atoms: S_16  and  C_19
REMARK                            x       y       z     vdW  Elec       q    Type
REMARK                         _______ _______ _______ _____ _____    ______ ____
ROOT
ATOM      1  N   UNL     1      32.529 -11.008 -22.219  0.00  0.00    -0.186 N 
ATOM      2  N   UNL     1      32.994  -9.954 -22.935  0.00  0.00    -0.162 NA
ATOM      3  N   UNL     1      31.528 -12.204 -20.673  0.00  0.00    -0.126 NA
ATOM      4  N   UNL     1      32.104 -13.063 -21.587  0.00  0.00    -0.120 NA
ATOM      5  C   UNL     1      32.674  -8.795 -22.432  0.00  0.00    +0.104 C 
ATOM      6  C   UNL     1      31.789 -10.974 -21.061  0.00  0.00    +0.187 A 
ATOM      7  C   UNL     1      32.699 -12.332 -22.503  0.00  0.00    +0.217 A 
ATOM      8  C   UNL     1      31.888  -8.606 -21.169  0.00  0.00    +0.024 C 
ATOM      9  C   UNL     1      31.473  -9.707 -20.531  0.00  0.00    +0.042 C 
ENDROOT
BRANCH   5  12
ATOM     10  N   UNL     1      33.135  -5.654 -24.195  0.00  0.00    -0.208 N 
ATOM     11  N   UNL     1      34.440  -5.943 -24.055  0.00  0.00    -0.176 NA
ATOM     12  C   UNL     1      33.120  -7.561 -23.129  0.00  0.00    +0.056 C 
ATOM     13  C   UNL     1      32.303  -6.592 -23.658  0.00  0.00    +0.087 C 
ATOM     14  C   UNL     1      34.425  -7.108 -23.403  0.00  0.00    +0.121 C 
ATOM     15  C   UNL     1      32.738  -4.440 -24.868  0.00  0.00    +0.140 C 
ENDBRANCH   5  12
BRANCH   7  16
ATOM     16  S   UNL     1      33.603 -12.929 -23.923  0.00  0.00    -0.051 S 
BRANCH  16  19
ATOM     17  N   UNL     1      35.114 -18.386 -22.103  0.00  0.00    -0.248 NA
ATOM     18  C   UNL     1      34.201 -16.952 -23.810  0.00  0.00    -0.003 C 
ATOM     19  C   UNL     1      34.052 -14.567 -23.388  0.00  0.00    +0.011 C 
ATOM     20  C   UNL     1      34.766 -17.160 -22.534  0.00  0.00    +0.060 C 
ATOM     21  C   UNL     1      33.848 -15.658 -24.228  0.00  0.00    +0.060 C 
ATOM     22  C   UNL     1      34.608 -14.764 -22.131  0.00  0.00    -0.017 C 
ATOM     23  C   UNL     1      34.959 -16.051 -21.715  0.00  0.00    +0.072 C 
ATOM     24  C   UNL     1      34.007 -18.069 -24.634  0.00  0.00    -0.001 C 
ATOM     25  C   UNL     1      34.365 -19.334 -24.193  0.00  0.00    +0.020 C 
ATOM     26  C   UNL     1      34.910 -19.437 -22.929  0.00  0.00    +0.098 C 
ENDBRANCH  16  19
ENDBRANCH   7  16
TORSDOF 3
ENDMDL
MODEL 9
REMARK VINA RESULT:      -9.9      2.724      9.507
REMARK  Name = 24779724
REMARK  3 active torsions:
REMARK  status: ('A' for Active; 'I' for Inactive)
REMARK    1  A    between atoms: C_5  and  C_12
REMARK    2  A    between atoms: C_7  and  S_16
REMARK    3  A    between atoms: S_16  and  C_19
REMARK                            x       y       z     vdW  Elec       q    Type
REMARK                         _______ _______ _______ _____ _____    ______ ____
ROOT
ATOM      1  N   UNL     1      34.577 -17.541 -23.587  0.00  0.00    -0.186 N 
ATOM      2  N   UNL     1      34.549 -16.244 -23.191  0.00  0.00    -0.162 NA
ATOM      3  N   UNL     1      34.161 -19.403 -24.675  0.00  0.00    -0.126 NA
ATOM      4  N   UNL     1      35.106 -19.665 -23.704  0.00  0.00    -0.120 NA
ATOM      5  C   UNL     1      33.727 -15.503 -23.879  0.00  0.00    +0.104 C 
ATOM      6  C   UNL     1      33.850 -18.126 -24.597  0.00  0.00    +0.187 A 
ATOM      7  C   UNL     1      35.342 -18.543 -23.062  0.00  0.00    +0.217 A 
ATOM      8  C   UNL     1      32.859 -16.007 -24.993  0.00  0.00    +0.024 C 
ATOM      9  C   UNL     1      32.957 -17.304 -25.311  0.00  0.00    +0.042 C 
ENDROOT
BRANCH   5  12
ATOM     10  N   UNL     1      33.789 -11.883 -23.595  0.00  0.00    -0.208 N 
ATOM     11  N   UNL     1      33.059 -12.110 -22.489  0.00  0.00    -0.176 NA
ATOM     12  C   UNL     1      33.608 -14.060 -23.545  0.00  0.00    +0.056 C 
ATOM     13  C   UNL     1      34.143 -13.018 -24.263  0.00  0.00    +0.087 C 
ATOM     14  C   UNL     1      32.952 -13.440 -22.464  0.00  0.00    +0.121 C 
ATOM     15  C   UNL     1      34.122 -10.529 -23.969  0.00  0.00    +0.140 C 
ENDBRANCH   5  12
BRANCH   7  16
ATOM     16  S   UNL     1      36.480 -18.308 -21.706  0.00  0.00    -0.051 S 
BRANCH  16  19
ATOM     17  N   UNL     1      34.862 -22.684 -18.016  0.00  0.00    -0.248 NA
ATOM     18  C   UNL     1      34.239 -20.920 -19.535  0.00  0.00    -0.003 C 
ATOM     19  C   UNL     1      35.985 -19.616 -20.604  0.00  0.00    +0.011 C 
ATOM     20  C   UNL     1      35.207 -21.690 -18.855  0.00  0.00    +0.060 C 
ATOM     21  C   UNL     1      34.635 -19.890 -20.404  0.00  0.00    +0.060 C 
ATOM     22  C   UNL     1      36.943 -20.370 -19.938  0.00  0.00    -0.017 C 
ATOM     23  C   UNL     1      36.550 -21.394 -19.074  0.00  0.00    +0.072 C 
ATOM     24  C   UNL     1      32.888 -21.218 -19.315  0.00  0.00    -0.001 C 
ATOM     25  C   UNL     1      32.529 -22.242 -18.451  0.00  0.00    +0.020 C 
ATOM     26  C   UNL     1      33.547 -22.939 -17.831  0.00  0.00    +0.098 C 
ENDBRANCH  16  19
ENDBRANCH   7  16
TORSDOF 3
ENDMDL
