MODEL 1
REMARK VINA RESULT:     -12.2      0.000      0.000
REMARK  Name = 445480
REMARK  5 active torsions:
REMARK  status: ('A' for Active; 'I' for Inactive)
REMARK    1  A    between atoms: N_2  and  C_21
REMARK    2  A    between atoms: C_3  and  N_7
REMARK    3  A    between atoms: N_7  and  S_9
REMARK    4  A    between atoms: S_9  and  C_14
REMARK    5  A    between atoms: C_21  and  C_24
REMARK                            x       y       z     vdW  Elec       q    Type
REMARK                         _______ _______ _______ _____ _____    ______ ____
ROOT
ATOM      1  O   UNL     1      36.513 -21.092 -19.514  0.00  0.00    -0.273 OA
ATOM      2  N   UNL     1      35.062 -19.856 -20.892  0.00  0.00    -0.274 N 
ATOM      3  C   UNL     1      34.120 -21.513 -19.551  0.00  0.00    +0.153 C 
ATOM      4  C   UNL     1      33.035 -20.538 -19.994  0.00  0.00    +0.048 C 
ATOM      5  C   UNL     1      33.650 -19.845 -21.195  0.00  0.00    +0.096 C 
ATOM      6  C   UNL     1      35.401 -20.819 -19.941  0.00  0.00    +0.242 C 
ENDROOT
BRANCH   3   7
ATOM      7  N   UNL     1      34.093 -21.706 -18.097  0.00  0.00    -0.171 NA
ATOM      8  H   UNL     1      35.062 -21.780 -17.783  0.00  0.00    +0.149 HD
BRANCH   7   9
ATOM      9  S   UNL     1      33.253 -23.066 -17.478  0.00  0.00    +0.066 S 
ATOM     10  O   UNL     1      33.601 -24.239 -18.258  0.00  0.00    -0.152 OA
ATOM     11  O   UNL     1      31.869 -22.702 -17.243  0.00  0.00    -0.152 OA
BRANCH   9  14
ATOM     12  S   UNL     1      35.505 -22.900 -15.628  0.00  0.00    -0.066 S 
ATOM     13  N   UNL     1      33.987 -24.453 -12.400  0.00  0.00    -0.243 NA
ATOM     14  C   UNL     1      33.893 -23.379 -15.833  0.00  0.00    +0.153 C 
ATOM     15  C   UNL     1      33.330 -23.924 -14.732  0.00  0.00    +0.046 C 
ATOM     16  C   UNL     1      34.252 -23.963 -13.643  0.00  0.00    +0.089 C 
ATOM     17  C   UNL     1      35.494 -23.431 -13.993  0.00  0.00    +0.048 C 
ATOM     18  C   UNL     1      36.529 -23.384 -13.049  0.00  0.00    +0.010 C 
ATOM     19  C   UNL     1      36.265 -23.883 -11.780  0.00  0.00    +0.021 C 
ATOM     20  C   UNL     1      35.006 -24.393 -11.519  0.00  0.00    +0.099 C 
ENDBRANCH   9  14
ENDBRANCH   7   9
ENDBRANCH   3   7
BRANCH   2  21
ATOM     21  C   UNL     1      35.999 -19.027 -21.617  0.00  0.00    +0.120 C 
BRANCH  21  24
ATOM     22  N   UNL     1      33.537 -13.847 -23.961  0.00  0.00    -0.230 NA
ATOM     23  N   UNL     1      34.645 -14.047 -21.893  0.00  0.00    -0.343 N 
ATOM     24  C   UNL     1      35.278 -18.171 -22.622  0.00  0.00    -0.002 C 
ATOM     25  C   UNL     1      35.084 -16.822 -22.359  0.00  0.00    +0.000 C 
ATOM     26  C   UNL     1      34.815 -18.741 -23.798  0.00  0.00    -0.003 C 
ATOM     27  C   UNL     1      34.410 -16.017 -23.291  0.00  0.00    +0.031 C 
ATOM     28  C   UNL     1      33.933 -16.584 -24.492  0.00  0.00    +0.004 C 
ATOM     29  C   UNL     1      34.143 -17.952 -24.732  0.00  0.00    -0.000 C 
ATOM     30  C   UNL     1      34.181 -14.655 -23.088  0.00  0.00    +0.125 C 
ATOM     31  C   UNL     1      33.263 -15.765 -25.409  0.00  0.00    +0.021 C 
ATOM     32  C   UNL     1      33.096 -14.424 -25.098  0.00  0.00    +0.100 C 
ATOM     33  H   UNL     1      34.491 -13.088 -21.736  0.00  0.00    +0.144 HD
ATOM     34  H   UNL     1      35.121 -14.586 -21.220  0.00  0.00    +0.144 HD
ENDBRANCH  21  24
ENDBRANCH   2  21
TORSDOF 5
ENDMDL
MODEL 2
REMARK VINA RESULT:     -12.0      0.964      1.720
REMARK  Name = 445480
REMARK  5 active torsions:
REMARK  status: ('A' for Active; 'I' for Inactive)
REMARK    1  A    between atoms: N_2  and  C_21
REMARK    2  A    between atoms: C_3  and  N_7
REMARK    3  A    between atoms: N_7  and  S_9
REMARK    4  A    between atoms: S_9  and  C_14
REMARK    5  A    between atoms: C_21  and  C_24
REMARK                            x       y       z     vdW  Elec       q    Type
REMARK                         _______ _______ _______ _____ _____    ______ ____
ROOT
ATOM      1  O   UNL     1      36.679 -20.722 -19.774  0.00  0.00    -0.273 OA
ATOM      2  N   UNL     1      35.077 -19.642 -21.114  0.00  0.00    -0.274 N 
ATOM      3  C   UNL     1      34.352 -21.424 -19.798  0.00  0.00    +0.153 C 
ATOM      4  C   UNL     1      33.155 -20.577 -20.213  0.00  0.00    +0.048 C 
ATOM      5  C   UNL     1      33.670 -19.793 -21.405  0.00  0.00    +0.096 C 
ATOM      6  C   UNL     1      35.538 -20.575 -20.186  0.00  0.00    +0.242 C 
ENDROOT
BRANCH   3   7
ATOM      7  N   UNL     1      34.365 -21.645 -18.348  0.00  0.00    -0.171 NA
ATOM      8  H   UNL     1      35.331 -21.836 -18.078  0.00  0.00    +0.149 HD
BRANCH   7   9
ATOM      9  S   UNL     1      33.401 -22.914 -17.717  0.00  0.00    +0.066 S 
ATOM     10  O   UNL     1      33.667 -24.132 -18.459  0.00  0.00    -0.152 OA
ATOM     11  O   UNL     1      32.048 -22.431 -17.524  0.00  0.00    -0.152 OA
BRANCH   9  14
ATOM     12  S   UNL     1      35.594 -22.803 -15.793  0.00  0.00    -0.066 S 
ATOM     13  N   UNL     1      33.923 -24.291 -12.610  0.00  0.00    -0.243 NA
ATOM     14  C   UNL     1      33.976 -23.236 -16.049  0.00  0.00    +0.153 C 
ATOM     15  C   UNL     1      33.361 -23.758 -14.965  0.00  0.00    +0.046 C 
ATOM     16  C   UNL     1      34.244 -23.817 -13.845  0.00  0.00    +0.089 C 
ATOM     17  C   UNL     1      35.512 -23.323 -14.156  0.00  0.00    +0.048 C 
ATOM     18  C   UNL     1      36.516 -23.301 -13.178  0.00  0.00    +0.010 C 
ATOM     19  C   UNL     1      36.195 -23.784 -11.916  0.00  0.00    +0.021 C 
ATOM     20  C   UNL     1      34.913 -24.255 -11.696  0.00  0.00    +0.099 C 
ENDBRANCH   9  14
ENDBRANCH   7   9
ENDBRANCH   3   7
BRANCH   2  21
ATOM     21  C   UNL     1      35.901 -18.694 -21.831  0.00  0.00    +0.120 C 
BRANCH  21  24
ATOM     22  N   UNL     1      33.251 -13.682 -24.328  0.00  0.00    -0.230 NA
ATOM     23  N   UNL     1      34.027 -15.571 -25.498  0.00  0.00    -0.343 N 
ATOM     24  C   UNL     1      35.252 -17.338 -21.848  0.00  0.00    -0.002 C 
ATOM     25  C   UNL     1      34.860 -16.781 -23.058  0.00  0.00    +0.000 C 
ATOM     26  C   UNL     1      35.055 -16.660 -20.655  0.00  0.00    -0.003 C 
ATOM     27  C   UNL     1      34.254 -15.514 -23.082  0.00  0.00    +0.031 C 
ATOM     28  C   UNL     1      34.047 -14.813 -21.875  0.00  0.00    +0.004 C 
ATOM     29  C   UNL     1      34.454 -15.400 -20.666  0.00  0.00    -0.000 C 
ATOM     30  C   UNL     1      33.837 -14.898 -24.263  0.00  0.00    +0.125 C 
ATOM     31  C   UNL     1      33.442 -13.551 -21.920  0.00  0.00    +0.021 C 
ATOM     32  C   UNL     1      33.069 -13.041 -23.153  0.00  0.00    +0.100 C 
ATOM     33  H   UNL     1      33.738 -15.149 -26.339  0.00  0.00    +0.144 HD
ATOM     34  H   UNL     1      34.449 -16.461 -25.513  0.00  0.00    +0.144 HD
ENDBRANCH  21  24
ENDBRANCH   2  21
TORSDOF 5
ENDMDL
MODEL 3
REMARK VINA RESULT:     -11.8      2.744     10.619
REMARK  Name = 445480
REMARK  5 active torsions:
REMARK  status: ('A' for Active; 'I' for Inactive)
REMARK    1  A    between atoms: N_2  and  C_21
REMARK    2  A    between atoms: C_3  and  N_7
REMARK    3  A    between atoms: N_7  and  S_9
REMARK    4  A    between atoms: S_9  and  C_14
REMARK    5  A    between atoms: C_21  and  C_24
REMARK                            x       y       z     vdW  Elec       q    Type
REMARK                         _______ _______ _______ _____ _____    ______ ____
ROOT
ATOM      1  O   UNL     1      32.341 -20.531 -19.884  0.00  0.00    -0.273 OA
ATOM      2  N   UNL     1      33.771 -21.938 -18.657  0.00  0.00    -0.274 N 
ATOM      3  C   UNL     1      34.694 -20.765 -20.447  0.00  0.00    +0.153 C 
ATOM      4  C   UNL     1      35.806 -21.230 -19.515  0.00  0.00    +0.048 C 
ATOM      5  C   UNL     1      35.157 -22.342 -18.713  0.00  0.00    +0.096 C 
ATOM      6  C   UNL     1      33.436 -21.021 -19.654  0.00  0.00    +0.242 C 
ENDROOT
BRANCH   3   7
ATOM      7  N   UNL     1      34.807 -19.330 -20.731  0.00  0.00    -0.171 NA
ATOM      8  H   UNL     1      33.860 -18.955 -20.782  0.00  0.00    +0.149 HD
BRANCH   7   9
ATOM      9  S   UNL     1      35.622 -18.852 -22.162  0.00  0.00    +0.066 S 
ATOM     10  O   UNL     1      35.203 -19.705 -23.258  0.00  0.00    -0.152 OA
ATOM     11  O   UNL     1      37.025 -18.646 -21.862  0.00  0.00    -0.152 OA
BRANCH   9  14
ATOM     12  S   UNL     1      34.465 -17.078 -24.171  0.00  0.00    -0.066 S 
ATOM     13  N   UNL     1      34.208 -13.729 -22.208  0.00  0.00    -0.243 NA
ATOM     14  C   UNL     1      35.033 -17.211 -22.581  0.00  0.00    +0.153 C 
ATOM     15  C   UNL     1      34.960 -16.066 -21.866  0.00  0.00    +0.046 C 
ATOM     16  C   UNL     1      34.410 -15.004 -22.643  0.00  0.00    +0.089 C 
ATOM     17  C   UNL     1      34.090 -15.417 -23.937  0.00  0.00    +0.048 C 
ATOM     18  C   UNL     1      33.535 -14.506 -24.848  0.00  0.00    +0.010 C 
ATOM     19  C   UNL     1      33.327 -13.205 -24.409  0.00  0.00    +0.021 C 
ATOM     20  C   UNL     1      33.674 -12.882 -23.110  0.00  0.00    +0.099 C 
ENDBRANCH   9  14
ENDBRANCH   7   9
ENDBRANCH   3   7
BRANCH   2  21
ATOM     21  C   UNL     1      32.842 -22.544 -17.729  0.00  0.00    +0.120 C 
BRANCH  21  24
ATOM     22  N   UNL     1      37.644 -23.426 -13.916  0.00  0.00    -0.230 NA
ATOM     23  N   UNL     1      37.757 -22.650 -16.136  0.00  0.00    -0.343 N 
ATOM     24  C   UNL     1      33.542 -22.920 -16.452  0.00  0.00    -0.002 C 
ATOM     25  C   UNL     1      34.925 -22.822 -16.374  0.00  0.00    +0.000 C 
ATOM     26  C   UNL     1      32.797 -23.361 -15.368  0.00  0.00    -0.003 C 
ATOM     27  C   UNL     1      35.586 -23.173 -15.185  0.00  0.00    +0.031 C 
ATOM     28  C   UNL     1      34.840 -23.623 -14.075  0.00  0.00    +0.004 C 
ATOM     29  C   UNL     1      33.442 -23.712 -14.182  0.00  0.00    -0.000 C 
ATOM     30  C   UNL     1      36.972 -23.098 -15.042  0.00  0.00    +0.125 C 
ATOM     31  C   UNL     1      35.517 -23.968 -12.900  0.00  0.00    +0.021 C 
ATOM     32  C   UNL     1      36.898 -23.852 -12.874  0.00  0.00    +0.100 C 
ATOM     33  H   UNL     1      38.736 -22.593 -16.049  0.00  0.00    +0.144 HD
ATOM     34  H   UNL     1      37.322 -22.397 -16.982  0.00  0.00    +0.144 HD
ENDBRANCH  21  24
ENDBRANCH   2  21
TORSDOF 5
ENDMDL
MODEL 4
REMARK VINA RESULT:     -11.8      2.943     10.636
REMARK  Name = 445480
REMARK  5 active torsions:
REMARK  status: ('A' for Active; 'I' for Inactive)
REMARK    1  A    between atoms: N_2  and  C_21
REMARK    2  A    between atoms: C_3  and  N_7
REMARK    3  A    between atoms: N_7  and  S_9
REMARK    4  A    between atoms: S_9  and  C_14
REMARK    5  A    between atoms: C_21  and  C_24
REMARK                            x       y       z     vdW  Elec       q    Type
REMARK                         _______ _______ _______ _____ _____    ______ ____
ROOT
ATOM      1  O   UNL     1      36.139 -21.117 -19.812  0.00  0.00    -0.273 OA
ATOM      2  N   UNL     1      34.025 -21.929 -19.177  0.00  0.00    -0.274 N 
ATOM      3  C   UNL     1      34.102 -19.875 -20.275  0.00  0.00    +0.153 C 
ATOM      4  C   UNL     1      32.692 -20.447 -20.363  0.00  0.00    +0.048 C 
ATOM      5  C   UNL     1      32.655 -21.475 -19.248  0.00  0.00    +0.096 C 
ATOM      6  C   UNL     1      34.921 -21.030 -19.755  0.00  0.00    +0.242 C 
ENDROOT
BRANCH   3   7
ATOM      7  N   UNL     1      34.596 -19.485 -21.600  0.00  0.00    -0.171 NA
ATOM      8  H   UNL     1      35.062 -20.299 -22.003  0.00  0.00    +0.149 HD
BRANCH   7   9
ATOM      9  S   UNL     1      35.694 -18.171 -21.697  0.00  0.00    +0.066 S 
ATOM     10  O   UNL     1      36.932 -18.626 -22.302  0.00  0.00    -0.152 OA
ATOM     11  O   UNL     1      35.691 -17.456 -20.436  0.00  0.00    -0.152 OA
BRANCH   9  14
ATOM     12  S   UNL     1      34.638 -15.489 -22.160  0.00  0.00    -0.066 S 
ATOM     13  N   UNL     1      33.785 -15.624 -25.953  0.00  0.00    -0.243 NA
ATOM     14  C   UNL     1      35.002 -16.990 -22.855  0.00  0.00    +0.153 C 
ATOM     15  C   UNL     1      34.719 -17.076 -24.175  0.00  0.00    +0.046 C 
ATOM     16  C   UNL     1      34.171 -15.855 -24.668  0.00  0.00    +0.089 C 
ATOM     17  C   UNL     1      34.068 -14.888 -23.666  0.00  0.00    +0.048 C 
ATOM     18  C   UNL     1      33.550 -13.620 -23.965  0.00  0.00    +0.010 C 
ATOM     19  C   UNL     1      33.154 -13.380 -25.274  0.00  0.00    +0.021 C 
ATOM     20  C   UNL     1      33.291 -14.395 -26.203  0.00  0.00    +0.099 C 
ENDBRANCH   9  14
ENDBRANCH   7   9
ENDBRANCH   3   7
BRANCH   2  21
ATOM     21  C   UNL     1      34.388 -23.132 -18.460  0.00  0.00    +0.120 C 
BRANCH  21  24
ATOM     22  N   UNL     1      29.728 -23.060 -14.379  0.00  0.00    -0.230 NA
ATOM     23  N   UNL     1      29.524 -22.959 -16.722  0.00  0.00    -0.343 N 
ATOM     24  C   UNL     1      33.738 -23.154 -17.105  0.00  0.00    -0.002 C 
ATOM     25  C   UNL     1      32.354 -23.089 -17.007  0.00  0.00    +0.000 C 
ATOM     26  C   UNL     1      34.529 -23.238 -15.969  0.00  0.00    -0.003 C 
ATOM     27  C   UNL     1      31.740 -23.108 -15.743  0.00  0.00    +0.031 C 
ATOM     28  C   UNL     1      32.533 -23.192 -14.579  0.00  0.00    +0.004 C 
ATOM     29  C   UNL     1      33.931 -23.257 -14.708  0.00  0.00    -0.000 C 
ATOM     30  C   UNL     1      30.356 -23.045 -15.576  0.00  0.00    +0.125 C 
ATOM     31  C   UNL     1      31.902 -23.209 -13.330  0.00  0.00    +0.021 C 
ATOM     32  C   UNL     1      30.519 -23.142 -13.287  0.00  0.00    +0.100 C 
ATOM     33  H   UNL     1      28.546 -22.914 -16.619  0.00  0.00    +0.144 HD
ATOM     34  H   UNL     1      29.926 -22.945 -17.621  0.00  0.00    +0.144 HD
ENDBRANCH  21  24
ENDBRANCH   2  21
TORSDOF 5
ENDMDL
MODEL 5
REMARK VINA RESULT:     -11.4      2.599     10.931
REMARK  Name = 445480
REMARK  5 active torsions:
REMARK  status: ('A' for Active; 'I' for Inactive)
REMARK    1  A    between atoms: N_2  and  C_21
REMARK    2  A    between atoms: C_3  and  N_7
REMARK    3  A    between atoms: N_7  and  S_9
REMARK    4  A    between atoms: S_9  and  C_14
REMARK    5  A    between atoms: C_21  and  C_24
REMARK                            x       y       z     vdW  Elec       q    Type
REMARK                         _______ _______ _______ _____ _____    ______ ____
ROOT
ATOM      1  O   UNL     1      32.320 -20.577 -19.918  0.00  0.00    -0.273 OA
ATOM      2  N   UNL     1      33.870 -21.930 -18.778  0.00  0.00    -0.274 N 
ATOM      3  C   UNL     1      34.635 -20.755 -20.639  0.00  0.00    +0.153 C 
ATOM      4  C   UNL     1      35.821 -21.178 -19.781  0.00  0.00    +0.048 C 
ATOM      5  C   UNL     1      35.259 -22.297 -18.924  0.00  0.00    +0.096 C 
ATOM      6  C   UNL     1      33.442 -21.035 -19.758  0.00  0.00    +0.242 C 
ENDROOT
BRANCH   3   7
ATOM      7  N   UNL     1      34.688 -19.321 -20.945  0.00  0.00    -0.171 NA
ATOM      8  H   UNL     1      33.726 -18.992 -21.029  0.00  0.00    +0.149 HD
BRANCH   7   9
ATOM      9  S   UNL     1      35.521 -18.827 -22.360  0.00  0.00    +0.066 S 
ATOM     10  O   UNL     1      35.098 -19.653 -23.476  0.00  0.00    -0.152 OA
ATOM     11  O   UNL     1      36.925 -18.647 -22.047  0.00  0.00    -0.152 OA
BRANCH   9  14
ATOM     12  S   UNL     1      34.353 -17.013 -24.326  0.00  0.00    -0.066 S 
ATOM     13  N   UNL     1      34.221 -13.674 -22.333  0.00  0.00    -0.243 NA
ATOM     14  C   UNL     1      34.959 -17.171 -22.753  0.00  0.00    +0.153 C 
ATOM     15  C   UNL     1      34.930 -16.030 -22.027  0.00  0.00    +0.046 C 
ATOM     16  C   UNL     1      34.384 -14.949 -22.783  0.00  0.00    +0.089 C 
ATOM     17  C   UNL     1      34.022 -15.345 -24.071  0.00  0.00    +0.048 C 
ATOM     18  C   UNL     1      33.465 -14.415 -24.961  0.00  0.00    +0.010 C 
ATOM     19  C   UNL     1      33.298 -13.113 -24.508  0.00  0.00    +0.021 C 
ATOM     20  C   UNL     1      33.684 -12.808 -23.216  0.00  0.00    +0.099 C 
ENDBRANCH   9  14
ENDBRANCH   7   9
ENDBRANCH   3   7
BRANCH   2  21
ATOM     21  C   UNL     1      33.024 -22.550 -17.781  0.00  0.00    +0.120 C 
BRANCH  21  24
ATOM     22  N   UNL     1      33.995 -24.614 -12.022  0.00  0.00    -0.230 NA
ATOM     23  N   UNL     1      31.962 -24.701 -13.205  0.00  0.00    -0.343 N 
ATOM     24  C   UNL     1      33.808 -22.841 -16.531  0.00  0.00    -0.002 C 
ATOM     25  C   UNL     1      33.179 -23.451 -15.455  0.00  0.00    +0.000 C 
ATOM     26  C   UNL     1      35.149 -22.492 -16.469  0.00  0.00    -0.003 C 
ATOM     27  C   UNL     1      33.904 -23.724 -14.283  0.00  0.00    +0.031 C 
ATOM     28  C   UNL     1      35.269 -23.375 -14.206  0.00  0.00    +0.004 C 
ATOM     29  C   UNL     1      35.879 -22.758 -15.310  0.00  0.00    -0.000 C 
ATOM     30  C   UNL     1      33.332 -24.336 -13.166  0.00  0.00    +0.125 C 
ATOM     31  C   UNL     1      35.974 -23.655 -13.030  0.00  0.00    +0.021 C 
ATOM     32  C   UNL     1      35.299 -24.267 -11.985  0.00  0.00    +0.100 C 
ATOM     33  H   UNL     1      31.545 -25.133 -12.424  0.00  0.00    +0.144 HD
ATOM     34  H   UNL     1      31.427 -24.523 -14.012  0.00  0.00    +0.144 HD
ENDBRANCH  21  24
ENDBRANCH   2  21
TORSDOF 5
ENDMDL
MODEL 6
REMARK VINA RESULT:     -11.3      1.209      2.002
REMARK  Name = 445480
REMARK  5 active torsions:
REMARK  status: ('A' for Active; 'I' for Inactive)
REMARK    1  A    between atoms: N_2  and  C_21
REMARK    2  A    between atoms: C_3  and  N_7
REMARK    3  A    between atoms: N_7  and  S_9
REMARK    4  A    between atoms: S_9  and  C_14
REMARK    5  A    between atoms: C_21  and  C_24
REMARK                            x       y       z     vdW  Elec       q    Type
REMARK                         _______ _______ _______ _____ _____    ______ ____
ROOT
ATOM      1  O   UNL     1      36.332 -21.247 -19.731  0.00  0.00    -0.273 OA
ATOM      2  N   UNL     1      34.749 -20.048 -20.991  0.00  0.00    -0.274 N 
ATOM      3  C   UNL     1      33.946 -21.652 -19.504  0.00  0.00    +0.153 C 
ATOM      4  C   UNL     1      32.825 -20.685 -19.865  0.00  0.00    +0.048 C 
ATOM      5  C   UNL     1      33.313 -20.037 -21.147  0.00  0.00    +0.096 C 
ATOM      6  C   UNL     1      35.182 -20.980 -20.049  0.00  0.00    +0.242 C 
ENDROOT
BRANCH   3   7
ATOM      7  N   UNL     1      34.071 -21.796 -18.049  0.00  0.00    -0.171 NA
ATOM      8  H   UNL     1      35.066 -21.869 -17.835  0.00  0.00    +0.149 HD
BRANCH   7   9
ATOM      9  S   UNL     1      33.290 -23.126 -17.299  0.00  0.00    +0.066 S 
ATOM     10  O   UNL     1      33.564 -24.331 -18.060  0.00  0.00    -0.152 OA
ATOM     11  O   UNL     1      31.935 -22.746 -16.952  0.00  0.00    -0.152 OA
BRANCH   9  14
ATOM     12  S   UNL     1      33.059 -24.047 -14.539  0.00  0.00    -0.066 S 
ATOM     13  N   UNL     1      36.642 -23.371 -13.182  0.00  0.00    -0.243 NA
ATOM     14  C   UNL     1      34.081 -23.374 -15.710  0.00  0.00    +0.153 C 
ATOM     15  C   UNL     1      35.337 -23.124 -15.275  0.00  0.00    +0.046 C 
ATOM     16  C   UNL     1      35.496 -23.497 -13.907  0.00  0.00    +0.089 C 
ATOM     17  C   UNL     1      34.320 -24.022 -13.370  0.00  0.00    +0.048 C 
ATOM     18  C   UNL     1      34.285 -24.445 -12.034  0.00  0.00    +0.010 C 
ATOM     19  C   UNL     1      35.450 -24.318 -11.289  0.00  0.00    +0.021 C 
ATOM     20  C   UNL     1      36.571 -23.787 -11.901  0.00  0.00    +0.099 C 
ENDBRANCH   9  14
ENDBRANCH   7   9
ENDBRANCH   3   7
BRANCH   2  21
ATOM     21  C   UNL     1      35.608 -19.250 -21.838  0.00  0.00    +0.120 C 
BRANCH  21  24
ATOM     22  N   UNL     1      33.773 -13.856 -24.271  0.00  0.00    -0.230 NA
ATOM     23  N   UNL     1      34.294 -15.815 -25.469  0.00  0.00    -0.343 N 
ATOM     24  C   UNL     1      35.163 -17.814 -21.837  0.00  0.00    -0.002 C 
ATOM     25  C   UNL     1      34.884 -17.181 -23.041  0.00  0.00    +0.000 C 
ATOM     26  C   UNL     1      35.039 -17.138 -20.632  0.00  0.00    -0.003 C 
ATOM     27  C   UNL     1      34.470 -15.839 -23.048  0.00  0.00    +0.031 C 
ATOM     28  C   UNL     1      34.339 -15.140 -21.830  0.00  0.00    +0.004 C 
ATOM     29  C   UNL     1      34.628 -15.804 -20.626  0.00  0.00    -0.000 C 
ATOM     30  C   UNL     1      34.174 -15.146 -24.223  0.00  0.00    +0.125 C 
ATOM     31  C   UNL     1      33.925 -13.803 -21.858  0.00  0.00    +0.021 C 
ATOM     32  C   UNL     1      33.659 -13.219 -23.086  0.00  0.00    +0.100 C 
ATOM     33  H   UNL     1      34.089 -15.339 -26.305  0.00  0.00    +0.144 HD
ATOM     34  H   UNL     1      34.582 -16.756 -25.496  0.00  0.00    +0.144 HD
ENDBRANCH  21  24
ENDBRANCH   2  21
TORSDOF 5
ENDMDL
MODEL 7
REMARK VINA RESULT:     -11.3      1.945      2.343
REMARK  Name = 445480
REMARK  5 active torsions:
REMARK  status: ('A' for Active; 'I' for Inactive)
REMARK    1  A    between atoms: N_2  and  C_21
REMARK    2  A    between atoms: C_3  and  N_7
REMARK    3  A    between atoms: N_7  and  S_9
REMARK    4  A    between atoms: S_9  and  C_14
REMARK    5  A    between atoms: C_21  and  C_24
REMARK                            x       y       z     vdW  Elec       q    Type
REMARK                         _______ _______ _______ _____ _____    ______ ____
ROOT
ATOM      1  O   UNL     1      36.384 -20.391 -19.675  0.00  0.00    -0.273 OA
ATOM      2  N   UNL     1      35.009 -19.292 -21.235  0.00  0.00    -0.274 N 
ATOM      3  C   UNL     1      34.092 -21.095 -20.078  0.00  0.00    +0.153 C 
ATOM      4  C   UNL     1      32.973 -20.242 -20.663  0.00  0.00    +0.048 C 
ATOM      5  C   UNL     1      33.667 -19.439 -21.747  0.00  0.00    +0.096 C 
ATOM      6  C   UNL     1      35.321 -20.238 -20.260  0.00  0.00    +0.242 C 
ENDROOT
BRANCH   3   7
ATOM      7  N   UNL     1      33.877 -21.340 -18.647  0.00  0.00    -0.171 NA
ATOM      8  H   UNL     1      34.435 -20.656 -18.135  0.00  0.00    +0.149 HD
BRANCH   7   9
ATOM      9  S   UNL     1      34.270 -22.888 -18.025  0.00  0.00    +0.066 S 
ATOM     10  O   UNL     1      35.574 -22.832 -17.391  0.00  0.00    -0.152 OA
ATOM     11  O   UNL     1      33.961 -23.893 -19.024  0.00  0.00    -0.152 OA
BRANCH   9  14
ATOM     12  S   UNL     1      33.844 -23.808 -15.287  0.00  0.00    -0.066 S 
ATOM     13  N   UNL     1      29.977 -23.532 -14.958  0.00  0.00    -0.243 NA
ATOM     14  C   UNL     1      33.110 -23.236 -16.703  0.00  0.00    +0.153 C 
ATOM     15  C   UNL     1      31.765 -23.126 -16.627  0.00  0.00    +0.046 C 
ATOM     16  C   UNL     1      31.283 -23.528 -15.346  0.00  0.00    +0.089 C 
ATOM     17  C   UNL     1      32.319 -23.930 -14.502  0.00  0.00    +0.048 C 
ATOM     18  C   UNL     1      32.037 -24.359 -13.198  0.00  0.00    +0.010 C 
ATOM     19  C   UNL     1      30.707 -24.365 -12.797  0.00  0.00    +0.021 C 
ATOM     20  C   UNL     1      29.744 -23.951 -13.699  0.00  0.00    +0.099 C 
ENDBRANCH   9  14
ENDBRANCH   7   9
ENDBRANCH   3   7
BRANCH   2  21
ATOM     21  C   UNL     1      35.933 -18.331 -21.798  0.00  0.00    +0.120 C 
BRANCH  21  24
ATOM     22  N   UNL     1      33.502 -13.217 -24.311  0.00  0.00    -0.230 NA
ATOM     23  N   UNL     1      34.498 -13.382 -22.185  0.00  0.00    -0.343 N 
ATOM     24  C   UNL     1      35.252 -17.496 -22.847  0.00  0.00    -0.002 C 
ATOM     25  C   UNL     1      35.016 -16.150 -22.605  0.00  0.00    +0.000 C 
ATOM     26  C   UNL     1      34.865 -18.084 -24.042  0.00  0.00    -0.003 C 
ATOM     27  C   UNL     1      34.378 -15.364 -23.579  0.00  0.00    +0.031 C 
ATOM     28  C   UNL     1      33.980 -15.949 -24.800  0.00  0.00    +0.004 C 
ATOM     29  C   UNL     1      34.230 -17.314 -25.018  0.00  0.00    -0.000 C 
ATOM     30  C   UNL     1      34.113 -14.006 -23.399  0.00  0.00    +0.125 C 
ATOM     31  C   UNL     1      33.346 -15.149 -25.758  0.00  0.00    +0.021 C 
ATOM     32  C   UNL     1      33.135 -13.811 -25.467  0.00  0.00    +0.100 C 
ATOM     33  H   UNL     1      34.316 -12.425 -22.043  0.00  0.00    +0.144 HD
ATOM     34  H   UNL     1      34.947 -13.907 -21.483  0.00  0.00    +0.144 HD
ENDBRANCH  21  24
ENDBRANCH   2  21
TORSDOF 5
ENDMDL
MODEL 8
REMARK VINA RESULT:     -11.2      4.283      6.835
REMARK  Name = 445480
REMARK  5 active torsions:
REMARK  status: ('A' for Active; 'I' for Inactive)
REMARK    1  A    between atoms: N_2  and  C_21
REMARK    2  A    between atoms: C_3  and  N_7
REMARK    3  A    between atoms: N_7  and  S_9
REMARK    4  A    between atoms: S_9  and  C_14
REMARK    5  A    between atoms: C_21  and  C_24
REMARK                            x       y       z     vdW  Elec       q    Type
REMARK                         _______ _______ _______ _____ _____    ______ ____
ROOT
ATOM      1  O   UNL     1      34.018 -14.295 -20.757  0.00  0.00    -0.273 OA
ATOM      2  N   UNL     1      33.236 -14.108 -22.967  0.00  0.00    -0.274 N 
ATOM      3  C   UNL     1      34.901 -15.682 -22.546  0.00  0.00    +0.153 C 
ATOM      4  C   UNL     1      34.208 -16.013 -23.862  0.00  0.00    +0.048 C 
ATOM      5  C   UNL     1      33.532 -14.711 -24.245  0.00  0.00    +0.096 C 
ATOM      6  C   UNL     1      34.012 -14.629 -21.932  0.00  0.00    +0.242 C 
ENDROOT
BRANCH   3   7
ATOM      7  N   UNL     1      34.948 -16.854 -21.664  0.00  0.00    -0.171 NA
ATOM      8  H   UNL     1      35.778 -16.760 -21.078  0.00  0.00    +0.149 HD
BRANCH   7   9
ATOM      9  S   UNL     1      35.011 -18.407 -22.388  0.00  0.00    +0.066 S 
ATOM     10  O   UNL     1      36.377 -18.695 -22.785  0.00  0.00    -0.152 OA
ATOM     11  O   UNL     1      33.911 -18.539 -23.324  0.00  0.00    -0.152 OA
BRANCH   9  14
ATOM     12  S   UNL     1      35.987 -20.207 -20.307  0.00  0.00    -0.066 S 
ATOM     13  N   UNL     1      32.668 -21.725 -18.961  0.00  0.00    -0.243 NA
ATOM     14  C   UNL     1      34.623 -19.602 -21.109  0.00  0.00    +0.153 C 
ATOM     15  C   UNL     1      33.449 -20.106 -20.669  0.00  0.00    +0.046 C 
ATOM     16  C   UNL     1      33.651 -21.045 -19.613  0.00  0.00    +0.089 C 
ATOM     17  C   UNL     1      35.004 -21.202 -19.308  0.00  0.00    +0.048 C 
ATOM     18  C   UNL     1      35.397 -22.086 -18.293  0.00  0.00    +0.010 C 
ATOM     19  C   UNL     1      34.398 -22.782 -17.625  0.00  0.00    +0.021 C 
ATOM     20  C   UNL     1      33.083 -22.566 -17.992  0.00  0.00    +0.099 C 
ENDBRANCH   9  14
ENDBRANCH   7   9
ENDBRANCH   3   7
BRANCH   2  21
ATOM     21  C   UNL     1      32.316 -12.998 -22.848  0.00  0.00    +0.120 C 
BRANCH  21  24
ATOM     22  N   UNL     1      33.484  -6.944 -22.239  0.00  0.00    -0.230 NA
ATOM     23  N   UNL     1      31.784  -8.149 -21.141  0.00  0.00    -0.343 N 
ATOM     24  C   UNL     1      33.026 -11.696 -23.096  0.00  0.00    -0.002 C 
ATOM     25  C   UNL     1      32.599 -10.547 -22.442  0.00  0.00    +0.000 C 
ATOM     26  C   UNL     1      34.097 -11.658 -23.976  0.00  0.00    -0.003 C 
ATOM     27  C   UNL     1      33.256  -9.327 -22.670  0.00  0.00    +0.031 C 
ATOM     28  C   UNL     1      34.347  -9.274 -23.563  0.00  0.00    +0.004 C 
ATOM     29  C   UNL     1      34.757 -10.451 -24.211  0.00  0.00    -0.000 C 
ATOM     30  C   UNL     1      32.877  -8.137 -22.046  0.00  0.00    +0.125 C 
ATOM     31  C   UNL     1      34.989  -8.049 -23.777  0.00  0.00    +0.021 C 
ATOM     32  C   UNL     1      34.524  -6.932 -23.099  0.00  0.00    +0.100 C 
ATOM     33  H   UNL     1      31.506  -7.318 -20.694  0.00  0.00    +0.144 HD
ATOM     34  H   UNL     1      31.304  -8.990 -20.961  0.00  0.00    +0.144 HD
ENDBRANCH  21  24
ENDBRANCH   2  21
TORSDOF 5
ENDMDL
MODEL 9
REMARK VINA RESULT:     -11.1      5.904     11.763
REMARK  Name = 445480
REMARK  5 active torsions:
REMARK  status: ('A' for Active; 'I' for Inactive)
REMARK    1  A    between atoms: N_2  and  C_21
REMARK    2  A    between atoms: C_3  and  N_7
REMARK    3  A    between atoms: N_7  and  S_9
REMARK    4  A    between atoms: S_9  and  C_14
REMARK    5  A    between atoms: C_21  and  C_24
REMARK                            x       y       z     vdW  Elec       q    Type
REMARK                         _______ _______ _______ _____ _____    ______ ____
ROOT
ATOM      1  O   UNL     1      33.402 -14.385 -24.146  0.00  0.00    -0.273 OA
ATOM      2  N   UNL     1      34.405 -15.595 -22.396  0.00  0.00    -0.274 N 
ATOM      3  C   UNL     1      33.394 -13.565 -21.858  0.00  0.00    +0.153 C 
ATOM      4  C   UNL     1      33.560 -14.403 -20.596  0.00  0.00    +0.048 C 
ATOM      5  C   UNL     1      34.620 -15.418 -20.979  0.00  0.00    +0.096 C 
ATOM      6  C   UNL     1      33.699 -14.538 -22.971  0.00  0.00    +0.242 C 
ENDROOT
BRANCH   3   7
ATOM      7  N   UNL     1      32.015 -13.085 -21.996  0.00  0.00    -0.171 NA
ATOM      8  H   UNL     1      31.851 -12.910 -22.988  0.00  0.00    +0.149 HD
BRANCH   7   9
ATOM      9  S   UNL     1      31.566 -11.664 -21.148  0.00  0.00    +0.066 S 
ATOM     10  O   UNL     1      32.099 -11.724 -19.799  0.00  0.00    -0.152 OA
ATOM     11  O   UNL     1      30.164 -11.388 -21.392  0.00  0.00    -0.152 OA
BRANCH   9  14
ATOM     12  S   UNL     1      31.830  -8.773 -21.457  0.00  0.00    -0.066 S 
ATOM     13  N   UNL     1      34.728  -8.522 -24.041  0.00  0.00    -0.243 NA
ATOM     14  C   UNL     1      32.410 -10.292 -21.934  0.00  0.00    +0.153 C 
ATOM     15  C   UNL     1      33.419 -10.246 -22.833  0.00  0.00    +0.046 C 
ATOM     16  C   UNL     1      33.755  -8.899 -23.167  0.00  0.00    +0.089 C 
ATOM     17  C   UNL     1      32.959  -7.980 -22.483  0.00  0.00    +0.048 C 
ATOM     18  C   UNL     1      33.146  -6.604 -22.683  0.00  0.00    +0.010 C 
ATOM     19  C   UNL     1      34.136  -6.213 -23.574  0.00  0.00    +0.021 C 
ATOM     20  C   UNL     1      34.878  -7.192 -24.209  0.00  0.00    +0.099 C 
ENDBRANCH   9  14
ENDBRANCH   7   9
ENDBRANCH   3   7
BRANCH   2  21
ATOM     21  C   UNL     1      34.989 -16.704 -23.118  0.00  0.00    +0.120 C 
BRANCH  21  24
ATOM     22  N   UNL     1      33.867 -21.547 -19.421  0.00  0.00    -0.230 NA
ATOM     23  N   UNL     1      32.261 -20.317 -20.626  0.00  0.00    -0.343 N 
ATOM     24  C   UNL     1      35.318 -17.830 -22.178  0.00  0.00    -0.002 C 
ATOM     25  C   UNL     1      34.298 -18.631 -21.683  0.00  0.00    +0.000 C 
ATOM     26  C   UNL     1      36.638 -18.054 -21.815  0.00  0.00    -0.003 C 
ATOM     27  C   UNL     1      34.597 -19.684 -20.803  0.00  0.00    +0.031 C 
ATOM     28  C   UNL     1      35.936 -19.922 -20.425  0.00  0.00    +0.004 C 
ATOM     29  C   UNL     1      36.949 -19.096 -20.941  0.00  0.00    -0.000 C 
ATOM     30  C   UNL     1      33.619 -20.525 -20.270  0.00  0.00    +0.125 C 
ATOM     31  C   UNL     1      36.214 -20.976 -19.547  0.00  0.00    +0.021 C 
ATOM     32  C   UNL     1      35.159 -21.745 -19.083  0.00  0.00    +0.100 C 
ATOM     33  H   UNL     1      31.561 -20.902 -20.257  0.00  0.00    +0.144 HD
ATOM     34  H   UNL     1      32.020 -19.587 -21.241  0.00  0.00    +0.144 HD
ENDBRANCH  21  24
ENDBRANCH   2  21
TORSDOF 5
ENDMDL
