MODEL 1
REMARK VINA RESULT:     -12.5      0.000      0.000
REMARK  Name = 22479942
REMARK  4 active torsions:
REMARK  status: ('A' for Active; 'I' for Inactive)
REMARK    1  A    between atoms: C_4  and  C_17
REMARK    2  A    between atoms: C_7  and  C_14
REMARK    3  A    between atoms: C_20  and  N_24
REMARK    4  A    between atoms: C_25  and  C_28
REMARK                            x       y       z     vdW  Elec       q    Type
REMARK                         _______ _______ _______ _____ _____    ______ ____
ROOT
ATOM      1  N   UNL     1      30.941 -23.011 -16.654  0.00  0.00    -0.276 N 
ATOM      2  N   UNL     1      31.711 -22.480 -17.620  0.00  0.00    -0.173 NA
ATOM      3  C   UNL     1      32.972 -23.184 -15.845  0.00  0.00    +0.036 A 
ATOM      4  C   UNL     1      32.945 -22.588 -17.124  0.00  0.00    +0.102 A 
ATOM      5  C   UNL     1      31.638 -23.452 -15.561  0.00  0.00    +0.075 A 
ATOM      6  C   UNL     1      33.958 -23.525 -14.904  0.00  0.00    +0.006 C 
ATOM      7  C   UNL     1      33.557 -24.128 -13.704  0.00  0.00    +0.033 C 
ATOM      8  C   UNL     1      31.217 -24.052 -14.372  0.00  0.00    +0.019 C 
ATOM      9  C   UNL     1      32.210 -24.386 -13.446  0.00  0.00    +0.004 C 
ATOM     10  H   UNL     1      29.962 -23.077 -16.727  0.00  0.00    +0.189 HD
ENDROOT
BRANCH   7  14
ATOM     11  N   UNL     1      35.564 -25.359 -12.976  0.00  0.00    -0.218 N 
ATOM     12  N   UNL     1      34.644 -24.051 -11.487  0.00  0.00    -0.206 NA
ATOM     13  N   UNL     1      36.350 -25.519 -11.900  0.00  0.00    -0.157 NA
ATOM     14  C   UNL     1      34.553 -24.485 -12.723  0.00  0.00    +0.149 C 
ATOM     15  C   UNL     1      35.750 -24.706 -11.027  0.00  0.00    +0.218 C 
ATOM     16  H   UNL     1      35.703 -25.816 -13.837  0.00  0.00    +0.176 HD
ENDBRANCH   7  14
BRANCH   4  17
ATOM     17  C   UNL     1      34.074 -22.118 -17.887  0.00  0.00    +0.021 C 
ATOM     18  C   UNL     1      33.868 -21.381 -19.055  0.00  0.00    +0.016 C 
ATOM     19  C   UNL     1      35.370 -22.399 -17.459  0.00  0.00    +0.002 C 
ATOM     20  C   UNL     1      34.960 -20.927 -19.793  0.00  0.00    +0.051 C 
ATOM     21  C   UNL     1      36.463 -21.944 -18.198  0.00  0.00    +0.001 C 
ATOM     22  C   UNL     1      36.258 -21.208 -19.365  0.00  0.00    +0.015 C 
BRANCH  20  24
ATOM     23  O   UNL     1      35.802 -18.166 -20.468  0.00  0.00    -0.266 OA
ATOM     24  N   UNL     1      34.756 -20.189 -20.960  0.00  0.00    -0.278 N 
ATOM     25  C   UNL     1      35.171 -18.874 -21.250  0.00  0.00    +0.284 C 
ATOM     26  H   UNL     1      34.258 -20.649 -21.674  0.00  0.00    +0.155 HD
BRANCH  25  28
ATOM     27  O   UNL     1      34.915 -17.038 -22.815  0.00  0.00    -0.446 OA
ATOM     28  C   UNL     1      34.759 -18.365 -22.569  0.00  0.00    +0.199 C 
ATOM     29  C   UNL     1      34.217 -18.998 -23.663  0.00  0.00    +0.045 C 
ATOM     30  C   UNL     1      34.028 -17.996 -24.645  0.00  0.00    +0.044 C 
ATOM     31  C   UNL     1      34.469 -16.821 -24.080  0.00  0.00    +0.180 C 
ENDBRANCH  25  28
ENDBRANCH  20  24
ENDBRANCH   4  17
TORSDOF 4
ENDMDL
MODEL 2
REMARK VINA RESULT:     -11.9      1.778      2.523
REMARK  Name = 22479942
REMARK  4 active torsions:
REMARK  status: ('A' for Active; 'I' for Inactive)
REMARK    1  A    between atoms: C_4  and  C_17
REMARK    2  A    between atoms: C_7  and  C_14
REMARK    3  A    between atoms: C_20  and  N_24
REMARK    4  A    between atoms: C_25  and  C_28
REMARK                            x       y       z     vdW  Elec       q    Type
REMARK                         _______ _______ _______ _____ _____    ______ ____
ROOT
ATOM      1  N   UNL     1      32.131 -22.627 -17.978  0.00  0.00    -0.276 N 
ATOM      2  N   UNL     1      32.659 -21.870 -18.955  0.00  0.00    -0.173 NA
ATOM      3  C   UNL     1      34.243 -22.458 -17.411  0.00  0.00    +0.036 A 
ATOM      4  C   UNL     1      33.943 -21.770 -18.606  0.00  0.00    +0.102 A 
ATOM      5  C   UNL     1      33.030 -23.013 -17.020  0.00  0.00    +0.075 A 
ATOM      6  C   UNL     1      35.385 -22.674 -16.623  0.00  0.00    +0.006 C 
ATOM      7  C   UNL     1      35.259 -23.448 -15.461  0.00  0.00    +0.033 C 
ATOM      8  C   UNL     1      32.882 -23.787 -15.867  0.00  0.00    +0.019 C 
ATOM      9  C   UNL     1      34.028 -23.993 -15.092  0.00  0.00    +0.004 C 
ATOM     10  H   UNL     1      31.181 -22.883 -17.954  0.00  0.00    +0.189 HD
ENDROOT
BRANCH   7  14
ATOM     11  N   UNL     1      37.630 -24.043 -15.141  0.00  0.00    -0.218 N 
ATOM     12  N   UNL     1      36.497 -23.591 -13.328  0.00  0.00    -0.206 NA
ATOM     13  N   UNL     1      38.538 -24.198 -14.166  0.00  0.00    -0.157 NA
ATOM     14  C   UNL     1      36.420 -23.681 -14.636  0.00  0.00    +0.149 C 
ATOM     15  C   UNL     1      37.802 -23.914 -13.088  0.00  0.00    +0.218 C 
ATOM     16  H   UNL     1      37.816 -24.172 -16.100  0.00  0.00    +0.176 HD
ENDBRANCH   7  14
BRANCH   4  17
ATOM     17  C   UNL     1      34.858 -21.017 -19.428  0.00  0.00    +0.021 C 
ATOM     18  C   UNL     1      34.366 -20.148 -20.403  0.00  0.00    +0.016 C 
ATOM     19  C   UNL     1      36.233 -21.157 -19.248  0.00  0.00    +0.002 C 
ATOM     20  C   UNL     1      35.251 -19.420 -21.198  0.00  0.00    +0.051 C 
ATOM     21  C   UNL     1      37.118 -20.428 -20.043  0.00  0.00    +0.001 C 
ATOM     22  C   UNL     1      36.628 -19.560 -21.018  0.00  0.00    +0.015 C 
BRANCH  20  24
ATOM     23  O   UNL     1      34.688 -19.903 -24.067  0.00  0.00    -0.266 OA
ATOM     24  N   UNL     1      34.761 -18.550 -22.173  0.00  0.00    -0.278 N 
ATOM     25  C   UNL     1      34.504 -18.812 -23.533  0.00  0.00    +0.284 C 
ATOM     26  H   UNL     1      34.569 -17.633 -21.869  0.00  0.00    +0.155 HD
BRANCH  25  28
ATOM     27  O   UNL     1      32.921 -17.829 -25.086  0.00  0.00    -0.446 OA
ATOM     28  C   UNL     1      34.024 -17.658 -24.312  0.00  0.00    +0.199 C 
ATOM     29  C   UNL     1      34.495 -16.371 -24.420  0.00  0.00    +0.045 C 
ATOM     30  C   UNL     1      33.625 -15.707 -25.318  0.00  0.00    +0.044 C 
ATOM     31  C   UNL     1      32.684 -16.637 -25.694  0.00  0.00    +0.180 C 
ENDBRANCH  25  28
ENDBRANCH  20  24
ENDBRANCH   4  17
TORSDOF 4
ENDMDL
MODEL 3
REMARK VINA RESULT:     -10.9      4.859      6.887
REMARK  Name = 22479942
REMARK  4 active torsions:
REMARK  status: ('A' for Active; 'I' for Inactive)
REMARK    1  A    between atoms: C_4  and  C_17
REMARK    2  A    between atoms: C_7  and  C_14
REMARK    3  A    between atoms: C_20  and  N_24
REMARK    4  A    between atoms: C_25  and  C_28
REMARK                            x       y       z     vdW  Elec       q    Type
REMARK                         _______ _______ _______ _____ _____    ______ ____
ROOT
ATOM      1  N   UNL     1      34.102 -23.875 -11.292  0.00  0.00    -0.276 N 
ATOM      2  N   UNL     1      33.292 -23.544 -12.313  0.00  0.00    -0.173 NA
ATOM      3  C   UNL     1      35.360 -24.174 -13.064  0.00  0.00    +0.036 A 
ATOM      4  C   UNL     1      34.061 -23.727 -13.388  0.00  0.00    +0.102 A 
ATOM      5  C   UNL     1      35.358 -24.262 -11.677  0.00  0.00    +0.075 A 
ATOM      6  C   UNL     1      36.525 -24.510 -13.774  0.00  0.00    +0.006 C 
ATOM      7  C   UNL     1      37.651 -24.926 -13.052  0.00  0.00    +0.033 C 
ATOM      8  C   UNL     1      36.469 -24.673 -10.938  0.00  0.00    +0.019 C 
ATOM      9  C   UNL     1      37.621 -25.005 -11.658  0.00  0.00    +0.004 C 
ATOM     10  H   UNL     1      33.817 -23.843 -10.351  0.00  0.00    +0.189 HD
ENDROOT
BRANCH   7  14
ATOM     11  N   UNL     1      39.560 -26.414 -13.516  0.00  0.00    -0.218 N 
ATOM     12  N   UNL     1      39.452 -24.587 -14.709  0.00  0.00    -0.206 NA
ATOM     13  N   UNL     1      40.641 -26.500 -14.307  0.00  0.00    -0.157 NA
ATOM     14  C   UNL     1      38.859 -25.275 -13.761  0.00  0.00    +0.149 C 
ATOM     15  C   UNL     1      40.529 -25.370 -15.010  0.00  0.00    +0.218 C 
ATOM     16  H   UNL     1      39.308 -27.089 -12.845  0.00  0.00    +0.176 HD
ENDBRANCH   7  14
BRANCH   4  17
ATOM     17  C   UNL     1      33.533 -23.472 -14.705  0.00  0.00    +0.021 C 
ATOM     18  C   UNL     1      32.185 -23.149 -14.865  0.00  0.00    +0.016 C 
ATOM     19  C   UNL     1      34.369 -23.548 -15.818  0.00  0.00    +0.002 C 
ATOM     20  C   UNL     1      31.675 -22.902 -16.140  0.00  0.00    +0.051 C 
ATOM     21  C   UNL     1      33.858 -23.301 -17.092  0.00  0.00    +0.001 C 
ATOM     22  C   UNL     1      32.511 -22.978 -17.254  0.00  0.00    +0.015 C 
BRANCH  20  24
ATOM     23  O   UNL     1      29.259 -24.586 -15.799  0.00  0.00    -0.266 OA
ATOM     24  N   UNL     1      30.327 -22.577 -16.302  0.00  0.00    -0.278 N 
ATOM     25  C   UNL     1      29.199 -23.404 -16.131  0.00  0.00    +0.284 C 
ATOM     26  H   UNL     1      30.141 -21.648 -16.570  0.00  0.00    +0.155 HD
BRANCH  25  28
ATOM     27  O   UNL     1      27.524 -22.663 -17.722  0.00  0.00    -0.446 OA
ATOM     28  C   UNL     1      27.905 -22.764 -16.422  0.00  0.00    +0.199 C 
ATOM     29  C   UNL     1      26.951 -22.218 -15.596  0.00  0.00    +0.045 C 
ATOM     30  C   UNL     1      25.917 -21.751 -16.442  0.00  0.00    +0.044 C 
ATOM     31  C   UNL     1      26.314 -22.046 -17.727  0.00  0.00    +0.180 C 
ENDBRANCH  25  28
ENDBRANCH  20  24
ENDBRANCH   4  17
TORSDOF 4
ENDMDL
MODEL 4
REMARK VINA RESULT:     -10.2      6.974     11.285
REMARK  Name = 22479942
REMARK  4 active torsions:
REMARK  status: ('A' for Active; 'I' for Inactive)
REMARK    1  A    between atoms: C_4  and  C_17
REMARK    2  A    between atoms: C_7  and  C_14
REMARK    3  A    between atoms: C_20  and  N_24
REMARK    4  A    between atoms: C_25  and  C_28
REMARK                            x       y       z     vdW  Elec       q    Type
REMARK                         _______ _______ _______ _____ _____    ______ ____
ROOT
ATOM      1  N   UNL     1      33.277 -14.460 -25.373  0.00  0.00    -0.276 N 
ATOM      2  N   UNL     1      32.748 -13.518 -24.573  0.00  0.00    -0.173 NA
ATOM      3  C   UNL     1      33.799 -15.147 -23.356  0.00  0.00    +0.036 A 
ATOM      4  C   UNL     1      33.068 -13.939 -23.348  0.00  0.00    +0.102 A 
ATOM      5  C   UNL     1      33.921 -15.467 -24.703  0.00  0.00    +0.075 A 
ATOM      6  C   UNL     1      34.365 -15.998 -22.392  0.00  0.00    +0.006 C 
ATOM      7  C   UNL     1      35.038 -17.147 -22.828  0.00  0.00    +0.033 C 
ATOM      8  C   UNL     1      34.587 -16.606 -25.159  0.00  0.00    +0.019 C 
ATOM      9  C   UNL     1      35.145 -17.444 -24.189  0.00  0.00    +0.004 C 
ATOM     10  H   UNL     1      33.207 -14.429 -26.354  0.00  0.00    +0.189 HD
ENDROOT
BRANCH   7  14
ATOM     11  N   UNL     1      34.889 -18.838 -21.042  0.00  0.00    -0.218 N 
ATOM     12  N   UNL     1      36.904 -18.208 -21.606  0.00  0.00    -0.206 NA
ATOM     13  N   UNL     1      35.675 -19.563 -20.231  0.00  0.00    -0.157 NA
ATOM     14  C   UNL     1      35.626 -18.036 -21.856  0.00  0.00    +0.149 C 
ATOM     15  C   UNL     1      36.885 -19.145 -20.612  0.00  0.00    +0.218 C 
ATOM     16  H   UNL     1      33.905 -18.883 -21.047  0.00  0.00    +0.176 HD
ENDBRANCH   7  14
BRANCH   4  17
ATOM     17  C   UNL     1      32.669 -13.174 -22.194  0.00  0.00    +0.021 C 
ATOM     18  C   UNL     1      32.281 -11.842 -22.341  0.00  0.00    +0.016 C 
ATOM     19  C   UNL     1      32.669 -13.765 -20.931  0.00  0.00    +0.002 C 
ATOM     20  C   UNL     1      31.894 -11.101 -21.224  0.00  0.00    +0.051 C 
ATOM     21  C   UNL     1      32.282 -13.024 -19.814  0.00  0.00    +0.001 C 
ATOM     22  C   UNL     1      31.894 -11.692 -19.960  0.00  0.00    +0.015 C 
BRANCH  20  24
ATOM     23  O   UNL     1      33.328  -8.828 -22.473  0.00  0.00    -0.266 OA
ATOM     24  N   UNL     1      31.505  -9.769 -21.369  0.00  0.00    -0.278 N 
ATOM     25  C   UNL     1      32.212  -8.709 -21.971  0.00  0.00    +0.284 C 
ATOM     26  H   UNL     1      30.619  -9.541 -21.004  0.00  0.00    +0.155 HD
BRANCH  25  28
ATOM     27  O   UNL     1      31.624  -6.680 -20.777  0.00  0.00    -0.446 OA
ATOM     28  C   UNL     1      31.537  -7.401 -21.926  0.00  0.00    +0.199 C 
ATOM     29  C   UNL     1      30.794  -6.725 -22.865  0.00  0.00    +0.045 C 
ATOM     30  C   UNL     1      30.399  -5.510 -22.255  0.00  0.00    +0.044 C 
ATOM     31  C   UNL     1      30.930  -5.531 -20.986  0.00  0.00    +0.180 C 
ENDBRANCH  25  28
ENDBRANCH  20  24
ENDBRANCH   4  17
TORSDOF 4
ENDMDL
MODEL 5
REMARK VINA RESULT:     -10.1     10.767     16.525
REMARK  Name = 22479942
REMARK  4 active torsions:
REMARK  status: ('A' for Active; 'I' for Inactive)
REMARK    1  A    between atoms: C_4  and  C_17
REMARK    2  A    between atoms: C_7  and  C_14
REMARK    3  A    between atoms: C_20  and  N_24
REMARK    4  A    between atoms: C_25  and  C_28
REMARK                            x       y       z     vdW  Elec       q    Type
REMARK                         _______ _______ _______ _____ _____    ______ ____
ROOT
ATOM      1  N   UNL     1      31.504  -7.670 -20.280  0.00  0.00    -0.276 N 
ATOM      2  N   UNL     1      32.329  -8.585 -20.817  0.00  0.00    -0.173 NA
ATOM      3  C   UNL     1      32.027  -6.810 -22.228  0.00  0.00    +0.036 A 
ATOM      4  C   UNL     1      32.644  -8.058 -22.002  0.00  0.00    +0.102 A 
ATOM      5  C   UNL     1      31.281  -6.580 -21.078  0.00  0.00    +0.075 A 
ATOM      6  C   UNL     1      32.010  -5.857 -23.261  0.00  0.00    +0.006 C 
ATOM      7  C   UNL     1      31.237  -4.701 -23.092  0.00  0.00    +0.033 C 
ATOM      8  C   UNL     1      30.504  -5.435 -20.889  0.00  0.00    +0.019 C 
ATOM      9  C   UNL     1      30.498  -4.496 -21.925  0.00  0.00    +0.004 C 
ATOM     10  H   UNL     1      31.097  -7.775 -19.391  0.00  0.00    +0.189 HD
ENDROOT
BRANCH   7  14
ATOM     11  N   UNL     1      30.150  -2.875 -24.340  0.00  0.00    -0.218 N 
ATOM     12  N   UNL     1      32.137  -3.464 -25.031  0.00  0.00    -0.206 NA
ATOM     13  N   UNL     1      30.370  -2.052 -25.377  0.00  0.00    -0.157 NA
ATOM     14  C   UNL     1      31.204  -3.710 -24.140  0.00  0.00    +0.149 C 
ATOM     15  C   UNL     1      31.586  -2.449 -25.760  0.00  0.00    +0.218 C 
ATOM     16  H   UNL     1      29.331  -2.873 -23.793  0.00  0.00    +0.176 HD
ENDBRANCH   7  14
BRANCH   4  17
ATOM     17  C   UNL     1      33.534  -8.761 -22.892  0.00  0.00    +0.021 C 
ATOM     18  C   UNL     1      33.290 -10.098 -23.208  0.00  0.00    +0.016 C 
ATOM     19  C   UNL     1      34.637  -8.106 -23.436  0.00  0.00    +0.002 C 
ATOM     20  C   UNL     1      34.150 -10.778 -24.070  0.00  0.00    +0.051 C 
ATOM     21  C   UNL     1      35.498  -8.787 -24.298  0.00  0.00    +0.001 C 
ATOM     22  C   UNL     1      35.255 -10.123 -24.615  0.00  0.00    +0.015 C 
BRANCH  20  24
ATOM     23  O   UNL     1      34.379 -13.206 -22.385  0.00  0.00    -0.266 OA
ATOM     24  N   UNL     1      33.907 -12.115 -24.388  0.00  0.00    -0.278 N 
ATOM     25  C   UNL     1      34.026 -13.250 -23.561  0.00  0.00    +0.284 C 
ATOM     26  H   UNL     1      33.613 -12.287 -25.312  0.00  0.00    +0.155 HD
BRANCH  25  28
ATOM     27  O   UNL     1      34.264 -15.662 -23.674  0.00  0.00    -0.446 OA
ATOM     28  C   UNL     1      33.732 -14.535 -24.217  0.00  0.00    +0.199 C 
ATOM     29  C   UNL     1      32.986 -14.842 -25.331  0.00  0.00    +0.045 C 
ATOM     30  C   UNL     1      33.064 -16.247 -25.482  0.00  0.00    +0.044 C 
ATOM     31  C   UNL     1      33.853 -16.699 -24.449  0.00  0.00    +0.180 C 
ENDBRANCH  25  28
ENDBRANCH  20  24
ENDBRANCH   4  17
TORSDOF 4
ENDMDL
MODEL 6
REMARK VINA RESULT:     -10.1     12.190     18.263
REMARK  Name = 22479942
REMARK  4 active torsions:
REMARK  status: ('A' for Active; 'I' for Inactive)
REMARK    1  A    between atoms: C_4  and  C_17
REMARK    2  A    between atoms: C_7  and  C_14
REMARK    3  A    between atoms: C_20  and  N_24
REMARK    4  A    between atoms: C_25  and  C_28
REMARK                            x       y       z     vdW  Elec       q    Type
REMARK                         _______ _______ _______ _____ _____    ______ ____
ROOT
ATOM      1  N   UNL     1      30.246  -3.321 -23.444  0.00  0.00    -0.276 N 
ATOM      2  N   UNL     1      30.323  -4.286 -22.512  0.00  0.00    -0.173 NA
ATOM      3  C   UNL     1      32.027  -4.460 -24.029  0.00  0.00    +0.036 A 
ATOM      4  C   UNL     1      31.407  -4.976 -22.871  0.00  0.00    +0.102 A 
ATOM      5  C   UNL     1      31.240  -3.371 -24.385  0.00  0.00    +0.075 A 
ATOM      6  C   UNL     1      33.148  -4.784 -24.811  0.00  0.00    +0.006 C 
ATOM      7  C   UNL     1      33.436  -3.990 -25.929  0.00  0.00    +0.033 C 
ATOM      8  C   UNL     1      31.509  -2.567 -25.495  0.00  0.00    +0.019 C 
ATOM      9  C   UNL     1      32.628  -2.901 -26.263  0.00  0.00    +0.004 C 
ATOM     10  H   UNL     1      29.537  -2.638 -23.450  0.00  0.00    +0.189 HD
ENDROOT
BRANCH   7  14
ATOM     11  N   UNL     1      34.624  -4.079 -28.086  0.00  0.00    -0.218 N 
ATOM     12  N   UNL     1      35.718  -4.837 -26.353  0.00  0.00    -0.206 NA
ATOM     13  N   UNL     1      35.800  -4.460 -28.608  0.00  0.00    -0.157 NA
ATOM     14  C   UNL     1      34.583  -4.305 -26.746  0.00  0.00    +0.149 C 
ATOM     15  C   UNL     1      36.425  -4.912 -27.518  0.00  0.00    +0.218 C 
ATOM     16  H   UNL     1      33.887  -3.685 -28.607  0.00  0.00    +0.176 HD
ENDBRANCH   7  14
BRANCH   4  17
ATOM     17  C   UNL     1      31.828  -6.115 -22.094  0.00  0.00    +0.021 C 
ATOM     18  C   UNL     1      32.032  -7.347 -22.718  0.00  0.00    +0.016 C 
ATOM     19  C   UNL     1      32.032  -5.986 -20.722  0.00  0.00    +0.002 C 
ATOM     20  C   UNL     1      32.439  -8.449 -21.967  0.00  0.00    +0.051 C 
ATOM     21  C   UNL     1      32.439  -7.089 -19.970  0.00  0.00    +0.001 C 
ATOM     22  C   UNL     1      32.643  -8.320 -20.592  0.00  0.00    +0.015 C 
BRANCH  20  24
ATOM     23  O   UNL     1      34.710  -9.386 -23.625  0.00  0.00    -0.266 OA
ATOM     24  N   UNL     1      32.644  -9.681 -22.589  0.00  0.00    -0.278 N 
ATOM     25  C   UNL     1      33.739 -10.096 -23.373  0.00  0.00    +0.284 C 
ATOM     26  H   UNL     1      31.931 -10.347 -22.462  0.00  0.00    +0.155 HD
BRANCH  25  28
ATOM     27  O   UNL     1      33.343 -12.470 -23.066  0.00  0.00    -0.446 OA
ATOM     28  C   UNL     1      33.633 -11.458 -23.924  0.00  0.00    +0.199 C 
ATOM     29  C   UNL     1      33.775 -11.937 -25.205  0.00  0.00    +0.045 C 
ATOM     30  C   UNL     1      33.559 -13.334 -25.129  0.00  0.00    +0.044 C 
ATOM     31  C   UNL     1      33.299 -13.608 -23.806  0.00  0.00    +0.180 C 
ENDBRANCH  25  28
ENDBRANCH  20  24
ENDBRANCH   4  17
TORSDOF 4
ENDMDL
MODEL 7
REMARK VINA RESULT:     -10.0      3.795     10.702
REMARK  Name = 22479942
REMARK  4 active torsions:
REMARK  status: ('A' for Active; 'I' for Inactive)
REMARK    1  A    between atoms: C_4  and  C_17
REMARK    2  A    between atoms: C_7  and  C_14
REMARK    3  A    between atoms: C_20  and  N_24
REMARK    4  A    between atoms: C_25  and  C_28
REMARK                            x       y       z     vdW  Elec       q    Type
REMARK                         _______ _______ _______ _____ _____    ______ ____
ROOT
ATOM      1  N   UNL     1      32.951 -18.820 -25.292  0.00  0.00    -0.276 N 
ATOM      2  N   UNL     1      33.661 -19.488 -24.367  0.00  0.00    -0.173 NA
ATOM      3  C   UNL     1      33.837 -17.226 -24.075  0.00  0.00    +0.036 A 
ATOM      4  C   UNL     1      34.199 -18.515 -23.629  0.00  0.00    +0.102 A 
ATOM      5  C   UNL     1      33.015 -17.458 -25.172  0.00  0.00    +0.075 A 
ATOM      6  C   UNL     1      34.107 -15.903 -23.684  0.00  0.00    +0.006 C 
ATOM      7  C   UNL     1      33.532 -14.858 -24.420  0.00  0.00    +0.033 C 
ATOM      8  C   UNL     1      32.432 -16.431 -25.918  0.00  0.00    +0.019 C 
ATOM      9  C   UNL     1      32.709 -15.121 -25.517  0.00  0.00    +0.004 C 
ATOM     10  H   UNL     1      32.429 -19.271 -25.994  0.00  0.00    +0.189 HD
ENDROOT
BRANCH   7  14
ATOM     11  N   UNL     1      33.849 -12.468 -24.930  0.00  0.00    -0.218 N 
ATOM     12  N   UNL     1      34.019 -13.035 -22.826  0.00  0.00    -0.206 NA
ATOM     13  N   UNL     1      34.111 -11.303 -24.318  0.00  0.00    -0.157 NA
ATOM     14  C   UNL     1      33.796 -13.492 -24.037  0.00  0.00    +0.149 C 
ATOM     15  C   UNL     1      34.205 -11.700 -23.047  0.00  0.00    +0.218 C 
ATOM     16  H   UNL     1      33.713 -12.568 -25.900  0.00  0.00    +0.176 HD
ENDBRANCH   7  14
BRANCH   4  17
ATOM     17  C   UNL     1      35.046 -18.841 -22.510  0.00  0.00    +0.021 C 
ATOM     18  C   UNL     1      34.583 -19.698 -21.511  0.00  0.00    +0.016 C 
ATOM     19  C   UNL     1      36.328 -18.301 -22.426  0.00  0.00    +0.002 C 
ATOM     20  C   UNL     1      35.403 -20.014 -20.428  0.00  0.00    +0.051 C 
ATOM     21  C   UNL     1      37.149 -18.617 -21.342  0.00  0.00    +0.001 C 
ATOM     22  C   UNL     1      36.687 -19.473 -20.344  0.00  0.00    +0.015 C 
BRANCH  20  24
ATOM     23  O   UNL     1      32.678 -21.073 -19.941  0.00  0.00    -0.266 OA
ATOM     24  N   UNL     1      34.942 -20.871 -19.428  0.00  0.00    -0.278 N 
ATOM     25  C   UNL     1      33.635 -21.358 -19.224  0.00  0.00    +0.284 C 
ATOM     26  H   UNL     1      35.619 -21.177 -18.782  0.00  0.00    +0.155 HD
BRANCH  25  28
ATOM     27  O   UNL     1      32.202 -22.547 -17.669  0.00  0.00    -0.446 OA
ATOM     28  C   UNL     1      33.467 -22.221 -18.043  0.00  0.00    +0.199 C 
ATOM     29  C   UNL     1      34.384 -22.797 -17.196  0.00  0.00    +0.045 C 
ATOM     30  C   UNL     1      33.635 -23.523 -16.239  0.00  0.00    +0.044 C 
ATOM     31  C   UNL     1      32.312 -23.339 -16.571  0.00  0.00    +0.180 C 
ENDBRANCH  25  28
ENDBRANCH  20  24
ENDBRANCH   4  17
TORSDOF 4
ENDMDL
MODEL 8
REMARK VINA RESULT:      -9.9      2.078      4.758
REMARK  Name = 22479942
REMARK  4 active torsions:
REMARK  status: ('A' for Active; 'I' for Inactive)
REMARK    1  A    between atoms: C_4  and  C_17
REMARK    2  A    between atoms: C_7  and  C_14
REMARK    3  A    between atoms: C_20  and  N_24
REMARK    4  A    between atoms: C_25  and  C_28
REMARK                            x       y       z     vdW  Elec       q    Type
REMARK                         _______ _______ _______ _____ _____    ______ ____
ROOT
ATOM      1  N   UNL     1      34.202 -25.009 -11.999  0.00  0.00    -0.276 N 
ATOM      2  N   UNL     1      35.307 -24.584 -12.635  0.00  0.00    -0.173 NA
ATOM      3  C   UNL     1      33.426 -24.163 -13.868  0.00  0.00    +0.036 A 
ATOM      4  C   UNL     1      34.831 -24.071 -13.770  0.00  0.00    +0.102 A 
ATOM      5  C   UNL     1      33.039 -24.786 -12.687  0.00  0.00    +0.075 A 
ATOM      6  C   UNL     1      32.447 -23.797 -14.806  0.00  0.00    +0.006 C 
ATOM      7  C   UNL     1      31.105 -24.075 -14.515  0.00  0.00    +0.033 C 
ATOM      8  C   UNL     1      31.708 -25.072 -12.376  0.00  0.00    +0.019 C 
ATOM      9  C   UNL     1      30.745 -24.702 -13.320  0.00  0.00    +0.004 C 
ATOM     10  H   UNL     1      34.227 -25.442 -11.116  0.00  0.00    +0.189 HD
ENDROOT
BRANCH   7  14
ATOM     11  N   UNL     1      30.095 -22.537 -16.154  0.00  0.00    -0.218 N 
ATOM     12  N   UNL     1      29.024 -24.409 -15.804  0.00  0.00    -0.206 NA
ATOM     13  N   UNL     1      29.034 -22.441 -16.970  0.00  0.00    -0.157 NA
ATOM     14  C   UNL     1      30.082 -23.709 -15.465  0.00  0.00    +0.149 C 
ATOM     15  C   UNL     1      28.418 -23.599 -16.720  0.00  0.00    +0.218 C 
ATOM     16  H   UNL     1      30.793 -21.848 -16.067  0.00  0.00    +0.176 HD
ENDBRANCH   7  14
BRANCH   4  17
ATOM     17  C   UNL     1      35.733 -23.499 -14.739  0.00  0.00    +0.021 C 
ATOM     18  C   UNL     1      35.228 -22.782 -15.824  0.00  0.00    +0.016 C 
ATOM     19  C   UNL     1      37.109 -23.663 -14.591  0.00  0.00    +0.002 C 
ATOM     20  C   UNL     1      36.100 -22.229 -16.761  0.00  0.00    +0.051 C 
ATOM     21  C   UNL     1      37.982 -23.110 -15.529  0.00  0.00    +0.001 C 
ATOM     22  C   UNL     1      37.478 -22.393 -16.614  0.00  0.00    +0.015 C 
BRANCH  20  24
ATOM     23  O   UNL     1      34.481 -23.152 -19.065  0.00  0.00    -0.266 OA
ATOM     24  N   UNL     1      35.597 -21.511 -17.846  0.00  0.00    -0.278 N 
ATOM     25  C   UNL     1      34.828 -21.981 -18.929  0.00  0.00    +0.284 C 
ATOM     26  H   UNL     1      35.806 -20.548 -17.855  0.00  0.00    +0.155 HD
BRANCH  25  28
ATOM     27  O   UNL     1      35.506 -20.324 -20.566  0.00  0.00    -0.446 OA
ATOM     28  C   UNL     1      34.486 -20.967 -19.940  0.00  0.00    +0.199 C 
ATOM     29  C   UNL     1      33.273 -20.514 -20.405  0.00  0.00    +0.045 C 
ATOM     30  C   UNL     1      33.567 -19.530 -21.379  0.00  0.00    +0.044 C 
ATOM     31  C   UNL     1      34.940 -19.452 -21.441  0.00  0.00    +0.180 C 
ENDBRANCH  25  28
ENDBRANCH  20  24
ENDBRANCH   4  17
TORSDOF 4
ENDMDL
MODEL 9
REMARK VINA RESULT:      -9.8      7.474     13.489
REMARK  Name = 22479942
REMARK  4 active torsions:
REMARK  status: ('A' for Active; 'I' for Inactive)
REMARK    1  A    between atoms: C_4  and  C_17
REMARK    2  A    between atoms: C_7  and  C_14
REMARK    3  A    between atoms: C_20  and  N_24
REMARK    4  A    between atoms: C_25  and  C_28
REMARK                            x       y       z     vdW  Elec       q    Type
REMARK                         _______ _______ _______ _____ _____    ______ ____
ROOT
ATOM      1  N   UNL     1      31.144 -11.085 -20.176  0.00  0.00    -0.276 N 
ATOM      2  N   UNL     1      31.539 -12.251 -20.714  0.00  0.00    -0.173 NA
ATOM      3  C   UNL     1      32.449 -10.472 -21.829  0.00  0.00    +0.036 A 
ATOM      4  C   UNL     1      32.332 -11.874 -21.718  0.00  0.00    +0.102 A 
ATOM      5  C   UNL     1      31.655  -9.978 -20.800  0.00  0.00    +0.075 A 
ATOM      6  C   UNL     1      33.124  -9.572 -22.670  0.00  0.00    +0.006 C 
ATOM      7  C   UNL     1      32.973  -8.198 -22.438  0.00  0.00    +0.033 C 
ATOM      8  C   UNL     1      31.490  -8.614 -20.552  0.00  0.00    +0.019 C 
ATOM      9  C   UNL     1      32.169  -7.730 -21.397  0.00  0.00    +0.004 C 
ATOM     10  H   UNL     1      30.541 -11.031 -19.401  0.00  0.00    +0.189 HD
ENDROOT
BRANCH   7  14
ATOM     11  N   UNL     1      33.027  -6.221 -23.909  0.00  0.00    -0.218 N 
ATOM     12  N   UNL     1      34.934  -7.242 -23.597  0.00  0.00    -0.206 NA
ATOM     13  N   UNL     1      33.887  -5.497 -24.642  0.00  0.00    -0.157 NA
ATOM     14  C   UNL     1      33.657  -7.256 -23.291  0.00  0.00    +0.149 C 
ATOM     15  C   UNL     1      35.026  -6.156 -24.420  0.00  0.00    +0.218 C 
ATOM     16  H   UNL     1      32.065  -6.027 -23.829  0.00  0.00    +0.176 HD
ENDBRANCH   7  14
BRANCH   4  17
ATOM     17  C   UNL     1      32.965 -12.866 -22.551  0.00  0.00    +0.021 C 
ATOM     18  C   UNL     1      33.555 -13.990 -21.971  0.00  0.00    +0.016 C 
ATOM     19  C   UNL     1      32.986 -12.704 -23.935  0.00  0.00    +0.002 C 
ATOM     20  C   UNL     1      34.166 -14.950 -22.777  0.00  0.00    +0.051 C 
ATOM     21  C   UNL     1      33.598 -13.665 -24.741  0.00  0.00    +0.001 C 
ATOM     22  C   UNL     1      34.188 -14.788 -24.163  0.00  0.00    +0.015 C 
BRANCH  20  24
ATOM     23  O   UNL     1      34.424 -17.711 -23.823  0.00  0.00    -0.266 OA
ATOM     24  N   UNL     1      34.756 -16.075 -22.198  0.00  0.00    -0.278 N 
ATOM     25  C   UNL     1      34.863 -17.378 -22.724  0.00  0.00    +0.284 C 
ATOM     26  H   UNL     1      35.150 -15.939 -21.306  0.00  0.00    +0.155 HD
BRANCH  25  28
ATOM     27  O   UNL     1      34.722 -19.260 -21.200  0.00  0.00    -0.446 OA
ATOM     28  C   UNL     1      35.513 -18.358 -21.839  0.00  0.00    +0.199 C 
ATOM     29  C   UNL     1      36.834 -18.556 -21.510  0.00  0.00    +0.045 C 
ATOM     30  C   UNL     1      36.856 -19.650 -20.612  0.00  0.00    +0.044 C 
ATOM     31  C   UNL     1      35.547 -20.043 -20.456  0.00  0.00    +0.180 C 
ENDBRANCH  25  28
ENDBRANCH  20  24
ENDBRANCH   4  17
TORSDOF 4
ENDMDL
