MODEL 1
REMARK VINA RESULT:     -12.1      0.000      0.000
REMARK  Name = 25101874
REMARK  5 active torsions:
REMARK  status: ('A' for Active; 'I' for Inactive)
REMARK    1  A    between atoms: N_1  and  C_22
REMARK    2  A    between atoms: C_2  and  N_8
REMARK    3  A    between atoms: N_8  and  C_11
REMARK    4  A    between atoms: C_11  and  C_14
REMARK    5  A    between atoms: C_22  and  C_28
REMARK                            x       y       z     vdW  Elec       q    Type
REMARK                         _______ _______ _______ _____ _____    ______ ____
ROOT
ATOM      1  N   UNL     1      34.131 -22.674 -18.751  0.00  0.00    +0.388 N 
ATOM      2  C   UNL     1      34.554 -20.175 -20.212  0.00  0.00    -0.066 C 
ATOM      3  C   UNL     1      35.457 -22.042 -18.777  0.00  0.00    -0.079 C 
ATOM      4  C   UNL     1      33.061 -21.670 -18.832  0.00  0.00    -0.079 C 
ATOM      5  C   UNL     1      35.656 -21.226 -20.057  0.00  0.00    -0.044 C 
ATOM      6  C   UNL     1      33.179 -20.841 -20.114  0.00  0.00    -0.044 C 
ATOM      7  H   UNL     1      34.056 -23.279 -19.568  0.00  0.00    -0.080 HD
ENDROOT
BRANCH   2   8
ATOM      8  N   UNL     1      34.703 -19.471 -21.484  0.00  0.00    +0.389 N 
ATOM      9  H   UNL     1      33.781 -19.318 -21.892  0.00  0.00    -0.084 HD
ATOM     10  H   UNL     1      35.278 -20.040 -22.107  0.00  0.00    -0.084 HD
BRANCH   8  11
ATOM     11  C   UNL     1      35.359 -18.186 -21.290  0.00  0.00    -0.034 C 
BRANCH  11  14
ATOM     12  O   UNL     1      33.778 -14.587 -25.269  0.00  0.00    -0.474 OA
ATOM     13  N   UNL     1      34.825 -17.624 -23.594  0.00  0.00    -0.247 NA
ATOM     14  C   UNL     1      34.935 -17.177 -22.324  0.00  0.00    +0.037 C 
ATOM     15  C   UNL     1      34.685 -15.871 -21.934  0.00  0.00    +0.011 C 
ATOM     16  C   UNL     1      34.298 -14.952 -22.912  0.00  0.00    +0.015 C 
ATOM     17  C   UNL     1      34.018 -13.524 -22.541  0.00  0.00    +0.033 C 
ATOM     18  C   UNL     1      34.153 -15.390 -24.229  0.00  0.00    +0.154 C 
ATOM     19  C   UNL     1      34.010 -12.648 -23.786  0.00  0.00    +0.052 C 
ATOM     20  C   UNL     1      34.437 -16.717 -24.518  0.00  0.00    +0.135 C 
ATOM     21  C   UNL     1      33.202 -13.334 -24.879  0.00  0.00    +0.206 C 
ENDBRANCH  11  14
ENDBRANCH   8  11
ENDBRANCH   2   8
BRANCH   1  22
ATOM     22  C   UNL     1      33.976 -23.490 -17.547  0.00  0.00    -0.055 C 
BRANCH  22  28
ATOM     23  O   UNL     1      31.184 -22.902 -15.710  0.00  0.00    -0.273 OA
ATOM     24  O   UNL     1      37.825 -23.580 -13.882  0.00  0.00    -0.270 OA
ATOM     25  N   UNL     1      33.432 -23.185 -15.145  0.00  0.00    -0.261 N 
ATOM     26  N   UNL     1      35.594 -23.402 -14.496  0.00  0.00    -0.255 N 
ATOM     27  N   UNL     1      32.538 -24.305 -12.733  0.00  0.00    -0.262 NA
ATOM     28  C   UNL     1      34.201 -22.659 -16.290  0.00  0.00    +0.076 C 
ATOM     29  C   UNL     1      35.674 -22.734 -15.803  0.00  0.00    +0.113 C 
ATOM     30  C   UNL     1      34.286 -23.604 -14.177  0.00  0.00    +0.196 C 
ATOM     31  C   UNL     1      33.866 -24.139 -13.034  0.00  0.00    +0.092 C 
ATOM     32  C   UNL     1      32.076 -23.262 -14.958  0.00  0.00    +0.252 C 
ATOM     33  C   UNL     1      36.630 -23.749 -13.652  0.00  0.00    +0.251 C 
ATOM     34  C   UNL     1      34.877 -24.547 -12.085  0.00  0.00    +0.022 C 
ATOM     35  C   UNL     1      31.690 -23.892 -13.630  0.00  0.00    +0.210 C 
ATOM     36  C   UNL     1      36.185 -24.377 -12.354  0.00  0.00    +0.059 C 
ENDBRANCH  22  28
ENDBRANCH   1  22
TORSDOF 5
ENDMDL
MODEL 2
REMARK VINA RESULT:     -12.0      0.827      1.286
REMARK  Name = 25101874
REMARK  5 active torsions:
REMARK  status: ('A' for Active; 'I' for Inactive)
REMARK    1  A    between atoms: N_1  and  C_22
REMARK    2  A    between atoms: C_2  and  N_8
REMARK    3  A    between atoms: N_8  and  C_11
REMARK    4  A    between atoms: C_11  and  C_14
REMARK    5  A    between atoms: C_22  and  C_28
REMARK                            x       y       z     vdW  Elec       q    Type
REMARK                         _______ _______ _______ _____ _____    ______ ____
ROOT
ATOM      1  N   UNL     1      34.059 -22.614 -18.756  0.00  0.00    +0.388 N 
ATOM      2  C   UNL     1      34.430 -20.106 -20.216  0.00  0.00    -0.066 C 
ATOM      3  C   UNL     1      35.383 -21.980 -18.823  0.00  0.00    -0.079 C 
ATOM      4  C   UNL     1      32.986 -21.611 -18.796  0.00  0.00    -0.079 C 
ATOM      5  C   UNL     1      35.538 -21.156 -20.104  0.00  0.00    -0.044 C 
ATOM      6  C   UNL     1      33.060 -20.775 -20.076  0.00  0.00    -0.044 C 
ATOM      7  H   UNL     1      33.958 -23.215 -19.574  0.00  0.00    -0.080 HD
ENDROOT
BRANCH   2   8
ATOM      8  N   UNL     1      34.536 -19.394 -21.488  0.00  0.00    +0.389 N 
ATOM      9  H   UNL     1      33.629 -18.989 -21.721  0.00  0.00    -0.084 HD
ATOM     10  H   UNL     1      34.826 -20.055 -22.209  0.00  0.00    -0.084 HD
BRANCH   8  11
ATOM     11  C   UNL     1      35.526 -18.331 -21.405  0.00  0.00    -0.034 C 
BRANCH  11  14
ATOM     12  O   UNL     1      33.643 -13.447 -23.375  0.00  0.00    -0.474 OA
ATOM     13  N   UNL     1      34.828 -16.020 -21.117  0.00  0.00    -0.247 NA
ATOM     14  C   UNL     1      35.014 -17.039 -21.984  0.00  0.00    +0.037 C 
ATOM     15  C   UNL     1      34.763 -16.959 -23.345  0.00  0.00    +0.011 C 
ATOM     16  C   UNL     1      34.283 -15.753 -23.858  0.00  0.00    +0.015 C 
ATOM     17  C   UNL     1      33.994 -15.615 -25.325  0.00  0.00    +0.033 C 
ATOM     18  C   UNL     1      34.103 -14.674 -22.990  0.00  0.00    +0.154 C 
ATOM     19  C   UNL     1      33.127 -14.389 -25.579  0.00  0.00    +0.052 C 
ATOM     20  C   UNL     1      34.374 -14.860 -21.642  0.00  0.00    +0.135 C 
ATOM     21  C   UNL     1      33.679 -13.212 -24.788  0.00  0.00    +0.206 C 
ENDBRANCH  11  14
ENDBRANCH   8  11
ENDBRANCH   2   8
BRANCH   1  22
ATOM     22  C   UNL     1      33.946 -23.438 -17.553  0.00  0.00    -0.055 C 
BRANCH  22  28
ATOM     23  O   UNL     1      31.392 -22.850 -15.396  0.00  0.00    -0.273 OA
ATOM     24  O   UNL     1      38.182 -23.695 -14.352  0.00  0.00    -0.270 OA
ATOM     25  N   UNL     1      33.683 -23.187 -15.097  0.00  0.00    -0.261 N 
ATOM     26  N   UNL     1      35.900 -23.460 -14.704  0.00  0.00    -0.255 N 
ATOM     27  N   UNL     1      33.045 -24.355 -12.629  0.00  0.00    -0.262 NA
ATOM     28  C   UNL     1      34.329 -22.644 -16.309  0.00  0.00    +0.076 C 
ATOM     29  C   UNL     1      35.845 -22.759 -15.995  0.00  0.00    +0.113 C 
ATOM     30  C   UNL     1      34.632 -23.647 -14.244  0.00  0.00    +0.196 C 
ATOM     31  C   UNL     1      34.333 -24.206 -13.074  0.00  0.00    +0.092 C 
ATOM     32  C   UNL     1      32.356 -23.246 -14.760  0.00  0.00    +0.252 C 
ATOM     33  C   UNL     1      37.018 -23.848 -13.992  0.00  0.00    +0.251 C 
ATOM     34  C   UNL     1      35.437 -24.657 -12.256  0.00  0.00    +0.022 C 
ATOM     35  C   UNL     1      32.109 -23.904 -13.413  0.00  0.00    +0.210 C 
ATOM     36  C   UNL     1      36.709 -24.503 -12.668  0.00  0.00    +0.059 C 
ENDBRANCH  22  28
ENDBRANCH   1  22
TORSDOF 5
ENDMDL
MODEL 3
REMARK VINA RESULT:     -11.9      1.260      3.092
REMARK  Name = 25101874
REMARK  5 active torsions:
REMARK  status: ('A' for Active; 'I' for Inactive)
REMARK    1  A    between atoms: N_1  and  C_22
REMARK    2  A    between atoms: C_2  and  N_8
REMARK    3  A    between atoms: N_8  and  C_11
REMARK    4  A    between atoms: C_11  and  C_14
REMARK    5  A    between atoms: C_22  and  C_28
REMARK                            x       y       z     vdW  Elec       q    Type
REMARK                         _______ _______ _______ _____ _____    ______ ____
ROOT
ATOM      1  N   UNL     1      34.810 -21.948 -18.705  0.00  0.00    +0.388 N 
ATOM      2  C   UNL     1      34.451 -19.890 -20.754  0.00  0.00    -0.066 C 
ATOM      3  C   UNL     1      35.931 -21.083 -19.096  0.00  0.00    -0.079 C 
ATOM      4  C   UNL     1      33.525 -21.246 -18.838  0.00  0.00    -0.079 C 
ATOM      5  C   UNL     1      35.785 -20.610 -20.545  0.00  0.00    -0.044 C 
ATOM      6  C   UNL     1      33.298 -20.779 -20.278  0.00  0.00    -0.044 C 
ATOM      7  H   UNL     1      34.797 -22.748 -19.336  0.00  0.00    -0.080 HD
ENDROOT
BRANCH   2   8
ATOM      8  N   UNL     1      34.286 -19.531 -22.161  0.00  0.00    +0.389 N 
ATOM      9  H   UNL     1      33.408 -19.024 -22.276  0.00  0.00    -0.084 HD
ATOM     10  H   UNL     1      34.278 -20.386 -22.718  0.00  0.00    -0.084 HD
BRANCH   8  11
ATOM     11  C   UNL     1      35.385 -18.691 -22.613  0.00  0.00    -0.034 C 
BRANCH  11  14
ATOM     12  O   UNL     1      33.770 -13.400 -23.444  0.00  0.00    -0.474 OA
ATOM     13  N   UNL     1      34.953 -16.426 -21.841  0.00  0.00    -0.247 NA
ATOM     14  C   UNL     1      34.937 -17.280 -22.888  0.00  0.00    +0.037 C 
ATOM     15  C   UNL     1      34.537 -16.932 -24.169  0.00  0.00    +0.011 C 
ATOM     16  C   UNL     1      34.120 -15.620 -24.398  0.00  0.00    +0.015 C 
ATOM     17  C   UNL     1      33.676 -15.194 -25.768  0.00  0.00    +0.033 C 
ATOM     18  C   UNL     1      34.150 -14.708 -23.340  0.00  0.00    +0.154 C 
ATOM     19  C   UNL     1      32.910 -13.880 -25.689  0.00  0.00    +0.052 C 
ATOM     20  C   UNL     1      34.557 -15.159 -22.093  0.00  0.00    +0.135 C 
ATOM     21  C   UNL     1      33.663 -12.913 -24.787  0.00  0.00    +0.206 C 
ENDBRANCH  11  14
ENDBRANCH   8  11
ENDBRANCH   2   8
BRANCH   1  22
ATOM     22  C   UNL     1      34.990 -22.432 -17.337  0.00  0.00    -0.055 C 
BRANCH  22  28
ATOM     23  O   UNL     1      36.116 -24.677 -15.054  0.00  0.00    -0.273 OA
ATOM     24  O   UNL     1      29.728 -22.503 -16.592  0.00  0.00    -0.270 OA
ATOM     25  N   UNL     1      33.988 -23.874 -15.583  0.00  0.00    -0.261 N 
ATOM     26  N   UNL     1      31.877 -23.192 -16.049  0.00  0.00    -0.255 N 
ATOM     27  N   UNL     1      33.330 -24.249 -12.882  0.00  0.00    -0.262 NA
ATOM     28  C   UNL     1      34.024 -23.569 -17.027  0.00  0.00    +0.076 C 
ATOM     29  C   UNL     1      32.555 -23.183 -17.353  0.00  0.00    +0.113 C 
ATOM     30  C   UNL     1      32.748 -23.619 -15.094  0.00  0.00    +0.196 C 
ATOM     31  C   UNL     1      32.434 -23.792 -13.814  0.00  0.00    +0.092 C 
ATOM     32  C   UNL     1      34.971 -24.368 -14.765  0.00  0.00    +0.252 C 
ATOM     33  C   UNL     1      30.559 -22.881 -15.771  0.00  0.00    +0.251 C 
ATOM     34  C   UNL     1      31.077 -23.483 -13.419  0.00  0.00    +0.022 C 
ATOM     35  C   UNL     1      34.524 -24.526 -13.321  0.00  0.00    +0.210 C 
ATOM     36  C   UNL     1      30.178 -23.049 -14.322  0.00  0.00    +0.059 C 
ENDBRANCH  22  28
ENDBRANCH   1  22
TORSDOF 5
ENDMDL
MODEL 4
REMARK VINA RESULT:     -11.8      2.097     11.358
REMARK  Name = 25101874
REMARK  5 active torsions:
REMARK  status: ('A' for Active; 'I' for Inactive)
REMARK    1  A    between atoms: N_1  and  C_22
REMARK    2  A    between atoms: C_2  and  N_8
REMARK    3  A    between atoms: N_8  and  C_11
REMARK    4  A    between atoms: C_11  and  C_14
REMARK    5  A    between atoms: C_22  and  C_28
REMARK                            x       y       z     vdW  Elec       q    Type
REMARK                         _______ _______ _______ _____ _____    ______ ____
ROOT
ATOM      1  N   UNL     1      35.601 -18.075 -21.771  0.00  0.00    +0.388 N 
ATOM      2  C   UNL     1      35.859 -20.583 -20.286  0.00  0.00    -0.066 C 
ATOM      3  C   UNL     1      36.925 -18.666 -21.532  0.00  0.00    -0.079 C 
ATOM      4  C   UNL     1      34.566 -19.113 -21.878  0.00  0.00    -0.079 C 
ATOM      5  C   UNL     1      36.936 -19.496 -20.246  0.00  0.00    -0.044 C 
ATOM      6  C   UNL     1      34.498 -19.958 -20.603  0.00  0.00    -0.044 C 
ATOM      7  H   UNL     1      35.372 -17.485 -20.971  0.00  0.00    -0.080 HD
ENDROOT
BRANCH   2   8
ATOM      8  N   UNL     1      35.820 -21.302 -19.014  0.00  0.00    +0.389 N 
ATOM      9  H   UNL     1      35.590 -20.647 -18.266  0.00  0.00    -0.084 HD
ATOM     10  H   UNL     1      36.734 -21.724 -18.849  0.00  0.00    -0.084 HD
BRANCH   8  11
ATOM     11  C   UNL     1      34.819 -22.358 -19.048  0.00  0.00    -0.034 C 
BRANCH  11  14
ATOM     12  O   UNL     1      33.061 -23.545 -13.873  0.00  0.00    -0.474 OA
ATOM     13  N   UNL     1      35.217 -22.873 -16.706  0.00  0.00    -0.247 NA
ATOM     14  C   UNL     1      34.295 -22.679 -17.674  0.00  0.00    +0.037 C 
ATOM     15  C   UNL     1      32.926 -22.760 -17.472  0.00  0.00    +0.011 C 
ATOM     16  C   UNL     1      32.463 -23.065 -16.190  0.00  0.00    +0.015 C 
ATOM     17  C   UNL     1      30.990 -23.165 -15.920  0.00  0.00    +0.033 C 
ATOM     18  C   UNL     1      33.392 -23.246 -15.164  0.00  0.00    +0.154 C 
ATOM     19  C   UNL     1      30.744 -23.880 -14.599  0.00  0.00    +0.052 C 
ATOM     20  C   UNL     1      34.742 -23.155 -15.472  0.00  0.00    +0.135 C 
ATOM     21  C   UNL     1      31.685 -23.322 -13.542  0.00  0.00    +0.206 C 
ENDBRANCH  11  14
ENDBRANCH   8  11
ENDBRANCH   2   8
BRANCH   1  22
ATOM     22  C   UNL     1      35.621 -17.245 -22.975  0.00  0.00    -0.055 C 
BRANCH  22  28
ATOM     23  O   UNL     1      34.284 -15.543 -20.360  0.00  0.00    -0.273 OA
ATOM     24  O   UNL     1      33.637 -14.702 -27.200  0.00  0.00    -0.270 OA
ATOM     25  N   UNL     1      34.138 -15.277 -22.676  0.00  0.00    -0.261 N 
ATOM     26  N   UNL     1      33.897 -14.960 -24.908  0.00  0.00    -0.255 N 
ATOM     27  N   UNL     1      33.883 -12.524 -22.201  0.00  0.00    -0.262 NA
ATOM     28  C   UNL     1      34.249 -16.636 -23.242  0.00  0.00    +0.076 C 
ATOM     29  C   UNL     1      34.000 -16.418 -24.759  0.00  0.00    +0.113 C 
ATOM     30  C   UNL     1      33.959 -14.380 -23.678  0.00  0.00    +0.196 C 
ATOM     31  C   UNL     1      33.842 -13.073 -23.457  0.00  0.00    +0.092 C 
ATOM     32  C   UNL     1      34.165 -14.865 -21.368  0.00  0.00    +0.252 C 
ATOM     33  C   UNL     1      33.712 -14.232 -26.068  0.00  0.00    +0.251 C 
ATOM     34  C   UNL     1      33.656 -12.222 -24.611  0.00  0.00    +0.022 C 
ATOM     35  C   UNL     1      34.031 -13.359 -21.213  0.00  0.00    +0.210 C 
ATOM     36  C   UNL     1      33.595 -12.744 -25.851  0.00  0.00    +0.059 C 
ENDBRANCH  22  28
ENDBRANCH   1  22
TORSDOF 5
ENDMDL
MODEL 5
REMARK VINA RESULT:     -11.7      2.004      3.169
REMARK  Name = 25101874
REMARK  5 active torsions:
REMARK  status: ('A' for Active; 'I' for Inactive)
REMARK    1  A    between atoms: N_1  and  C_22
REMARK    2  A    between atoms: C_2  and  N_8
REMARK    3  A    between atoms: N_8  and  C_11
REMARK    4  A    between atoms: C_11  and  C_14
REMARK    5  A    between atoms: C_22  and  C_28
REMARK                            x       y       z     vdW  Elec       q    Type
REMARK                         _______ _______ _______ _____ _____    ______ ____
ROOT
ATOM      1  N   UNL     1      34.427 -22.667 -16.404  0.00  0.00    +0.388 N 
ATOM      2  C   UNL     1      34.276 -21.935 -19.233  0.00  0.00    -0.066 C 
ATOM      3  C   UNL     1      33.261 -23.051 -17.211  0.00  0.00    -0.079 C 
ATOM      4  C   UNL     1      35.646 -22.609 -17.224  0.00  0.00    -0.079 C 
ATOM      5  C   UNL     1      33.029 -22.059 -18.354  0.00  0.00    -0.044 C 
ATOM      6  C   UNL     1      35.494 -21.602 -18.368  0.00  0.00    -0.044 C 
ATOM      7  H   UNL     1      34.256 -21.734 -16.030  0.00  0.00    -0.080 HD
ENDROOT
BRANCH   2   8
ATOM      8  N   UNL     1      34.071 -20.916 -20.260  0.00  0.00    +0.389 N 
ATOM      9  H   UNL     1      33.386 -20.237 -19.926  0.00  0.00    -0.084 HD
ATOM     10  H   UNL     1      33.735 -21.371 -21.109  0.00  0.00    -0.084 HD
BRANCH   8  11
ATOM     11  C   UNL     1      35.317 -20.228 -20.562  0.00  0.00    -0.034 C 
BRANCH  11  14
ATOM     12  O   UNL     1      34.552 -15.504 -23.458  0.00  0.00    -0.474 OA
ATOM     13  N   UNL     1      35.417 -17.810 -20.801  0.00  0.00    -0.247 NA
ATOM     14  C   UNL     1      35.088 -18.985 -21.381  0.00  0.00    +0.037 C 
ATOM     15  C   UNL     1      34.562 -19.102 -22.658  0.00  0.00    +0.011 C 
ATOM     16  C   UNL     1      34.353 -17.936 -23.397  0.00  0.00    +0.015 C 
ATOM     17  C   UNL     1      33.784 -18.010 -24.784  0.00  0.00    +0.033 C 
ATOM     18  C   UNL     1      34.706 -16.709 -22.833  0.00  0.00    +0.154 C 
ATOM     19  C   UNL     1      33.284 -16.639 -25.222  0.00  0.00    +0.052 C 
ATOM     20  C   UNL     1      35.216 -16.698 -21.542  0.00  0.00    +0.135 C 
ATOM     21  C   UNL     1      34.326 -15.588 -24.870  0.00  0.00    +0.206 C 
ENDBRANCH  11  14
ENDBRANCH   8  11
ENDBRANCH   2   8
BRANCH   1  22
ATOM     22  C   UNL     1      34.605 -23.595 -15.288  0.00  0.00    -0.055 C 
BRANCH  22  28
ATOM     23  O   UNL     1      33.728 -23.569 -12.009  0.00  0.00    -0.273 OA
ATOM     24  O   UNL     1      39.837 -24.517 -15.121  0.00  0.00    -0.270 OA
ATOM     25  N   UNL     1      35.754 -23.927 -13.113  0.00  0.00    -0.261 N 
ATOM     26  N   UNL     1      37.777 -24.246 -14.086  0.00  0.00    -0.255 N 
ATOM     27  N   UNL     1      36.435 -25.650 -11.006  0.00  0.00    -0.262 NA
ATOM     28  C   UNL     1      35.692 -23.106 -14.338  0.00  0.00    +0.076 C 
ATOM     29  C   UNL     1      37.109 -23.265 -14.953  0.00  0.00    +0.113 C 
ATOM     30  C   UNL     1      36.954 -24.557 -13.047  0.00  0.00    +0.196 C 
ATOM     31  C   UNL     1      37.279 -25.378 -12.052  0.00  0.00    +0.092 C 
ATOM     32  C   UNL     1      34.829 -24.086 -12.114  0.00  0.00    +0.252 C 
ATOM     33  C   UNL     1      39.049 -24.770 -14.214  0.00  0.00    +0.251 C 
ATOM     34  C   UNL     1      38.589 -25.988 -12.100  0.00  0.00    +0.022 C 
ATOM     35  C   UNL     1      35.283 -25.044 -11.025  0.00  0.00    +0.210 C 
ATOM     36  C   UNL     1      39.439 -25.720 -13.109  0.00  0.00    +0.059 C 
ENDBRANCH  22  28
ENDBRANCH   1  22
TORSDOF 5
ENDMDL
MODEL 6
REMARK VINA RESULT:     -11.3      1.477      2.038
REMARK  Name = 25101874
REMARK  5 active torsions:
REMARK  status: ('A' for Active; 'I' for Inactive)
REMARK    1  A    between atoms: N_1  and  C_22
REMARK    2  A    between atoms: C_2  and  N_8
REMARK    3  A    between atoms: N_8  and  C_11
REMARK    4  A    between atoms: C_11  and  C_14
REMARK    5  A    between atoms: C_22  and  C_28
REMARK                            x       y       z     vdW  Elec       q    Type
REMARK                         _______ _______ _______ _____ _____    ______ ____
ROOT
ATOM      1  N   UNL     1      35.609 -21.267 -20.228  0.00  0.00    +0.388 N 
ATOM      2  C   UNL     1      35.587 -18.471 -21.092  0.00  0.00    -0.066 C 
ATOM      3  C   UNL     1      36.709 -20.365 -19.859  0.00  0.00    -0.079 C 
ATOM      4  C   UNL     1      34.339 -20.536 -20.350  0.00  0.00    -0.079 C 
ATOM      5  C   UNL     1      36.887 -19.256 -20.900  0.00  0.00    -0.044 C 
ATOM      6  C   UNL     1      34.438 -19.433 -21.407  0.00  0.00    -0.044 C 
ATOM      7  H   UNL     1      35.827 -21.671 -21.138  0.00  0.00    -0.080 HD
ENDROOT
BRANCH   2   8
ATOM      8  N   UNL     1      35.747 -17.482 -22.154  0.00  0.00    +0.389 N 
ATOM      9  H   UNL     1      36.699 -17.532 -22.518  0.00  0.00    -0.084 HD
ATOM     10  H   UNL     1      35.563 -16.555 -21.768  0.00  0.00    -0.084 HD
BRANCH   8  11
ATOM     11  C   UNL     1      34.808 -17.730 -23.238  0.00  0.00    -0.034 C 
BRANCH  11  14
ATOM     12  O   UNL     1      33.343 -13.122 -26.051  0.00  0.00    -0.474 OA
ATOM     13  N   UNL     1      34.114 -16.573 -25.261  0.00  0.00    -0.247 NA
ATOM     14  C   UNL     1      34.424 -16.460 -23.951  0.00  0.00    +0.037 C 
ATOM     15  C   UNL     1      34.410 -15.265 -23.248  0.00  0.00    +0.011 C 
ATOM     16  C   UNL     1      34.057 -14.100 -23.931  0.00  0.00    +0.015 C 
ATOM     17  C   UNL     1      34.027 -12.781 -23.215  0.00  0.00    +0.033 C 
ATOM     18  C   UNL     1      33.708 -14.190 -25.280  0.00  0.00    +0.154 C 
ATOM     19  C   UNL     1      34.012 -11.637 -24.219  0.00  0.00    +0.052 C 
ATOM     20  C   UNL     1      33.764 -15.432 -25.895  0.00  0.00    +0.135 C 
ATOM     21  C   UNL     1      33.000 -11.942 -25.314  0.00  0.00    +0.206 C 
ENDBRANCH  11  14
ENDBRANCH   8  11
ENDBRANCH   2   8
BRANCH   1  22
ATOM     22  C   UNL     1      35.484 -22.348 -19.251  0.00  0.00    -0.055 C 
BRANCH  22  28
ATOM     23  O   UNL     1      32.278 -22.021 -18.187  0.00  0.00    -0.273 OA
ATOM     24  O   UNL     1      38.144 -23.334 -14.756  0.00  0.00    -0.270 OA
ATOM     25  N   UNL     1      34.280 -22.507 -17.086  0.00  0.00    -0.261 N 
ATOM     26  N   UNL     1      36.175 -22.941 -15.919  0.00  0.00    -0.255 N 
ATOM     27  N   UNL     1      32.761 -24.047 -15.302  0.00  0.00    -0.262 NA
ATOM     28  C   UNL     1      35.332 -21.795 -17.839  0.00  0.00    +0.076 C 
ATOM     29  C   UNL     1      36.609 -22.029 -16.987  0.00  0.00    +0.113 C 
ATOM     30  C   UNL     1      34.833 -23.147 -16.026  0.00  0.00    +0.196 C 
ATOM     31  C   UNL     1      34.116 -23.882 -15.180  0.00  0.00    +0.092 C 
ATOM     32  C   UNL     1      32.928 -22.562 -17.306  0.00  0.00    +0.252 C 
ATOM     33  C   UNL     1      36.936 -23.494 -14.908  0.00  0.00    +0.251 C 
ATOM     34  C   UNL     1      34.826 -24.514 -14.090  0.00  0.00    +0.022 C 
ATOM     35  C   UNL     1      32.193 -23.428 -16.296  0.00  0.00    +0.210 C 
ATOM     36  C   UNL     1      36.154 -24.349 -13.943  0.00  0.00    +0.059 C 
ENDBRANCH  22  28
ENDBRANCH   1  22
TORSDOF 5
ENDMDL
MODEL 7
REMARK VINA RESULT:     -11.2      4.704     12.303
REMARK  Name = 25101874
REMARK  5 active torsions:
REMARK  status: ('A' for Active; 'I' for Inactive)
REMARK    1  A    between atoms: N_1  and  C_22
REMARK    2  A    between atoms: C_2  and  N_8
REMARK    3  A    between atoms: N_8  and  C_11
REMARK    4  A    between atoms: C_11  and  C_14
REMARK    5  A    between atoms: C_22  and  C_28
REMARK                            x       y       z     vdW  Elec       q    Type
REMARK                         _______ _______ _______ _____ _____    ______ ____
ROOT
ATOM      1  N   UNL     1      33.486 -12.710 -23.129  0.00  0.00    +0.388 N 
ATOM      2  C   UNL     1      34.222 -15.519 -23.488  0.00  0.00    -0.066 C 
ATOM      3  C   UNL     1      34.441 -13.351 -22.216  0.00  0.00    -0.079 C 
ATOM      4  C   UNL     1      33.563 -13.292 -24.477  0.00  0.00    -0.079 C 
ATOM      5  C   UNL     1      34.179 -14.856 -22.109  0.00  0.00    -0.044 C 
ATOM      6  C   UNL     1      33.271 -14.795 -24.445  0.00  0.00    -0.044 C 
ATOM      7  H   UNL     1      32.547 -12.877 -22.769  0.00  0.00    -0.080 HD
ENDROOT
BRANCH   2   8
ATOM      8  N   UNL     1      33.875 -16.934 -23.379  0.00  0.00    +0.389 N 
ATOM      9  H   UNL     1      33.154 -17.156 -24.066  0.00  0.00    -0.084 HD
ATOM     10  H   UNL     1      33.534 -17.115 -22.435  0.00  0.00    -0.084 HD
BRANCH   8  11
ATOM     11  C   UNL     1      35.040 -17.772 -23.622  0.00  0.00    -0.034 C 
BRANCH  11  14
ATOM     12  O   UNL     1      36.451 -20.902 -19.206  0.00  0.00    -0.474 OA
ATOM     13  N   UNL     1      36.656 -18.631 -22.021  0.00  0.00    -0.247 NA
ATOM     14  C   UNL     1      35.369 -18.634 -22.432  0.00  0.00    +0.037 C 
ATOM     15  C   UNL     1      34.362 -19.373 -21.830  0.00  0.00    +0.011 C 
ATOM     16  C   UNL     1      34.692 -20.170 -20.733  0.00  0.00    +0.015 C 
ATOM     17  C   UNL     1      33.638 -20.990 -20.047  0.00  0.00    +0.033 C 
ATOM     18  C   UNL     1      36.010 -20.168 -20.270  0.00  0.00    +0.154 C 
ATOM     19  C   UNL     1      34.286 -22.050 -19.166  0.00  0.00    +0.052 C 
ATOM     20  C   UNL     1      36.946 -19.401 -20.949  0.00  0.00    +0.135 C 
ATOM     21  C   UNL     1      35.413 -21.417 -18.364  0.00  0.00    +0.206 C 
ENDBRANCH  11  14
ENDBRANCH   8  11
ENDBRANCH   2   8
BRANCH   1  22
ATOM     22  C   UNL     1      33.718 -11.266 -23.181  0.00  0.00    -0.055 C 
BRANCH  22  28
ATOM     23  O   UNL     1      31.796 -12.492 -20.666  0.00  0.00    -0.273 OA
ATOM     24  O   UNL     1      32.670  -6.057 -23.060  0.00  0.00    -0.270 OA
ATOM     25  N   UNL     1      32.164 -10.336 -21.484  0.00  0.00    -0.261 N 
ATOM     26  N   UNL     1      32.419  -8.210 -22.231  0.00  0.00    -0.255 N 
ATOM     27  N   UNL     1      31.751  -9.424 -18.864  0.00  0.00    -0.262 NA
ATOM     28  C   UNL     1      32.427 -10.496 -22.928  0.00  0.00    +0.076 C 
ATOM     29  C   UNL     1      32.518  -9.034 -23.445  0.00  0.00    +0.113 C 
ATOM     30  C   UNL     1      32.193  -9.019 -21.159  0.00  0.00    +0.196 C 
ATOM     31  C   UNL     1      32.002  -8.583 -19.917  0.00  0.00    +0.092 C 
ATOM     32  C   UNL     1      31.890 -11.283 -20.531  0.00  0.00    +0.252 C 
ATOM     33  C   UNL     1      32.481  -6.834 -22.128  0.00  0.00    +0.251 C 
ATOM     34  C   UNL     1      32.059  -7.154 -19.702  0.00  0.00    +0.022 C 
ATOM     35  C   UNL     1      31.693 -10.694 -19.143  0.00  0.00    +0.210 C 
ATOM     36  C   UNL     1      32.288  -6.311 -20.726  0.00  0.00    +0.059 C 
ENDBRANCH  22  28
ENDBRANCH   1  22
TORSDOF 5
ENDMDL
MODEL 8
REMARK VINA RESULT:     -11.1      1.921     11.405
REMARK  Name = 25101874
REMARK  5 active torsions:
REMARK  status: ('A' for Active; 'I' for Inactive)
REMARK    1  A    between atoms: N_1  and  C_22
REMARK    2  A    between atoms: C_2  and  N_8
REMARK    3  A    between atoms: N_8  and  C_11
REMARK    4  A    between atoms: C_11  and  C_14
REMARK    5  A    between atoms: C_22  and  C_28
REMARK                            x       y       z     vdW  Elec       q    Type
REMARK                         _______ _______ _______ _____ _____    ______ ____
ROOT
ATOM      1  N   UNL     1      35.964 -18.956 -22.104  0.00  0.00    +0.388 N 
ATOM      2  C   UNL     1      35.558 -20.557 -19.689  0.00  0.00    -0.066 C 
ATOM      3  C   UNL     1      34.607 -19.322 -21.673  0.00  0.00    -0.079 C 
ATOM      4  C   UNL     1      36.866 -18.809 -20.953  0.00  0.00    -0.079 C 
ATOM      5  C   UNL     1      34.613 -20.638 -20.890  0.00  0.00    -0.044 C 
ATOM      6  C   UNL     1      36.948 -20.108 -20.147  0.00  0.00    -0.044 C 
ATOM      7  H   UNL     1      36.321 -19.710 -22.689  0.00  0.00    -0.080 HD
ENDROOT
BRANCH   2   8
ATOM      8  N   UNL     1      35.624 -21.849 -19.010  0.00  0.00    +0.389 N 
ATOM      9  H   UNL     1      35.933 -22.560 -19.673  0.00  0.00    -0.084 HD
ATOM     10  H   UNL     1      34.696 -22.078 -18.651  0.00  0.00    -0.084 HD
BRANCH   8  11
ATOM     11  C   UNL     1      36.556 -21.800 -17.894  0.00  0.00    -0.034 C 
BRANCH  11  14
ATOM     12  O   UNL     1      34.248 -24.182 -13.389  0.00  0.00    -0.474 OA
ATOM     13  N   UNL     1      34.717 -22.901 -16.745  0.00  0.00    -0.247 NA
ATOM     14  C   UNL     1      35.979 -22.428 -16.652  0.00  0.00    +0.037 C 
ATOM     15  C   UNL     1      36.749 -22.487 -15.502  0.00  0.00    +0.011 C 
ATOM     16  C   UNL     1      36.191 -23.068 -14.361  0.00  0.00    +0.015 C 
ATOM     17  C   UNL     1      36.984 -23.156 -13.090  0.00  0.00    +0.033 C 
ATOM     18  C   UNL     1      34.897 -23.589 -14.435  0.00  0.00    +0.154 C 
ATOM     19  C   UNL     1      36.063 -23.448 -11.913  0.00  0.00    +0.052 C 
ATOM     20  C   UNL     1      34.205 -23.470 -15.631  0.00  0.00    +0.135 C 
ATOM     21  C   UNL     1      35.095 -24.557 -12.296  0.00  0.00    +0.206 C 
ENDBRANCH  11  14
ENDBRANCH   8  11
ENDBRANCH   2   8
BRANCH   1  22
ATOM     22  C   UNL     1      35.934 -17.725 -22.893  0.00  0.00    -0.055 C 
BRANCH  22  28
ATOM     23  O   UNL     1      34.727 -16.155 -20.136  0.00  0.00    -0.273 OA
ATOM     24  O   UNL     1      33.449 -15.233 -26.876  0.00  0.00    -0.270 OA
ATOM     25  N   UNL     1      34.368 -15.857 -22.425  0.00  0.00    -0.261 N 
ATOM     26  N   UNL     1      33.918 -15.516 -24.621  0.00  0.00    -0.255 N 
ATOM     27  N   UNL     1      33.991 -13.134 -21.867  0.00  0.00    -0.262 NA
ATOM     28  C   UNL     1      34.511 -17.196 -23.029  0.00  0.00    +0.076 C 
ATOM     29  C   UNL     1      34.121 -16.968 -24.515  0.00  0.00    +0.113 C 
ATOM     30  C   UNL     1      34.051 -14.955 -23.387  0.00  0.00    +0.196 C 
ATOM     31  C   UNL     1      33.875 -13.662 -23.127  0.00  0.00    +0.092 C 
ATOM     32  C   UNL     1      34.482 -15.468 -21.115  0.00  0.00    +0.252 C 
ATOM     33  C   UNL     1      33.592 -14.780 -25.744  0.00  0.00    +0.251 C 
ATOM     34  C   UNL     1      33.541 -12.803 -24.242  0.00  0.00    +0.022 C 
ATOM     35  C   UNL     1      34.272 -13.976 -20.915  0.00  0.00    +0.210 C 
ATOM     36  C   UNL     1      33.406 -13.306 -25.483  0.00  0.00    +0.059 C 
ENDBRANCH  22  28
ENDBRANCH   1  22
TORSDOF 5
ENDMDL
MODEL 9
REMARK VINA RESULT:     -10.9      7.496     15.977
REMARK  Name = 25101874
REMARK  5 active torsions:
REMARK  status: ('A' for Active; 'I' for Inactive)
REMARK    1  A    between atoms: N_1  and  C_22
REMARK    2  A    between atoms: C_2  and  N_8
REMARK    3  A    between atoms: N_8  and  C_11
REMARK    4  A    between atoms: C_11  and  C_14
REMARK    5  A    between atoms: C_22  and  C_28
REMARK                            x       y       z     vdW  Elec       q    Type
REMARK                         _______ _______ _______ _____ _____    ______ ____
ROOT
ATOM      1  N   UNL     1      34.103  -8.075 -22.884  0.00  0.00    +0.388 N 
ATOM      2  C   UNL     1      33.995 -10.752 -24.060  0.00  0.00    -0.066 C 
ATOM      3  C   UNL     1      34.982  -8.431 -24.007  0.00  0.00    -0.079 C 
ATOM      4  C   UNL     1      32.830  -8.807 -22.951  0.00  0.00    -0.079 C 
ATOM      5  C   UNL     1      35.286  -9.931 -24.016  0.00  0.00    -0.044 C 
ATOM      6  C   UNL     1      33.062 -10.320 -22.925  0.00  0.00    -0.044 C 
ATOM      7  H   UNL     1      34.574  -8.342 -22.021  0.00  0.00    -0.080 HD
ENDROOT
BRANCH   2   8
ATOM      8  N   UNL     1      34.299 -12.178 -23.971  0.00  0.00    +0.389 N 
ATOM      9  H   UNL     1      35.198 -12.300 -23.505  0.00  0.00    -0.084 HD
ATOM     10  H   UNL     1      34.333 -12.564 -24.916  0.00  0.00    -0.084 HD
BRANCH   8  11
ATOM     11  C   UNL     1      33.271 -12.881 -23.218  0.00  0.00    -0.034 C 
BRANCH  11  14
ATOM     12  O   UNL     1      35.265 -17.315 -20.452  0.00  0.00    -0.474 OA
ATOM     13  N   UNL     1      33.890 -14.042 -21.173  0.00  0.00    -0.247 NA
ATOM     14  C   UNL     1      33.819 -14.098 -22.521  0.00  0.00    +0.037 C 
ATOM     15  C   UNL     1      34.217 -15.190 -23.276  0.00  0.00    +0.011 C 
ATOM     16  C   UNL     1      34.727 -16.305 -22.609  0.00  0.00    +0.015 C 
ATOM     17  C   UNL     1      35.173 -17.513 -23.382  0.00  0.00    +0.033 C 
ATOM     18  C   UNL     1      34.789 -16.286 -21.214  0.00  0.00    +0.154 C 
ATOM     19  C   UNL     1      36.038 -18.409 -22.506  0.00  0.00    +0.052 C 
ATOM     20  C   UNL     1      34.376 -15.139 -20.551  0.00  0.00    +0.135 C 
ATOM     21  C   UNL     1      35.380 -18.566 -21.142  0.00  0.00    +0.206 C 
ENDBRANCH  11  14
ENDBRANCH   8  11
ENDBRANCH   2   8
BRANCH   1  22
ATOM     22  C   UNL     1      33.863  -6.632 -22.860  0.00  0.00    -0.055 C 
BRANCH  22  28
ATOM     23  O   UNL     1      30.843  -6.604 -21.311  0.00  0.00    -0.273 OA
ATOM     24  O   UNL     1      33.318  -2.912 -26.617  0.00  0.00    -0.270 OA
ATOM     25  N   UNL     1      31.745  -5.355 -23.067  0.00  0.00    -0.261 N 
ATOM     26  N   UNL     1      32.511  -4.120 -24.807  0.00  0.00    -0.255 N 
ATOM     27  N   UNL     1      30.139  -3.229 -22.192  0.00  0.00    -0.262 NA
ATOM     28  C   UNL     1      32.688  -6.258 -23.756  0.00  0.00    +0.076 C 
ATOM     29  C   UNL     1      33.143  -5.434 -24.991  0.00  0.00    +0.113 C 
ATOM     30  C   UNL     1      31.711  -4.159 -23.706  0.00  0.00    +0.196 C 
ATOM     31  C   UNL     1      30.954  -3.147 -23.292  0.00  0.00    +0.092 C 
ATOM     32  C   UNL     1      30.952  -5.583 -21.972  0.00  0.00    +0.252 C 
ATOM     33  C   UNL     1      32.622  -3.000 -25.609  0.00  0.00    +0.251 C 
ATOM     34  C   UNL     1      31.008  -1.923 -24.060  0.00  0.00    +0.022 C 
ATOM     35  C   UNL     1      30.129  -4.371 -21.568  0.00  0.00    +0.210 C 
ATOM     36  C   UNL     1      31.789  -1.828 -25.152  0.00  0.00    +0.059 C 
ENDBRANCH  22  28
ENDBRANCH   1  22
TORSDOF 5
ENDMDL
