MODEL 1
REMARK VINA RESULT:     -11.3      0.000      0.000
REMARK  Name = 449087
REMARK  3 active torsions:
REMARK  status: ('A' for Active; 'I' for Inactive)
REMARK    1  A    between atoms: C_5  and  C_11
REMARK    2  A    between atoms: C_8  and  C_14
REMARK    3  A    between atoms: C_14  and  C_15
REMARK                            x       y       z     vdW  Elec       q    Type
REMARK                         _______ _______ _______ _____ _____    ______ ____
ROOT
ATOM      1  O   UNL     1      35.293 -16.804 -21.388  0.00  0.00    -0.274 OA
ATOM      2  N   UNL     1      33.654 -15.228 -25.709  0.00  0.00    -0.239 N 
ATOM      3  N   UNL     1      34.160 -16.459 -25.526  0.00  0.00    -0.166 NA
ATOM      4  N   UNL     1      35.038 -17.560 -23.598  0.00  0.00    -0.268 N 
ATOM      5  C   UNL     1      33.643 -14.463 -24.580  0.00  0.00    +0.045 C 
ATOM      6  C   UNL     1      34.176 -15.249 -23.588  0.00  0.00    +0.048 C 
ATOM      7  C   UNL     1      34.470 -16.451 -24.237  0.00  0.00    +0.152 C 
ATOM      8  C   UNL     1      35.402 -17.662 -22.257  0.00  0.00    +0.232 C 
ATOM      9  H   UNL     1      33.323 -14.907 -26.578  0.00  0.00    +0.174 HD
ATOM     10  H   UNL     1      35.199 -18.354 -24.157  0.00  0.00    +0.156 HD
ENDROOT
BRANCH   5  11
ATOM     11  C   UNL     1      33.137 -13.032 -24.453  0.00  0.00    +0.037 C 
ATOM     12  C   UNL     1      33.907 -12.052 -23.603  0.00  0.00    +0.006 C 
ATOM     13  C   UNL     1      33.918 -11.916 -25.098  0.00  0.00    +0.006 C 
ENDBRANCH   5  11
BRANCH   8  14
ATOM     14  C   UNL     1      35.987 -19.040 -21.957  0.00  0.00    +0.112 C 
BRANCH  14  15
ATOM     15  C   UNL     1      35.175 -19.847 -21.000  0.00  0.00    -0.013 C 
ATOM     16  C   UNL     1      35.058 -21.351 -19.092  0.00  0.00    -0.000 C 
ATOM     17  C   UNL     1      35.808 -20.587 -20.001  0.00  0.00    -0.004 C 
ATOM     18  C   UNL     1      33.647 -21.363 -19.196  0.00  0.00    -0.000 C 
ATOM     19  C   UNL     1      33.787 -19.858 -21.102  0.00  0.00    -0.004 C 
ATOM     20  C   UNL     1      33.027 -20.611 -20.207  0.00  0.00    -0.000 C 
ATOM     21  C   UNL     1      35.679 -22.104 -18.081  0.00  0.00    -0.000 C 
ATOM     22  C   UNL     1      32.897 -22.127 -18.287  0.00  0.00    -0.000 C 
ATOM     23  C   UNL     1      34.918 -22.857 -17.187  0.00  0.00    -0.000 C 
ATOM     24  C   UNL     1      33.530 -22.869 -17.289  0.00  0.00    -0.000 C 
ENDBRANCH  14  15
ENDBRANCH   8  14
TORSDOF 3
ENDMDL
MODEL 2
REMARK VINA RESULT:     -11.0      0.987      1.201
REMARK  Name = 449087
REMARK  3 active torsions:
REMARK  status: ('A' for Active; 'I' for Inactive)
REMARK    1  A    between atoms: C_5  and  C_11
REMARK    2  A    between atoms: C_8  and  C_14
REMARK    3  A    between atoms: C_14  and  C_15
REMARK                            x       y       z     vdW  Elec       q    Type
REMARK                         _______ _______ _______ _____ _____    ______ ____
ROOT
ATOM      1  O   UNL     1      35.506 -17.512 -20.705  0.00  0.00    -0.274 OA
ATOM      2  N   UNL     1      33.939 -16.127 -25.118  0.00  0.00    -0.239 N 
ATOM      3  N   UNL     1      34.393 -17.366 -24.860  0.00  0.00    -0.166 NA
ATOM      4  N   UNL     1      35.223 -18.386 -22.868  0.00  0.00    -0.268 N 
ATOM      5  C   UNL     1      33.958 -15.297 -24.035  0.00  0.00    +0.045 C 
ATOM      6  C   UNL     1      34.458 -16.044 -22.997  0.00  0.00    +0.048 C 
ATOM      7  C   UNL     1      34.702 -17.294 -23.573  0.00  0.00    +0.152 C 
ATOM      8  C   UNL     1      35.580 -18.423 -21.522  0.00  0.00    +0.232 C 
ATOM      9  H   UNL     1      33.623 -15.845 -26.006  0.00  0.00    +0.174 HD
ATOM     10  H   UNL     1      35.351 -19.218 -23.378  0.00  0.00    +0.156 HD
ENDROOT
BRANCH   5  11
ATOM     11  C   UNL     1      33.512 -13.842 -23.996  0.00  0.00    +0.037 C 
ATOM     12  C   UNL     1      32.680 -13.359 -22.834  0.00  0.00    +0.006 C 
ATOM     13  C   UNL     1      34.108 -12.917 -22.964  0.00  0.00    +0.006 C 
ENDBRANCH   5  11
BRANCH   8  14
ATOM     14  C   UNL     1      36.107 -19.804 -21.139  0.00  0.00    +0.112 C 
BRANCH  14  15
ATOM     15  C   UNL     1      35.225 -20.547 -20.192  0.00  0.00    -0.013 C 
ATOM     16  C   UNL     1      34.962 -21.910 -18.195  0.00  0.00    -0.000 C 
ATOM     17  C   UNL     1      35.779 -21.206 -19.095  0.00  0.00    -0.004 C 
ATOM     18  C   UNL     1      33.564 -21.944 -18.410  0.00  0.00    -0.000 C 
ATOM     19  C   UNL     1      33.850 -20.581 -20.404  0.00  0.00    -0.004 C 
ATOM     20  C   UNL     1      33.024 -21.275 -19.520  0.00  0.00    -0.000 C 
ATOM     21  C   UNL     1      35.503 -22.581 -17.085  0.00  0.00    -0.000 C 
ATOM     22  C   UNL     1      32.747 -22.648 -17.510  0.00  0.00    -0.000 C 
ATOM     23  C   UNL     1      34.676 -23.275 -16.201  0.00  0.00    -0.000 C 
ATOM     24  C   UNL     1      33.301 -23.309 -16.413  0.00  0.00    -0.000 C 
ENDBRANCH  14  15
ENDBRANCH   8  14
TORSDOF 3
ENDMDL
MODEL 3
REMARK VINA RESULT:     -10.9      3.262      8.740
REMARK  Name = 449087
REMARK  3 active torsions:
REMARK  status: ('A' for Active; 'I' for Inactive)
REMARK    1  A    between atoms: C_5  and  C_11
REMARK    2  A    between atoms: C_8  and  C_14
REMARK    3  A    between atoms: C_14  and  C_15
REMARK                            x       y       z     vdW  Elec       q    Type
REMARK                         _______ _______ _______ _____ _____    ______ ____
ROOT
ATOM      1  O   UNL     1      33.777 -20.517 -20.449  0.00  0.00    -0.274 OA
ATOM      2  N   UNL     1      34.812 -23.142 -16.464  0.00  0.00    -0.239 N 
ATOM      3  N   UNL     1      35.751 -22.493 -17.174  0.00  0.00    -0.166 NA
ATOM      4  N   UNL     1      35.623 -21.138 -19.135  0.00  0.00    -0.268 N 
ATOM      5  C   UNL     1      33.550 -23.001 -16.960  0.00  0.00    +0.045 C 
ATOM      6  C   UNL     1      33.669 -22.202 -18.071  0.00  0.00    +0.048 C 
ATOM      7  C   UNL     1      35.038 -21.931 -18.141  0.00  0.00    +0.152 C 
ATOM      8  C   UNL     1      34.976 -20.502 -20.192  0.00  0.00    +0.232 C 
ATOM      9  H   UNL     1      35.018 -23.672 -15.661  0.00  0.00    +0.174 HD
ATOM     10  H   UNL     1      36.599 -21.015 -19.082  0.00  0.00    +0.156 HD
ENDROOT
BRANCH   5  11
ATOM     11  C   UNL     1      32.274 -23.606 -16.391  0.00  0.00    +0.037 C 
ATOM     12  C   UNL     1      31.776 -23.140 -15.045  0.00  0.00    +0.006 C 
ATOM     13  C   UNL     1      31.035 -22.752 -16.291  0.00  0.00    +0.006 C 
ENDBRANCH   5  11
BRANCH   8  14
ATOM     14  C   UNL     1      35.973 -19.732 -21.054  0.00  0.00    +0.112 C 
BRANCH  14  15
ATOM     15  C   UNL     1      35.336 -18.866 -22.090  0.00  0.00    -0.013 C 
ATOM     16  C   UNL     1      34.698 -16.656 -22.879  0.00  0.00    -0.000 C 
ATOM     17  C   UNL     1      35.294 -17.483 -21.913  0.00  0.00    -0.004 C 
ATOM     18  C   UNL     1      34.138 -17.239 -24.040  0.00  0.00    -0.000 C 
ATOM     19  C   UNL     1      34.785 -19.440 -23.232  0.00  0.00    -0.004 C 
ATOM     20  C   UNL     1      34.190 -18.633 -24.201  0.00  0.00    -0.000 C 
ATOM     21  C   UNL     1      34.646 -15.261 -22.716  0.00  0.00    -0.000 C 
ATOM     22  C   UNL     1      33.543 -16.410 -25.006  0.00  0.00    -0.000 C 
ATOM     23  C   UNL     1      34.050 -14.454 -23.686  0.00  0.00    -0.000 C 
ATOM     24  C   UNL     1      33.500 -15.027 -24.828  0.00  0.00    -0.000 C 
ENDBRANCH  14  15
ENDBRANCH   8  14
TORSDOF 3
ENDMDL
MODEL 4
REMARK VINA RESULT:     -10.8      1.793      2.643
REMARK  Name = 449087
REMARK  3 active torsions:
REMARK  status: ('A' for Active; 'I' for Inactive)
REMARK    1  A    between atoms: C_5  and  C_11
REMARK    2  A    between atoms: C_8  and  C_14
REMARK    3  A    between atoms: C_14  and  C_15
REMARK                            x       y       z     vdW  Elec       q    Type
REMARK                         _______ _______ _______ _____ _____    ______ ____
ROOT
ATOM      1  O   UNL     1      34.912 -16.273 -20.892  0.00  0.00    -0.274 OA
ATOM      2  N   UNL     1      32.925 -12.913 -23.825  0.00  0.00    -0.239 N 
ATOM      3  N   UNL     1      33.493 -14.040 -24.287  0.00  0.00    -0.166 NA
ATOM      4  N   UNL     1      34.543 -15.875 -23.178  0.00  0.00    -0.268 N 
ATOM      5  C   UNL     1      32.958 -12.796 -22.466  0.00  0.00    +0.045 C 
ATOM      6  C   UNL     1      33.588 -13.926 -22.007  0.00  0.00    +0.048 C 
ATOM      7  C   UNL     1      33.888 -14.638 -23.171  0.00  0.00    +0.152 C 
ATOM      8  C   UNL     1      34.999 -16.591 -22.074  0.00  0.00    +0.232 C 
ATOM      9  H   UNL     1      32.524 -12.234 -24.413  0.00  0.00    +0.174 HD
ATOM     10  H   UNL     1      34.699 -16.285 -24.060  0.00  0.00    +0.156 HD
ENDROOT
BRANCH   5  11
ATOM     11  C   UNL     1      32.402 -11.646 -21.638  0.00  0.00    +0.037 C 
ATOM     12  C   UNL     1      30.927 -11.611 -21.324  0.00  0.00    +0.006 C 
ATOM     13  C   UNL     1      31.915 -11.917 -20.236  0.00  0.00    +0.006 C 
ENDBRANCH   5  11
BRANCH   8  14
ATOM     14  C   UNL     1      35.659 -17.897 -22.508  0.00  0.00    +0.112 C 
BRANCH  14  15
ATOM     15  C   UNL     1      35.644 -18.961 -21.462  0.00  0.00    -0.013 C 
ATOM     16  C   UNL     1      34.403 -20.533 -20.082  0.00  0.00    -0.000 C 
ATOM     17  C   UNL     1      34.434 -19.531 -21.065  0.00  0.00    -0.004 C 
ATOM     18  C   UNL     1      35.616 -20.964 -19.494  0.00  0.00    -0.000 C 
ATOM     19  C   UNL     1      36.837 -19.384 -20.883  0.00  0.00    -0.004 C 
ATOM     20  C   UNL     1      36.824 -20.378 -19.906  0.00  0.00    -0.000 C 
ATOM     21  C   UNL     1      33.194 -21.118 -19.670  0.00  0.00    -0.000 C 
ATOM     22  C   UNL     1      35.585 -21.966 -18.510  0.00  0.00    -0.000 C 
ATOM     23  C   UNL     1      33.182 -22.113 -18.691  0.00  0.00    -0.000 C 
ATOM     24  C   UNL     1      34.375 -22.536 -18.113  0.00  0.00    -0.000 C 
ENDBRANCH  14  15
ENDBRANCH   8  14
TORSDOF 3
ENDMDL
MODEL 5
REMARK VINA RESULT:     -10.8      2.691      8.371
REMARK  Name = 449087
REMARK  3 active torsions:
REMARK  status: ('A' for Active; 'I' for Inactive)
REMARK    1  A    between atoms: C_5  and  C_11
REMARK    2  A    between atoms: C_8  and  C_14
REMARK    3  A    between atoms: C_14  and  C_15
REMARK                            x       y       z     vdW  Elec       q    Type
REMARK                         _______ _______ _______ _____ _____    ______ ____
ROOT
ATOM      1  O   UNL     1      34.162 -19.745 -21.795  0.00  0.00    -0.274 OA
ATOM      2  N   UNL     1      35.798 -22.073 -17.827  0.00  0.00    -0.239 N 
ATOM      3  N   UNL     1      36.537 -21.178 -18.505  0.00  0.00    -0.166 NA
ATOM      4  N   UNL     1      36.083 -19.868 -20.447  0.00  0.00    -0.268 N 
ATOM      5  C   UNL     1      34.554 -22.269 -18.350  0.00  0.00    +0.045 C 
ATOM      6  C   UNL     1      34.472 -21.445 -19.445  0.00  0.00    +0.048 C 
ATOM      7  C   UNL     1      35.717 -20.811 -19.479  0.00  0.00    +0.152 C 
ATOM      8  C   UNL     1      35.306 -19.410 -21.509  0.00  0.00    +0.232 C 
ATOM      9  H   UNL     1      36.125 -22.544 -17.027  0.00  0.00    +0.174 HD
ATOM     10  H   UNL     1      36.987 -19.486 -20.369  0.00  0.00    +0.156 HD
ENDROOT
BRANCH   5  11
ATOM     11  C   UNL     1      33.481 -23.210 -17.820  0.00  0.00    +0.037 C 
ATOM     12  C   UNL     1      33.367 -23.433 -16.332  0.00  0.00    +0.006 C 
ATOM     13  C   UNL     1      32.316 -22.639 -17.052  0.00  0.00    +0.006 C 
ENDBRANCH   5  11
BRANCH   8  14
ATOM     14  C   UNL     1      36.071 -18.379 -22.336  0.00  0.00    +0.112 C 
BRANCH  14  15
ATOM     15  C   UNL     1      35.304 -17.128 -22.605  0.00  0.00    -0.013 C 
ATOM     16  C   UNL     1      34.187 -15.130 -21.782  0.00  0.00    -0.000 C 
ATOM     17  C   UNL     1      34.910 -16.311 -21.545  0.00  0.00    -0.004 C 
ATOM     18  C   UNL     1      33.862 -14.772 -23.111  0.00  0.00    -0.000 C 
ATOM     19  C   UNL     1      34.984 -16.776 -23.912  0.00  0.00    -0.004 C 
ATOM     20  C   UNL     1      34.268 -15.607 -24.165  0.00  0.00    -0.000 C 
ATOM     21  C   UNL     1      33.782 -14.296 -20.726  0.00  0.00    -0.000 C 
ATOM     22  C   UNL     1      33.140 -13.591 -23.347  0.00  0.00    -0.000 C 
ATOM     23  C   UNL     1      33.064 -13.126 -20.980  0.00  0.00    -0.000 C 
ATOM     24  C   UNL     1      32.744 -12.774 -22.288  0.00  0.00    -0.000 C 
ENDBRANCH  14  15
ENDBRANCH   8  14
TORSDOF 3
ENDMDL
MODEL 6
REMARK VINA RESULT:     -10.7      3.889      9.125
REMARK  Name = 449087
REMARK  3 active torsions:
REMARK  status: ('A' for Active; 'I' for Inactive)
REMARK    1  A    between atoms: C_5  and  C_11
REMARK    2  A    between atoms: C_8  and  C_14
REMARK    3  A    between atoms: C_14  and  C_15
REMARK                            x       y       z     vdW  Elec       q    Type
REMARK                         _______ _______ _______ _____ _____    ______ ____
ROOT
ATOM      1  O   UNL     1      33.176 -20.867 -19.668  0.00  0.00    -0.274 OA
ATOM      2  N   UNL     1      33.242 -23.799 -15.765  0.00  0.00    -0.239 N 
ATOM      3  N   UNL     1      34.340 -23.523 -16.489  0.00  0.00    -0.166 NA
ATOM      4  N   UNL     1      34.686 -22.162 -18.419  0.00  0.00    -0.268 N 
ATOM      5  C   UNL     1      32.112 -23.187 -16.222  0.00  0.00    +0.045 C 
ATOM      6  C   UNL     1      32.498 -22.458 -17.320  0.00  0.00    +0.048 C 
ATOM      7  C   UNL     1      33.868 -22.711 -17.424  0.00  0.00    +0.152 C 
ATOM      8  C   UNL     1      34.300 -21.303 -19.445  0.00  0.00    +0.232 C 
ATOM      9  H   UNL     1      33.252 -24.390 -14.978  0.00  0.00    +0.174 HD
ATOM     10  H   UNL     1      35.639 -22.411 -18.391  0.00  0.00    +0.156 HD
ENDROOT
BRANCH   5  11
ATOM     11  C   UNL     1      30.714 -23.293 -15.628  0.00  0.00    +0.037 C 
ATOM     12  C   UNL     1      30.148 -24.656 -15.317  0.00  0.00    +0.006 C 
ATOM     13  C   UNL     1      30.555 -23.743 -14.198  0.00  0.00    +0.006 C 
ENDBRANCH   5  11
BRANCH   8  14
ATOM     14  C   UNL     1      35.495 -20.932 -20.320  0.00  0.00    +0.112 C 
BRANCH  14  15
ATOM     15  C   UNL     1      35.304 -19.676 -21.103  0.00  0.00    -0.013 C 
ATOM     16  C   UNL     1      34.500 -18.547 -23.101  0.00  0.00    -0.000 C 
ATOM     17  C   UNL     1      34.686 -19.720 -22.352  0.00  0.00    -0.004 C 
ATOM     18  C   UNL     1      34.945 -17.311 -22.575  0.00  0.00    -0.000 C 
ATOM     19  C   UNL     1      35.743 -18.461 -20.586  0.00  0.00    -0.004 C 
ATOM     20  C   UNL     1      35.566 -17.286 -21.316  0.00  0.00    -0.000 C 
ATOM     21  C   UNL     1      33.879 -18.573 -24.362  0.00  0.00    -0.000 C 
ATOM     22  C   UNL     1      34.758 -16.138 -23.324  0.00  0.00    -0.000 C 
ATOM     23  C   UNL     1      33.702 -17.397 -25.092  0.00  0.00    -0.000 C 
ATOM     24  C   UNL     1      34.141 -16.182 -24.575  0.00  0.00    -0.000 C 
ENDBRANCH  14  15
ENDBRANCH   8  14
TORSDOF 3
ENDMDL
MODEL 7
REMARK VINA RESULT:     -10.5      2.318      8.033
REMARK  Name = 449087
REMARK  3 active torsions:
REMARK  status: ('A' for Active; 'I' for Inactive)
REMARK    1  A    between atoms: C_5  and  C_11
REMARK    2  A    between atoms: C_8  and  C_14
REMARK    3  A    between atoms: C_14  and  C_15
REMARK                            x       y       z     vdW  Elec       q    Type
REMARK                         _______ _______ _______ _____ _____    ______ ____
ROOT
ATOM      1  O   UNL     1      34.000 -18.107 -23.316  0.00  0.00    -0.274 OA
ATOM      2  N   UNL     1      36.717 -19.980 -19.718  0.00  0.00    -0.239 N 
ATOM      3  N   UNL     1      37.036 -18.842 -20.357  0.00  0.00    -0.166 NA
ATOM      4  N   UNL     1      35.972 -17.645 -22.127  0.00  0.00    -0.268 N 
ATOM      5  C   UNL     1      35.568 -20.561 -20.169  0.00  0.00    +0.045 C 
ATOM      6  C   UNL     1      35.102 -19.746 -21.170  0.00  0.00    +0.048 C 
ATOM      7  C   UNL     1      36.047 -18.718 -21.231  0.00  0.00    +0.152 C 
ATOM      8  C   UNL     1      34.984 -17.415 -23.081  0.00  0.00    +0.232 C 
ATOM      9  H   UNL     1      37.262 -20.361 -18.993  0.00  0.00    +0.174 HD
ATOM     10  H   UNL     1      36.696 -16.979 -22.076  0.00  0.00    +0.156 HD
ENDROOT
BRANCH   5  11
ATOM     11  C   UNL     1      34.937 -21.849 -19.658  0.00  0.00    +0.037 C 
ATOM     12  C   UNL     1      34.843 -22.083 -18.170  0.00  0.00    +0.006 C 
ATOM     13  C   UNL     1      33.601 -21.788 -18.961  0.00  0.00    +0.006 C 
ENDBRANCH   5  11
BRANCH   8  14
ATOM     14  C   UNL     1      35.268 -16.131 -23.856  0.00  0.00    +0.112 C 
BRANCH  14  15
ATOM     15  C   UNL     1      34.462 -14.960 -23.403  0.00  0.00    -0.013 C 
ATOM     16  C   UNL     1      33.179 -13.837 -21.668  0.00  0.00    -0.000 C 
ATOM     17  C   UNL     1      33.939 -14.932 -22.110  0.00  0.00    -0.004 C 
ATOM     18  C   UNL     1      32.947 -12.754 -22.549  0.00  0.00    -0.000 C 
ATOM     19  C   UNL     1      34.234 -13.895 -24.269  0.00  0.00    -0.004 C 
ATOM     20  C   UNL     1      33.482 -12.799 -23.846  0.00  0.00    -0.000 C 
ATOM     21  C   UNL     1      32.644 -13.793 -20.369  0.00  0.00    -0.000 C 
ATOM     22  C   UNL     1      32.187 -11.659 -22.106  0.00  0.00    -0.000 C 
ATOM     23  C   UNL     1      31.891 -12.697 -19.947  0.00  0.00    -0.000 C 
ATOM     24  C   UNL     1      31.663 -11.632 -20.813  0.00  0.00    -0.000 C 
ENDBRANCH  14  15
ENDBRANCH   8  14
TORSDOF 3
ENDMDL
MODEL 8
REMARK VINA RESULT:     -10.4      5.621     10.416
REMARK  Name = 449087
REMARK  3 active torsions:
REMARK  status: ('A' for Active; 'I' for Inactive)
REMARK    1  A    between atoms: C_5  and  C_11
REMARK    2  A    between atoms: C_8  and  C_14
REMARK    3  A    between atoms: C_14  and  C_15
REMARK                            x       y       z     vdW  Elec       q    Type
REMARK                         _______ _______ _______ _____ _____    ______ ____
ROOT
ATOM      1  O   UNL     1      35.420 -22.842 -16.979  0.00  0.00    -0.274 OA
ATOM      2  N   UNL     1      34.455 -24.668 -12.555  0.00  0.00    -0.239 N 
ATOM      3  N   UNL     1      33.506 -24.471 -13.486  0.00  0.00    -0.166 NA
ATOM      4  N   UNL     1      33.599 -23.618 -15.714  0.00  0.00    -0.268 N 
ATOM      5  C   UNL     1      35.707 -24.309 -12.960  0.00  0.00    +0.045 C 
ATOM      6  C   UNL     1      35.568 -23.848 -14.246  0.00  0.00    +0.048 C 
ATOM      7  C   UNL     1      34.200 -23.975 -14.501  0.00  0.00    +0.152 C 
ATOM      8  C   UNL     1      34.228 -23.091 -16.839  0.00  0.00    +0.232 C 
ATOM      9  H   UNL     1      34.263 -25.035 -11.663  0.00  0.00    +0.174 HD
ATOM     10  H   UNL     1      32.626 -23.754 -15.779  0.00  0.00    +0.156 HD
ENDROOT
BRANCH   5  11
ATOM     11  C   UNL     1      36.990 -24.407 -12.147  0.00  0.00    +0.037 C 
ATOM     12  C   UNL     1      37.621 -25.760 -11.926  0.00  0.00    +0.006 C 
ATOM     13  C   UNL     1      38.277 -24.769 -12.844  0.00  0.00    +0.006 C 
ENDBRANCH   5  11
BRANCH   8  14
ATOM     14  C   UNL     1      33.218 -22.839 -17.956  0.00  0.00    +0.112 C 
BRANCH  14  15
ATOM     15  C   UNL     1      33.641 -21.790 -18.930  0.00  0.00    -0.013 C 
ATOM     16  C   UNL     1      35.406 -20.495 -19.988  0.00  0.00    -0.000 C 
ATOM     17  C   UNL     1      34.993 -21.479 -19.076  0.00  0.00    -0.004 C 
ATOM     18  C   UNL     1      34.436 -19.818 -20.764  0.00  0.00    -0.000 C 
ATOM     19  C   UNL     1      32.686 -21.125 -19.693  0.00  0.00    -0.004 C 
ATOM     20  C   UNL     1      33.080 -20.145 -20.604  0.00  0.00    -0.000 C 
ATOM     21  C   UNL     1      36.764 -20.168 -20.147  0.00  0.00    -0.000 C 
ATOM     22  C   UNL     1      34.851 -18.834 -21.677  0.00  0.00    -0.000 C 
ATOM     23  C   UNL     1      37.157 -19.187 -21.058  0.00  0.00    -0.000 C 
ATOM     24  C   UNL     1      36.203 -18.521 -21.821  0.00  0.00    -0.000 C 
ENDBRANCH  14  15
ENDBRANCH   8  14
TORSDOF 3
ENDMDL
MODEL 9
REMARK VINA RESULT:     -10.4      5.760     10.761
REMARK  Name = 449087
REMARK  3 active torsions:
REMARK  status: ('A' for Active; 'I' for Inactive)
REMARK    1  A    between atoms: C_5  and  C_11
REMARK    2  A    between atoms: C_8  and  C_14
REMARK    3  A    between atoms: C_14  and  C_15
REMARK                            x       y       z     vdW  Elec       q    Type
REMARK                         _______ _______ _______ _____ _____    ______ ____
ROOT
ATOM      1  O   UNL     1      33.655 -22.493 -15.171  0.00  0.00    -0.274 OA
ATOM      2  N   UNL     1      36.355 -26.341 -13.852  0.00  0.00    -0.239 N 
ATOM      3  N   UNL     1      35.854 -26.191 -15.090  0.00  0.00    -0.166 NA
ATOM      4  N   UNL     1      34.519 -24.479 -16.081  0.00  0.00    -0.268 N 
ATOM      5  C   UNL     1      36.038 -25.322 -13.002  0.00  0.00    +0.045 C 
ATOM      6  C   UNL     1      35.279 -24.443 -13.735  0.00  0.00    +0.048 C 
ATOM      7  C   UNL     1      35.207 -25.038 -14.998  0.00  0.00    +0.152 C 
ATOM      8  C   UNL     1      33.809 -23.280 -16.098  0.00  0.00    +0.232 C 
ATOM      9  H   UNL     1      36.900 -27.115 -13.583  0.00  0.00    +0.174 HD
ATOM     10  H   UNL     1      34.538 -24.988 -16.924  0.00  0.00    +0.156 HD
ENDROOT
BRANCH   5  11
ATOM     11  C   UNL     1      36.450 -25.192 -11.542  0.00  0.00    +0.037 C 
ATOM     12  C   UNL     1      37.554 -24.232 -11.171  0.00  0.00    +0.006 C 
ATOM     13  C   UNL     1      36.134 -23.918 -10.799  0.00  0.00    +0.006 C 
ENDBRANCH   5  11
BRANCH   8  14
ATOM     14  C   UNL     1      33.205 -23.027 -17.477  0.00  0.00    +0.112 C 
BRANCH  14  15
ATOM     15  C   UNL     1      34.048 -22.169 -18.359  0.00  0.00    -0.013 C 
ATOM     16  C   UNL     1      34.232 -20.574 -20.187  0.00  0.00    -0.000 C 
ATOM     17  C   UNL     1      33.452 -21.387 -19.348  0.00  0.00    -0.004 C 
ATOM     18  C   UNL     1      35.636 -20.552 -20.018  0.00  0.00    -0.000 C 
ATOM     19  C   UNL     1      35.430 -22.146 -18.193  0.00  0.00    -0.004 C 
ATOM     20  C   UNL     1      36.220 -21.344 -19.016  0.00  0.00    -0.000 C 
ATOM     21  C   UNL     1      33.647 -19.782 -21.189  0.00  0.00    -0.000 C 
ATOM     22  C   UNL     1      36.416 -19.738 -20.856  0.00  0.00    -0.000 C 
ATOM     23  C   UNL     1      34.438 -18.980 -22.013  0.00  0.00    -0.000 C 
ATOM     24  C   UNL     1      35.819 -18.958 -21.847  0.00  0.00    -0.000 C 
ENDBRANCH  14  15
ENDBRANCH   8  14
TORSDOF 3
ENDMDL
