MODEL 1
REMARK VINA RESULT:     -11.8      0.000      0.000
REMARK  Name = 15984937
REMARK  6 active torsions:
REMARK  status: ('A' for Active; 'I' for Inactive)
REMARK    1  A    between atoms: C_1  and  C_9
REMARK    2  A    between atoms: C_1  and  C_20
REMARK    3  A    between atoms: C_4  and  N_10
REMARK    4  A    between atoms: N_10  and  C_13
REMARK    5  A    between atoms: C_19  and  C_25
REMARK    6  A    between atoms: C_25  and  N_26
REMARK                            x       y       z     vdW  Elec       q    Type
REMARK                         _______ _______ _______ _____ _____    ______ ____
ROOT
ATOM      1  C   UNL     1      30.893 -11.597 -20.886  0.00  0.00    +0.112 C 
ENDROOT
BRANCH   1   9
ATOM      2  O   UNL     1      31.456 -10.590 -18.817  0.00  0.00    -0.275 OA
ATOM      3  N   UNL     1      32.006  -9.396 -20.733  0.00  0.00    -0.279 N 
ATOM      4  C   UNL     1      31.920  -6.722 -21.876  0.00  0.00    +0.072 C 
ATOM      5  C   UNL     1      31.364  -7.943 -22.617  0.00  0.00    +0.041 C 
ATOM      6  C   UNL     1      31.963  -6.958 -20.362  0.00  0.00    +0.041 C 
ATOM      7  C   UNL     1      32.042  -9.246 -22.192  0.00  0.00    +0.095 C 
ATOM      8  C   UNL     1      32.612  -8.291 -19.989  0.00  0.00    +0.095 C 
ATOM      9  C   UNL     1      31.475 -10.488 -20.046  0.00  0.00    +0.230 C 
BRANCH   4  10
ATOM     10  N   UNL     1      33.243  -6.401 -22.374  0.00  0.00    -0.334 N 
ATOM     11  H   UNL     1      34.018  -6.598 -21.799  0.00  0.00    +0.147 HD
BRANCH  10  13
ATOM     12  F   UNL     1      31.879  -3.530 -25.968  0.00  0.00    -0.204 F 
ATOM     13  C   UNL     1      33.476  -5.831 -23.612  0.00  0.00    +0.047 C 
ATOM     14  C   UNL     1      32.544  -4.945 -24.189  0.00  0.00    +0.044 C 
ATOM     15  C   UNL     1      34.650  -6.120 -24.335  0.00  0.00    +0.014 C 
ATOM     16  C   UNL     1      32.778  -4.371 -25.439  0.00  0.00    +0.141 C 
ATOM     17  C   UNL     1      34.884  -5.547 -25.585  0.00  0.00    +0.004 C 
ATOM     18  C   UNL     1      33.947  -4.672 -26.136  0.00  0.00    +0.030 C 
ENDBRANCH  10  13
ENDBRANCH   4  10
ENDBRANCH   1   9
BRANCH   1  20
ATOM     19  C   UNL     1      33.943 -14.361 -22.060  0.00  0.00    -0.043 C 
ATOM     20  C   UNL     1      31.959 -12.563 -21.296  0.00  0.00    -0.013 C 
ATOM     21  C   UNL     1      33.456 -14.374 -20.753  0.00  0.00    -0.007 C 
ATOM     22  C   UNL     1      33.437 -13.448 -22.984  0.00  0.00    -0.007 C 
ATOM     23  C   UNL     1      32.462 -13.473 -20.370  0.00  0.00    -0.004 C 
ATOM     24  C   UNL     1      32.443 -12.546 -22.602  0.00  0.00    -0.004 C 
BRANCH  19  25
ATOM     25  C   UNL     1      35.006 -15.323 -22.468  0.00  0.00    -0.050 C 
BRANCH  25  26
ATOM     26  N   UNL     1      34.504 -16.691 -22.586  0.00  0.00    +0.387 N 
ATOM     27  N   UNL     1      34.810 -19.513 -23.122  0.00  0.00    +0.382 N 
ATOM     28  C   UNL     1      34.644 -19.017 -21.752  0.00  0.00    -0.083 C 
ATOM     29  C   UNL     1      35.176 -17.579 -21.628  0.00  0.00    -0.099 C 
ATOM     30  C   UNL     1      34.674 -17.192 -23.956  0.00  0.00    -0.101 C 
ATOM     31  C   UNL     1      34.153 -18.624 -24.080  0.00  0.00    -0.105 C 
ATOM     32  C   UNL     1      35.383 -19.948 -20.792  0.00  0.00    -0.026 C 
ATOM     33  H   UNL     1      33.507 -16.681 -22.371  0.00  0.00    -0.079 HD
ATOM     34  H   UNL     1      34.399 -20.444 -23.194  0.00  0.00    -0.085 HD
ATOM     35  H   UNL     1      35.806 -19.547 -23.340  0.00  0.00    -0.085 HD
ENDBRANCH  25  26
ENDBRANCH  19  25
ENDBRANCH   1  20
TORSDOF 6
ENDMDL
MODEL 2
REMARK VINA RESULT:     -11.4      4.890      8.929
REMARK  Name = 15984937
REMARK  6 active torsions:
REMARK  status: ('A' for Active; 'I' for Inactive)
REMARK    1  A    between atoms: C_1  and  C_9
REMARK    2  A    between atoms: C_1  and  C_20
REMARK    3  A    between atoms: C_4  and  N_10
REMARK    4  A    between atoms: N_10  and  C_13
REMARK    5  A    between atoms: C_19  and  C_25
REMARK    6  A    between atoms: C_25  and  N_26
REMARK                            x       y       z     vdW  Elec       q    Type
REMARK                         _______ _______ _______ _____ _____    ______ ____
ROOT
ATOM      1  C   UNL     1      35.764 -19.133 -21.256  0.00  0.00    +0.112 C 
ENDROOT
BRANCH   1   9
ATOM      2  O   UNL     1      35.066 -20.082 -23.312  0.00  0.00    -0.275 OA
ATOM      3  N   UNL     1      34.562 -17.837 -22.983  0.00  0.00    -0.279 N 
ATOM      4  C   UNL     1      34.600 -15.256 -24.323  0.00  0.00    +0.072 C 
ATOM      5  C   UNL     1      35.236 -15.467 -22.945  0.00  0.00    +0.041 C 
ATOM      6  C   UNL     1      34.495 -16.573 -25.099  0.00  0.00    +0.041 C 
ATOM      7  C   UNL     1      34.589 -16.616 -22.170  0.00  0.00    +0.095 C 
ATOM      8  C   UNL     1      33.880 -17.701 -24.270  0.00  0.00    +0.095 C 
ATOM      9  C   UNL     1      35.101 -19.069 -22.608  0.00  0.00    +0.230 C 
BRANCH   4  10
ATOM     10  N   UNL     1      33.291 -14.651 -24.176  0.00  0.00    -0.334 N 
ATOM     11  H   UNL     1      32.515 -15.118 -24.564  0.00  0.00    +0.147 HD
BRANCH  10  13
ATOM     12  F   UNL     1      31.312 -12.158 -20.586  0.00  0.00    -0.204 F 
ATOM     13  C   UNL     1      33.072 -13.452 -23.522  0.00  0.00    +0.047 C 
ATOM     14  C   UNL     1      32.285 -13.397 -22.354  0.00  0.00    +0.044 C 
ATOM     15  C   UNL     1      33.626 -12.250 -24.004  0.00  0.00    +0.014 C 
ATOM     16  C   UNL     1      32.062 -12.188 -21.696  0.00  0.00    +0.141 C 
ATOM     17  C   UNL     1      33.404 -11.041 -23.346  0.00  0.00    +0.004 C 
ATOM     18  C   UNL     1      32.621 -11.010 -22.191  0.00  0.00    +0.030 C 
ENDBRANCH  10  13
ENDBRANCH   4  10
ENDBRANCH   1   9
BRANCH   1  20
ATOM     19  C   UNL     1      33.979 -22.190 -18.849  0.00  0.00    -0.043 C 
ATOM     20  C   UNL     1      35.140 -20.201 -20.414  0.00  0.00    -0.013 C 
ATOM     21  C   UNL     1      33.172 -21.272 -19.521  0.00  0.00    -0.007 C 
ATOM     22  C   UNL     1      35.367 -22.112 -18.961  0.00  0.00    -0.007 C 
ATOM     23  C   UNL     1      33.753 -20.276 -20.306  0.00  0.00    -0.004 C 
ATOM     24  C   UNL     1      35.949 -21.116 -19.745  0.00  0.00    -0.004 C 
BRANCH  19  25
ATOM     25  C   UNL     1      33.358 -23.255 -18.010  0.00  0.00    -0.050 C 
BRANCH  25  26
ATOM     26  N   UNL     1      33.308 -22.890 -16.595  0.00  0.00    +0.387 N 
ATOM     27  N   UNL     1      32.932 -23.480 -13.792  0.00  0.00    +0.382 N 
ATOM     28  C   UNL     1      34.271 -23.240 -14.342  0.00  0.00    -0.083 C 
ATOM     29  C   UNL     1      34.323 -23.627 -15.830  0.00  0.00    -0.099 C 
ATOM     30  C   UNL     1      31.970 -23.136 -16.041  0.00  0.00    -0.101 C 
ATOM     31  C   UNL     1      31.918 -22.759 -14.560  0.00  0.00    -0.105 C 
ATOM     32  C   UNL     1      35.291 -24.047 -13.541  0.00  0.00    -0.026 C 
ATOM     33  H   UNL     1      33.508 -21.893 -16.519  0.00  0.00    -0.079 HD
ATOM     34  H   UNL     1      32.906 -23.163 -12.823  0.00  0.00    -0.085 HD
ATOM     35  H   UNL     1      32.732 -24.479 -13.845  0.00  0.00    -0.085 HD
ENDBRANCH  25  26
ENDBRANCH  19  25
ENDBRANCH   1  20
TORSDOF 6
ENDMDL
MODEL 3
REMARK VINA RESULT:     -11.1      6.205     11.085
REMARK  Name = 15984937
REMARK  6 active torsions:
REMARK  status: ('A' for Active; 'I' for Inactive)
REMARK    1  A    between atoms: C_1  and  C_9
REMARK    2  A    between atoms: C_1  and  C_20
REMARK    3  A    between atoms: C_4  and  N_10
REMARK    4  A    between atoms: N_10  and  C_13
REMARK    5  A    between atoms: C_19  and  C_25
REMARK    6  A    between atoms: C_25  and  N_26
REMARK                            x       y       z     vdW  Elec       q    Type
REMARK                         _______ _______ _______ _____ _____    ______ ____
ROOT
ATOM      1  C   UNL     1      36.612 -21.350 -19.161  0.00  0.00    +0.112 C 
ENDROOT
BRANCH   1   9
ATOM      2  O   UNL     1      34.354 -21.772 -19.742  0.00  0.00    -0.275 OA
ATOM      3  N   UNL     1      35.273 -19.790 -20.532  0.00  0.00    -0.279 N 
ATOM      4  C   UNL     1      35.452 -18.132 -22.915  0.00  0.00    +0.072 C 
ATOM      5  C   UNL     1      36.695 -18.568 -22.132  0.00  0.00    +0.041 C 
ATOM      6  C   UNL     1      34.275 -19.083 -22.674  0.00  0.00    +0.041 C 
ATOM      7  C   UNL     1      36.391 -18.849 -20.660  0.00  0.00    +0.095 C 
ATOM      8  C   UNL     1      34.037 -19.364 -21.190  0.00  0.00    +0.095 C 
ATOM      9  C   UNL     1      35.309 -20.997 -19.833  0.00  0.00    +0.230 C 
BRANCH   4  10
ATOM     10  N   UNL     1      35.089 -16.776 -22.552  0.00  0.00    -0.334 N 
ATOM     11  H   UNL     1      35.269 -16.477 -21.631  0.00  0.00    +0.147 HD
BRANCH  10  13
ATOM     12  F   UNL     1      33.568 -12.347 -23.591  0.00  0.00    -0.204 F 
ATOM     13  C   UNL     1      34.501 -15.882 -23.427  0.00  0.00    +0.047 C 
ATOM     14  C   UNL     1      34.322 -14.530 -23.069  0.00  0.00    +0.044 C 
ATOM     15  C   UNL     1      34.063 -16.293 -24.700  0.00  0.00    +0.014 C 
ATOM     16  C   UNL     1      33.727 -13.628 -23.951  0.00  0.00    +0.141 C 
ATOM     17  C   UNL     1      33.468 -15.391 -25.582  0.00  0.00    +0.004 C 
ATOM     18  C   UNL     1      33.301 -14.058 -25.207  0.00  0.00    +0.030 C 
ENDBRANCH  10  13
ENDBRANCH   4  10
ENDBRANCH   1   9
BRANCH   1  20
ATOM     19  C   UNL     1      35.913 -22.834 -15.207  0.00  0.00    -0.043 C 
ATOM     20  C   UNL     1      36.368 -21.868 -17.779  0.00  0.00    -0.013 C 
ATOM     21  C   UNL     1      34.910 -22.922 -16.172  0.00  0.00    -0.007 C 
ATOM     22  C   UNL     1      37.143 -22.261 -15.530  0.00  0.00    -0.007 C 
ATOM     23  C   UNL     1      35.137 -22.439 -17.461  0.00  0.00    -0.004 C 
ATOM     24  C   UNL     1      37.371 -21.777 -16.818  0.00  0.00    -0.004 C 
BRANCH  19  25
ATOM     25  C   UNL     1      35.670 -23.349 -13.830  0.00  0.00    -0.050 C 
BRANCH  25  26
ATOM     26  N   UNL     1      36.356 -24.617 -13.580  0.00  0.00    +0.387 N 
ATOM     27  N   UNL     1      38.105 -26.791 -14.326  0.00  0.00    +0.382 N 
ATOM     28  C   UNL     1      38.534 -25.772 -13.362  0.00  0.00    -0.083 C 
ATOM     29  C   UNL     1      37.814 -24.439 -13.627  0.00  0.00    -0.099 C 
ATOM     30  C   UNL     1      35.933 -25.637 -14.548  0.00  0.00    -0.101 C 
ATOM     31  C   UNL     1      36.653 -26.961 -14.291  0.00  0.00    -0.105 C 
ATOM     32  C   UNL     1      40.048 -25.594 -13.465  0.00  0.00    -0.026 C 
ATOM     33  H   UNL     1      36.101 -24.935 -12.646  0.00  0.00    -0.079 HD
ATOM     34  H   UNL     1      38.551 -27.679 -14.095  0.00  0.00    -0.085 HD
ATOM     35  H   UNL     1      38.376 -26.490 -15.262  0.00  0.00    -0.085 HD
ENDBRANCH  25  26
ENDBRANCH  19  25
ENDBRANCH   1  20
TORSDOF 6
ENDMDL
MODEL 4
REMARK VINA RESULT:     -11.1      6.421     11.230
REMARK  Name = 15984937
REMARK  6 active torsions:
REMARK  status: ('A' for Active; 'I' for Inactive)
REMARK    1  A    between atoms: C_1  and  C_9
REMARK    2  A    between atoms: C_1  and  C_20
REMARK    3  A    between atoms: C_4  and  N_10
REMARK    4  A    between atoms: N_10  and  C_13
REMARK    5  A    between atoms: C_19  and  C_25
REMARK    6  A    between atoms: C_25  and  N_26
REMARK                            x       y       z     vdW  Elec       q    Type
REMARK                         _______ _______ _______ _____ _____    ______ ____
ROOT
ATOM      1  C   UNL     1      36.213 -21.486 -19.170  0.00  0.00    +0.112 C 
ENDROOT
BRANCH   1   9
ATOM      2  O   UNL     1      33.938 -21.570 -19.826  0.00  0.00    -0.275 OA
ATOM      3  N   UNL     1      35.180 -19.774 -20.622  0.00  0.00    -0.279 N 
ATOM      4  C   UNL     1      35.695 -18.226 -23.030  0.00  0.00    +0.072 C 
ATOM      5  C   UNL     1      36.828 -18.828 -22.192  0.00  0.00    +0.041 C 
ATOM      6  C   UNL     1      34.377 -18.978 -22.813  0.00  0.00    +0.041 C 
ATOM      7  C   UNL     1      36.434 -19.021 -20.726  0.00  0.00    +0.095 C 
ATOM      8  C   UNL     1      34.048 -19.181 -21.334  0.00  0.00    +0.095 C 
ATOM      9  C   UNL     1      35.005 -20.954 -19.898  0.00  0.00    +0.230 C 
BRANCH   4  10
ATOM     10  N   UNL     1      35.534 -16.822 -22.708  0.00  0.00    -0.334 N 
ATOM     11  H   UNL     1      35.982 -16.474 -21.902  0.00  0.00    +0.147 HD
BRANCH  10  13
ATOM     12  F   UNL     1      33.210 -12.652 -23.187  0.00  0.00    -0.204 F 
ATOM     13  C   UNL     1      34.784 -15.944 -23.469  0.00  0.00    +0.047 C 
ATOM     14  C   UNL     1      34.360 -14.708 -22.941  0.00  0.00    +0.044 C 
ATOM     15  C   UNL     1      34.421 -16.259 -24.793  0.00  0.00    +0.014 C 
ATOM     16  C   UNL     1      33.602 -13.823 -23.708  0.00  0.00    +0.141 C 
ATOM     17  C   UNL     1      33.663 -15.374 -25.560  0.00  0.00    +0.004 C 
ATOM     18  C   UNL     1      33.254 -14.155 -25.016  0.00  0.00    +0.030 C 
ENDBRANCH  10  13
ENDBRANCH   4  10
ENDBRANCH   1   9
BRANCH   1  20
ATOM     19  C   UNL     1      35.121 -22.932 -15.292  0.00  0.00    -0.043 C 
ATOM     20  C   UNL     1      35.831 -21.992 -17.815  0.00  0.00    -0.013 C 
ATOM     21  C   UNL     1      36.361 -22.324 -15.486  0.00  0.00    -0.007 C 
ATOM     22  C   UNL     1      34.237 -23.069 -16.362  0.00  0.00    -0.007 C 
ATOM     23  C   UNL     1      36.718 -21.853 -16.749  0.00  0.00    -0.004 C 
ATOM     24  C   UNL     1      34.593 -22.599 -17.626  0.00  0.00    -0.004 C 
BRANCH  19  25
ATOM     25  C   UNL     1      34.741 -23.436 -13.942  0.00  0.00    -0.050 C 
BRANCH  25  26
ATOM     26  N   UNL     1      35.875 -23.469 -13.020  0.00  0.00    +0.387 N 
ATOM     27  N   UNL     1      37.586 -24.758 -11.082  0.00  0.00    +0.382 N 
ATOM     28  C   UNL     1      38.042 -24.524 -12.456  0.00  0.00    -0.083 C 
ATOM     29  C   UNL     1      36.848 -24.493 -13.425  0.00  0.00    -0.099 C 
ATOM     30  C   UNL     1      35.421 -23.709 -11.644  0.00  0.00    -0.101 C 
ATOM     31  C   UNL     1      36.607 -23.748 -10.680  0.00  0.00    -0.105 C 
ATOM     32  C   UNL     1      39.025 -25.626 -12.849  0.00  0.00    -0.026 C 
ATOM     33  H   UNL     1      36.334 -22.559 -13.052  0.00  0.00    -0.079 HD
ATOM     34  H   UNL     1      38.387 -24.716 -10.451  0.00  0.00    -0.085 HD
ATOM     35  H   UNL     1      37.144 -25.676 -11.035  0.00  0.00    -0.085 HD
ENDBRANCH  25  26
ENDBRANCH  19  25
ENDBRANCH   1  20
TORSDOF 6
ENDMDL
MODEL 5
REMARK VINA RESULT:     -10.5      7.577     14.886
REMARK  Name = 15984937
REMARK  6 active torsions:
REMARK  status: ('A' for Active; 'I' for Inactive)
REMARK    1  A    between atoms: C_1  and  C_9
REMARK    2  A    between atoms: C_1  and  C_20
REMARK    3  A    between atoms: C_4  and  N_10
REMARK    4  A    between atoms: N_10  and  C_13
REMARK    5  A    between atoms: C_19  and  C_25
REMARK    6  A    between atoms: C_25  and  N_26
REMARK                            x       y       z     vdW  Elec       q    Type
REMARK                         _______ _______ _______ _____ _____    ______ ____
ROOT
ATOM      1  C   UNL     1      35.852 -21.116 -19.043  0.00  0.00    +0.112 C 
ENDROOT
BRANCH   1   9
ATOM      2  O   UNL     1      33.608 -21.739 -19.477  0.00  0.00    -0.275 OA
ATOM      3  N   UNL     1      34.581 -22.637 -17.568  0.00  0.00    -0.279 N 
ATOM      4  C   UNL     1      34.059 -23.165 -14.756  0.00  0.00    +0.072 C 
ATOM      5  C   UNL     1      35.315 -22.423 -15.225  0.00  0.00    +0.041 C 
ATOM      6  C   UNL     1      32.930 -23.063 -15.787  0.00  0.00    +0.041 C 
ATOM      7  C   UNL     1      35.717 -22.795 -16.653  0.00  0.00    +0.095 C 
ATOM      8  C   UNL     1      33.390 -23.406 -17.204  0.00  0.00    +0.095 C 
ATOM      9  C   UNL     1      34.578 -21.855 -18.724  0.00  0.00    +0.230 C 
BRANCH   4  10
ATOM     10  N   UNL     1      34.377 -24.554 -14.490  0.00  0.00    -0.334 N 
ATOM     11  H   UNL     1      33.784 -25.247 -14.863  0.00  0.00    +0.147 HD
BRANCH  10  13
ATOM     12  F   UNL     1      38.683 -26.646 -14.178  0.00  0.00    -0.204 F 
ATOM     13  C   UNL     1      35.465 -24.960 -13.739  0.00  0.00    +0.047 C 
ATOM     14  C   UNL     1      36.557 -25.615 -14.342  0.00  0.00    +0.044 C 
ATOM     15  C   UNL     1      35.514 -24.731 -12.350  0.00  0.00    +0.014 C 
ATOM     16  C   UNL     1      37.654 -26.025 -13.585  0.00  0.00    +0.141 C 
ATOM     17  C   UNL     1      36.611 -25.142 -11.593  0.00  0.00    +0.004 C 
ATOM     18  C   UNL     1      37.681 -25.789 -12.211  0.00  0.00    +0.030 C 
ENDBRANCH  10  13
ENDBRANCH   4  10
ENDBRANCH   1   9
BRANCH   1  20
ATOM     19  C   UNL     1      35.331 -18.638 -22.495  0.00  0.00    -0.043 C 
ATOM     20  C   UNL     1      35.670 -20.250 -20.250  0.00  0.00    -0.013 C 
ATOM     21  C   UNL     1      34.261 -19.387 -22.006  0.00  0.00    -0.007 C 
ATOM     22  C   UNL     1      36.571 -18.697 -21.859  0.00  0.00    -0.007 C 
ATOM     23  C   UNL     1      34.430 -20.195 -20.881  0.00  0.00    -0.004 C 
ATOM     24  C   UNL     1      36.741 -19.505 -20.735  0.00  0.00    -0.004 C 
BRANCH  19  25
ATOM     25  C   UNL     1      35.150 -17.776 -23.697  0.00  0.00    -0.050 C 
BRANCH  25  26
ATOM     26  N   UNL     1      34.333 -16.595 -23.418  0.00  0.00    +0.387 N 
ATOM     27  N   UNL     1      33.895 -13.745 -23.249  0.00  0.00    +0.382 N 
ATOM     28  C   UNL     1      33.305 -14.538 -24.333  0.00  0.00    -0.083 C 
ATOM     29  C   UNL     1      34.166 -15.778 -24.628  0.00  0.00    -0.099 C 
ATOM     30  C   UNL     1      34.926 -15.797 -22.338  0.00  0.00    -0.101 C 
ATOM     31  C   UNL     1      34.076 -14.559 -22.048  0.00  0.00    -0.105 C 
ATOM     32  C   UNL     1      33.178 -13.663 -25.579  0.00  0.00    -0.026 C 
ATOM     33  H   UNL     1      33.413 -16.913 -23.114  0.00  0.00    -0.079 HD
ATOM     34  H   UNL     1      33.278 -12.962 -23.033  0.00  0.00    -0.085 HD
ATOM     35  H   UNL     1      34.808 -13.406 -23.553  0.00  0.00    -0.085 HD
ENDBRANCH  25  26
ENDBRANCH  19  25
ENDBRANCH   1  20
TORSDOF 6
ENDMDL
MODEL 6
REMARK VINA RESULT:     -10.5      6.224     10.924
REMARK  Name = 15984937
REMARK  6 active torsions:
REMARK  status: ('A' for Active; 'I' for Inactive)
REMARK    1  A    between atoms: C_1  and  C_9
REMARK    2  A    between atoms: C_1  and  C_20
REMARK    3  A    between atoms: C_4  and  N_10
REMARK    4  A    between atoms: N_10  and  C_13
REMARK    5  A    between atoms: C_19  and  C_25
REMARK    6  A    between atoms: C_25  and  N_26
REMARK                            x       y       z     vdW  Elec       q    Type
REMARK                         _______ _______ _______ _____ _____    ______ ____
ROOT
ATOM      1  C   UNL     1      36.125 -21.451 -19.215  0.00  0.00    +0.112 C 
ENDROOT
BRANCH   1   9
ATOM      2  O   UNL     1      33.881 -21.520 -19.972  0.00  0.00    -0.275 OA
ATOM      3  N   UNL     1      35.167 -19.729 -20.706  0.00  0.00    -0.279 N 
ATOM      4  C   UNL     1      35.796 -18.177 -23.084  0.00  0.00    +0.072 C 
ATOM      5  C   UNL     1      36.887 -18.787 -22.198  0.00  0.00    +0.041 C 
ATOM      6  C   UNL     1      34.466 -18.922 -22.928  0.00  0.00    +0.041 C 
ATOM      7  C   UNL     1      36.428 -18.982 -20.752  0.00  0.00    +0.095 C 
ATOM      8  C   UNL     1      34.071 -19.127 -21.466  0.00  0.00    +0.095 C 
ATOM      9  C   UNL     1      34.953 -20.910 -19.994  0.00  0.00    +0.230 C 
BRANCH   4  10
ATOM     10  N   UNL     1      35.629 -16.773 -22.764  0.00  0.00    -0.334 N 
ATOM     11  H   UNL     1      36.112 -16.411 -21.986  0.00  0.00    +0.147 HD
BRANCH  10  13
ATOM     12  F   UNL     1      33.005 -12.767 -23.068  0.00  0.00    -0.204 F 
ATOM     13  C   UNL     1      34.826 -15.914 -23.492  0.00  0.00    +0.047 C 
ATOM     14  C   UNL     1      34.302 -14.742 -22.908  0.00  0.00    +0.044 C 
ATOM     15  C   UNL     1      34.506 -16.183 -24.837  0.00  0.00    +0.014 C 
ATOM     16  C   UNL     1      33.491 -13.876 -23.642  0.00  0.00    +0.141 C 
ATOM     17  C   UNL     1      33.694 -15.318 -25.570  0.00  0.00    +0.004 C 
ATOM     18  C   UNL     1      33.187 -14.164 -24.972  0.00  0.00    +0.030 C 
ENDBRANCH  10  13
ENDBRANCH   4  10
ENDBRANCH   1   9
BRANCH   1  20
ATOM     19  C   UNL     1      34.830 -23.055 -15.463  0.00  0.00    -0.043 C 
ATOM     20  C   UNL     1      35.672 -22.012 -17.904  0.00  0.00    -0.013 C 
ATOM     21  C   UNL     1      36.083 -22.451 -15.568  0.00  0.00    -0.007 C 
ATOM     22  C   UNL     1      34.000 -23.136 -16.581  0.00  0.00    -0.007 C 
ATOM     23  C   UNL     1      36.505 -21.928 -16.791  0.00  0.00    -0.004 C 
ATOM     24  C   UNL     1      34.421 -22.614 -17.804  0.00  0.00    -0.004 C 
BRANCH  19  25
ATOM     25  C   UNL     1      34.379 -23.614 -14.157  0.00  0.00    -0.050 C 
BRANCH  25  26
ATOM     26  N   UNL     1      33.016 -24.141 -14.217  0.00  0.00    +0.387 N 
ATOM     27  N   UNL     1      30.288 -24.346 -13.290  0.00  0.00    +0.382 N 
ATOM     28  C   UNL     1      30.616 -23.616 -14.519  0.00  0.00    -0.083 C 
ATOM     29  C   UNL     1      32.049 -23.060 -14.453  0.00  0.00    -0.099 C 
ATOM     30  C   UNL     1      32.684 -24.866 -12.985  0.00  0.00    -0.101 C 
ATOM     31  C   UNL     1      31.257 -25.413 -13.045  0.00  0.00    -0.105 C 
ATOM     32  C   UNL     1      29.609 -22.484 -14.711  0.00  0.00    -0.026 C 
ATOM     33  H   UNL     1      32.965 -24.795 -14.998  0.00  0.00    -0.079 HD
ATOM     34  H   UNL     1      29.358 -24.753 -13.381  0.00  0.00    -0.085 HD
ATOM     35  H   UNL     1      30.316 -23.694 -12.506  0.00  0.00    -0.085 HD
ENDBRANCH  25  26
ENDBRANCH  19  25
ENDBRANCH   1  20
TORSDOF 6
ENDMDL
MODEL 7
REMARK VINA RESULT:     -10.4      0.885      1.643
REMARK  Name = 15984937
REMARK  6 active torsions:
REMARK  status: ('A' for Active; 'I' for Inactive)
REMARK    1  A    between atoms: C_1  and  C_9
REMARK    2  A    between atoms: C_1  and  C_20
REMARK    3  A    between atoms: C_4  and  N_10
REMARK    4  A    between atoms: N_10  and  C_13
REMARK    5  A    between atoms: C_19  and  C_25
REMARK    6  A    between atoms: C_25  and  N_26
REMARK                            x       y       z     vdW  Elec       q    Type
REMARK                         _______ _______ _______ _____ _____    ______ ____
ROOT
ATOM      1  C   UNL     1      30.978 -11.510 -21.176  0.00  0.00    +0.112 C 
ENDROOT
BRANCH   1   9
ATOM      2  O   UNL     1      31.323 -10.450 -19.086  0.00  0.00    -0.275 OA
ATOM      3  N   UNL     1      31.984  -9.262 -20.971  0.00  0.00    -0.279 N 
ATOM      4  C   UNL     1      31.886  -6.612 -22.165  0.00  0.00    +0.072 C 
ATOM      5  C   UNL     1      31.445  -7.865 -22.928  0.00  0.00    +0.041 C 
ATOM      6  C   UNL     1      31.811  -6.823 -20.649  0.00  0.00    +0.041 C 
ATOM      7  C   UNL     1      32.136  -9.132 -22.424  0.00  0.00    +0.095 C 
ATOM      8  C   UNL     1      32.480  -8.122 -20.199  0.00  0.00    +0.095 C 
ATOM      9  C   UNL     1      31.442 -10.366 -20.311  0.00  0.00    +0.230 C 
BRANCH   4  10
ATOM     10  N   UNL     1      33.232  -6.242 -22.557  0.00  0.00    -0.334 N 
ATOM     11  H   UNL     1      33.961  -6.379 -21.907  0.00  0.00    +0.147 HD
BRANCH  10  13
ATOM     12  F   UNL     1      32.112  -3.487 -26.321  0.00  0.00    -0.204 F 
ATOM     13  C   UNL     1      33.550  -5.707 -23.792  0.00  0.00    +0.047 C 
ATOM     14  C   UNL     1      32.656  -4.845 -24.459  0.00  0.00    +0.044 C 
ATOM     15  C   UNL     1      34.774  -6.007 -24.420  0.00  0.00    +0.014 C 
ATOM     16  C   UNL     1      32.975  -4.306 -25.705  0.00  0.00    +0.141 C 
ATOM     17  C   UNL     1      35.093  -5.468 -25.667  0.00  0.00    +0.004 C 
ATOM     18  C   UNL     1      34.193  -4.617 -26.308  0.00  0.00    +0.030 C 
ENDBRANCH  10  13
ENDBRANCH   4  10
ENDBRANCH   1   9
BRANCH   1  20
ATOM     19  C   UNL     1      33.997 -14.534 -21.423  0.00  0.00    -0.043 C 
ATOM     20  C   UNL     1      32.033 -12.566 -21.263  0.00  0.00    -0.013 C 
ATOM     21  C   UNL     1      33.115 -14.516 -20.343  0.00  0.00    -0.007 C 
ATOM     22  C   UNL     1      33.895 -13.567 -22.423  0.00  0.00    -0.007 C 
ATOM     23  C   UNL     1      32.131 -13.531 -20.262  0.00  0.00    -0.004 C 
ATOM     24  C   UNL     1      32.912 -12.581 -22.342  0.00  0.00    -0.004 C 
BRANCH  19  25
ATOM     25  C   UNL     1      35.049 -15.587 -21.509  0.00  0.00    -0.050 C 
BRANCH  25  26
ATOM     26  N   UNL     1      34.948 -16.377 -22.736  0.00  0.00    +0.387 N 
ATOM     27  N   UNL     1      33.562 -18.128 -24.567  0.00  0.00    +0.382 N 
ATOM     28  C   UNL     1      33.757 -16.709 -24.880  0.00  0.00    -0.083 C 
ATOM     29  C   UNL     1      33.860 -15.879 -23.589  0.00  0.00    -0.099 C 
ATOM     30  C   UNL     1      34.746 -17.797 -22.425  0.00  0.00    -0.101 C 
ATOM     31  C   UNL     1      34.636 -18.624 -23.707  0.00  0.00    -0.105 C 
ATOM     32  C   UNL     1      32.591 -16.223 -25.739  0.00  0.00    -0.026 C 
ATOM     33  H   UNL     1      35.826 -16.282 -23.246  0.00  0.00    -0.079 HD
ATOM     34  H   UNL     1      33.554 -18.664 -25.435  0.00  0.00    -0.085 HD
ATOM     35  H   UNL     1      32.675 -18.236 -24.075  0.00  0.00    -0.085 HD
ENDBRANCH  25  26
ENDBRANCH  19  25
ENDBRANCH   1  20
TORSDOF 6
ENDMDL
MODEL 8
REMARK VINA RESULT:     -10.3      6.750     11.495
REMARK  Name = 15984937
REMARK  6 active torsions:
REMARK  status: ('A' for Active; 'I' for Inactive)
REMARK    1  A    between atoms: C_1  and  C_9
REMARK    2  A    between atoms: C_1  and  C_20
REMARK    3  A    between atoms: C_4  and  N_10
REMARK    4  A    between atoms: N_10  and  C_13
REMARK    5  A    between atoms: C_19  and  C_25
REMARK    6  A    between atoms: C_25  and  N_26
REMARK                            x       y       z     vdW  Elec       q    Type
REMARK                         _______ _______ _______ _____ _____    ______ ____
ROOT
ATOM      1  C   UNL     1      34.107 -21.886 -19.104  0.00  0.00    +0.112 C 
ENDROOT
BRANCH   1   9
ATOM      2  O   UNL     1      36.473 -22.005 -19.148  0.00  0.00    -0.275 OA
ATOM      3  N   UNL     1      35.491 -20.401 -20.513  0.00  0.00    -0.279 N 
ATOM      4  C   UNL     1      35.733 -17.619 -21.327  0.00  0.00    +0.072 C 
ATOM      5  C   UNL     1      34.413 -18.205 -20.816  0.00  0.00    +0.041 C 
ATOM      6  C   UNL     1      36.936 -18.427 -20.827  0.00  0.00    +0.041 C 
ATOM      7  C   UNL     1      34.312 -19.713 -21.050  0.00  0.00    +0.095 C 
ATOM      8  C   UNL     1      36.769 -19.931 -21.047  0.00  0.00    +0.095 C 
ATOM      9  C   UNL     1      35.465 -21.443 -19.585  0.00  0.00    +0.230 C 
BRANCH   4  10
ATOM     10  N   UNL     1      35.724 -17.569 -22.775  0.00  0.00    -0.334 N 
ATOM     11  H   UNL     1      36.310 -18.191 -23.267  0.00  0.00    +0.147 HD
BRANCH  10  13
ATOM     12  F   UNL     1      33.922 -13.179 -23.485  0.00  0.00    -0.204 F 
ATOM     13  C   UNL     1      34.941 -16.695 -23.506  0.00  0.00    +0.047 C 
ATOM     14  C   UNL     1      34.817 -15.343 -23.127  0.00  0.00    +0.044 C 
ATOM     15  C   UNL     1      34.242 -17.128 -24.649  0.00  0.00    +0.014 C 
ATOM     16  C   UNL     1      34.025 -14.461 -23.862  0.00  0.00    +0.141 C 
ATOM     17  C   UNL     1      33.450 -16.247 -25.385  0.00  0.00    +0.004 C 
ATOM     18  C   UNL     1      33.342 -14.913 -24.991  0.00  0.00    +0.030 C 
ENDBRANCH  10  13
ENDBRANCH   4  10
ENDBRANCH   1   9
BRANCH   1  20
ATOM     19  C   UNL     1      34.364 -23.497 -15.146  0.00  0.00    -0.043 C 
ATOM     20  C   UNL     1      34.197 -22.450 -17.721  0.00  0.00    -0.013 C 
ATOM     21  C   UNL     1      35.461 -22.843 -15.705  0.00  0.00    -0.007 C 
ATOM     22  C   UNL     1      33.183 -23.626 -15.877  0.00  0.00    -0.007 C 
ATOM     23  C   UNL     1      35.378 -22.318 -16.995  0.00  0.00    -0.004 C 
ATOM     24  C   UNL     1      33.099 -23.102 -17.167  0.00  0.00    -0.004 C 
BRANCH  19  25
ATOM     25  C   UNL     1      34.453 -24.059 -13.768  0.00  0.00    -0.050 C 
BRANCH  25  26
ATOM     26  N   UNL     1      35.741 -23.778 -13.135  0.00  0.00    +0.387 N 
ATOM     27  N   UNL     1      37.891 -24.360 -11.296  0.00  0.00    +0.382 N 
ATOM     28  C   UNL     1      38.056 -24.558 -12.740  0.00  0.00    -0.083 C 
ATOM     29  C   UNL     1      36.701 -24.856 -13.405  0.00  0.00    -0.099 C 
ATOM     30  C   UNL     1      35.579 -23.586 -11.688  0.00  0.00    -0.101 C 
ATOM     31  C   UNL     1      36.925 -23.297 -11.024  0.00  0.00    -0.105 C 
ATOM     32  C   UNL     1      39.036 -25.707 -12.977  0.00  0.00    -0.026 C 
ATOM     33  H   UNL     1      36.107 -22.914 -13.534  0.00  0.00    -0.079 HD
ATOM     34  H   UNL     1      38.791 -24.108 -10.888  0.00  0.00    -0.085 HD
ATOM     35  H   UNL     1      37.545 -25.227 -10.885  0.00  0.00    -0.085 HD
ENDBRANCH  25  26
ENDBRANCH  19  25
ENDBRANCH   1  20
TORSDOF 6
ENDMDL
MODEL 9
REMARK VINA RESULT:     -10.2      7.030     14.221
REMARK  Name = 15984937
REMARK  6 active torsions:
REMARK  status: ('A' for Active; 'I' for Inactive)
REMARK    1  A    between atoms: C_1  and  C_9
REMARK    2  A    between atoms: C_1  and  C_20
REMARK    3  A    between atoms: C_4  and  N_10
REMARK    4  A    between atoms: N_10  and  C_13
REMARK    5  A    between atoms: C_19  and  C_25
REMARK    6  A    between atoms: C_25  and  N_26
REMARK                            x       y       z     vdW  Elec       q    Type
REMARK                         _______ _______ _______ _____ _____    ______ ____
ROOT
ATOM      1  C   UNL     1      35.315 -21.905 -19.339  0.00  0.00    +0.112 C 
ENDROOT
BRANCH   1   9
ATOM      2  O   UNL     1      37.109 -21.121 -18.005  0.00  0.00    -0.275 OA
ATOM      3  N   UNL     1      35.358 -22.155 -16.881  0.00  0.00    -0.279 N 
ATOM      4  C   UNL     1      34.801 -24.093 -14.784  0.00  0.00    +0.072 C 
ATOM      5  C   UNL     1      34.162 -24.191 -16.174  0.00  0.00    +0.041 C 
ATOM      6  C   UNL     1      36.106 -23.289 -14.823  0.00  0.00    +0.041 C 
ATOM      7  C   UNL     1      34.056 -22.832 -16.868  0.00  0.00    +0.095 C 
ATOM      8  C   UNL     1      35.959 -21.959 -15.562  0.00  0.00    +0.095 C 
ATOM      9  C   UNL     1      36.013 -21.688 -18.021  0.00  0.00    +0.230 C 
BRANCH   4  10
ATOM     10  N   UNL     1      33.867 -23.494 -13.852  0.00  0.00    -0.334 N 
ATOM     11  H   UNL     1      34.215 -22.851 -13.191  0.00  0.00    +0.147 HD
BRANCH  10  13
ATOM     12  F   UNL     1      29.315 -22.154 -14.564  0.00  0.00    -0.204 F 
ATOM     13  C   UNL     1      32.513 -23.778 -13.837  0.00  0.00    +0.047 C 
ATOM     14  C   UNL     1      31.565 -22.806 -14.215  0.00  0.00    +0.044 C 
ATOM     15  C   UNL     1      32.042 -25.045 -13.443  0.00  0.00    +0.014 C 
ATOM     16  C   UNL     1      30.200 -23.092 -14.199  0.00  0.00    +0.141 C 
ATOM     17  C   UNL     1      30.677 -25.331 -13.426  0.00  0.00    +0.004 C 
ATOM     18  C   UNL     1      29.756 -24.353 -13.805  0.00  0.00    +0.030 C 
ENDBRANCH  10  13
ENDBRANCH   4  10
ENDBRANCH   1   9
BRANCH   1  20
ATOM     19  C   UNL     1      35.619 -18.416 -21.801  0.00  0.00    -0.043 C 
ATOM     20  C   UNL     1      35.421 -20.686 -20.199  0.00  0.00    -0.013 C 
ATOM     21  C   UNL     1      36.746 -18.905 -21.141  0.00  0.00    -0.007 C 
ATOM     22  C   UNL     1      34.392 -19.065 -21.658  0.00  0.00    -0.007 C 
ATOM     23  C   UNL     1      36.648 -20.042 -20.339  0.00  0.00    -0.004 C 
ATOM     24  C   UNL     1      34.293 -20.202 -20.856  0.00  0.00    -0.004 C 
BRANCH  19  25
ATOM     25  C   UNL     1      35.724 -17.201 -22.657  0.00  0.00    -0.050 C 
BRANCH  25  26
ATOM     26  N   UNL     1      34.649 -16.243 -22.400  0.00  0.00    +0.387 N 
ATOM     27  N   UNL     1      33.631 -13.594 -21.862  0.00  0.00    +0.382 N 
ATOM     28  C   UNL     1      33.467 -14.214 -23.182  0.00  0.00    -0.083 C 
ATOM     29  C   UNL     1      34.599 -15.219 -23.452  0.00  0.00    -0.099 C 
ATOM     30  C   UNL     1      34.815 -15.617 -21.082  0.00  0.00    -0.101 C 
ATOM     31  C   UNL     1      33.694 -14.612 -20.814  0.00  0.00    -0.105 C 
ATOM     32  C   UNL     1      33.452 -13.121 -24.248  0.00  0.00    -0.026 C 
ATOM     33  H   UNL     1      33.765 -16.752 -22.404  0.00  0.00    -0.079 HD
ATOM     34  H   UNL     1      32.839 -12.977 -21.682  0.00  0.00    -0.085 HD
ATOM     35  H   UNL     1      34.503 -13.065 -21.856  0.00  0.00    -0.085 HD
ENDBRANCH  25  26
ENDBRANCH  19  25
ENDBRANCH   1  20
TORSDOF 6
ENDMDL
