MODEL 1
REMARK VINA RESULT:     -11.5      0.000      0.000
REMARK  Name = 445756
REMARK  6 active torsions:
REMARK  status: ('A' for Active; 'I' for Inactive)
REMARK    1  A    between atoms: C_3  and  C_11
REMARK    2  A    between atoms: C_6  and  C_22
REMARK    3  A    between atoms: C_11  and  N_12
REMARK    4  A    between atoms: C_22  and  N_23
REMARK    5  A    between atoms: N_23  and  C_25
REMARK    6  A    between atoms: C_30  and  C_33
REMARK                            x       y       z     vdW  Elec       q    Type
REMARK                         _______ _______ _______ _____ _____    ______ ____
ROOT
ATOM      1  N   UNL     1      34.513 -15.192 -22.451  0.00  0.00    -0.261 N 
ATOM      2  N   UNL     1      33.820 -15.216 -20.340  0.00  0.00    -0.392 NA
ATOM      3  C   UNL     1      31.883 -12.219 -21.450  0.00  0.00    -0.017 C 
ATOM      4  C   UNL     1      33.655 -14.129 -22.336  0.00  0.00    +0.079 C 
ATOM      5  C   UNL     1      33.236 -14.166 -21.009  0.00  0.00    +0.128 C 
ATOM      6  C   UNL     1      34.580 -15.809 -21.233  0.00  0.00    +0.183 C 
ATOM      7  C   UNL     1      32.331 -13.194 -20.549  0.00  0.00    +0.084 C 
ATOM      8  C   UNL     1      32.321 -12.209 -22.776  0.00  0.00    -0.005 C 
ATOM      9  C   UNL     1      33.221 -13.169 -23.251  0.00  0.00    +0.017 C 
ATOM     10  C   UNL     1      35.220 -15.587 -23.649  0.00  0.00    +0.120 C 
ENDROOT
BRANCH   3  11
ATOM     11  C   UNL     1      30.920 -11.177 -20.984  0.00  0.00    +0.120 C 
BRANCH  11  12
ATOM     12  N   UNL     1      31.603  -9.936 -20.604  0.00  0.00    -0.260 N 
ATOM     13  N   UNL     1      32.602  -8.439 -19.333  0.00  0.00    -0.394 NA
ATOM     14  C   UNL     1      31.913  -8.920 -21.452  0.00  0.00    +0.079 C 
ATOM     15  C   UNL     1      32.023  -9.619 -19.355  0.00  0.00    +0.164 C 
ATOM     16  C   UNL     1      32.542  -7.988 -20.631  0.00  0.00    +0.128 C 
ATOM     17  C   UNL     1      31.714  -8.727 -22.819  0.00  0.00    +0.017 C 
ATOM     18  C   UNL     1      31.838 -10.515 -18.196  0.00  0.00    +0.084 C 
ATOM     19  C   UNL     1      33.006  -6.786 -21.192  0.00  0.00    +0.086 C 
ATOM     20  C   UNL     1      32.181  -7.525 -23.360  0.00  0.00    -0.003 C 
ATOM     21  C   UNL     1      32.816  -6.570 -22.563  0.00  0.00    -0.019 C 
ENDBRANCH  11  12
ENDBRANCH   3  11
BRANCH   6  22
ATOM     22  C   UNL     1      35.422 -17.000 -21.000  0.00  0.00    +0.164 C 
BRANCH  22  23
ATOM     23  N   UNL     1      34.924 -18.237 -21.592  0.00  0.00    -0.326 N 
ATOM     24  H   UNL     1      34.777 -18.263 -22.566  0.00  0.00    +0.147 HD
BRANCH  23  25
ATOM     25  C   UNL     1      34.649 -19.369 -20.857  0.00  0.00    +0.045 C 
ATOM     26  C   UNL     1      33.320 -19.783 -20.624  0.00  0.00    +0.014 C 
ATOM     27  C   UNL     1      35.686 -20.153 -20.308  0.00  0.00    +0.014 C 
ATOM     28  C   UNL     1      33.042 -20.928 -19.877  0.00  0.00    +0.004 C 
ATOM     29  C   UNL     1      35.408 -21.297 -19.562  0.00  0.00    +0.004 C 
ATOM     30  C   UNL     1      34.086 -21.684 -19.346  0.00  0.00    +0.031 C 
BRANCH  30  33
ATOM     31  N   UNL     1      33.548 -22.806 -17.197  0.00  0.00    -0.343 N 
ATOM     32  N   UNL     1      33.768 -24.059 -19.157  0.00  0.00    -0.285 NA
ATOM     33  C   UNL     1      33.796 -22.877 -18.566  0.00  0.00    +0.117 C 
ATOM     34  H   UNL     1      33.353 -23.627 -16.688  0.00  0.00    +0.144 HD
ATOM     35  H   UNL     1      33.566 -21.935 -16.738  0.00  0.00    +0.144 HD
ATOM     36  H   UNL     1      33.572 -24.868 -18.631  0.00  0.00    +0.188 HD
ENDBRANCH  30  33
ENDBRANCH  23  25
ENDBRANCH  22  23
ENDBRANCH   6  22
TORSDOF 6
ENDMDL
MODEL 2
REMARK VINA RESULT:     -11.2      5.887     13.177
REMARK  Name = 445756
REMARK  6 active torsions:
REMARK  status: ('A' for Active; 'I' for Inactive)
REMARK    1  A    between atoms: C_3  and  C_11
REMARK    2  A    between atoms: C_6  and  C_22
REMARK    3  A    between atoms: C_11  and  N_12
REMARK    4  A    between atoms: C_22  and  N_23
REMARK    5  A    between atoms: N_23  and  C_25
REMARK    6  A    between atoms: C_30  and  C_33
REMARK                            x       y       z     vdW  Elec       q    Type
REMARK                         _______ _______ _______ _____ _____    ______ ____
ROOT
ATOM      1  N   UNL     1      34.824 -22.316 -18.319  0.00  0.00    -0.261 N 
ATOM      2  N   UNL     1      36.714 -21.295 -17.749  0.00  0.00    -0.392 NA
ATOM      3  C   UNL     1      35.951 -22.799 -14.413  0.00  0.00    -0.017 C 
ATOM      4  C   UNL     1      35.009 -22.605 -16.992  0.00  0.00    +0.079 C 
ATOM      5  C   UNL     1      36.196 -21.956 -16.659  0.00  0.00    +0.128 C 
ATOM      6  C   UNL     1      35.866 -21.531 -18.726  0.00  0.00    +0.183 C 
ATOM      7  C   UNL     1      36.683 -22.051 -15.345  0.00  0.00    +0.084 C 
ATOM      8  C   UNL     1      34.765 -23.438 -14.777  0.00  0.00    -0.005 C 
ATOM      9  C   UNL     1      34.265 -23.356 -16.080  0.00  0.00    +0.017 C 
ATOM     10  C   UNL     1      33.720 -22.764 -19.139  0.00  0.00    +0.120 C 
ENDROOT
BRANCH   3  11
ATOM     11  C   UNL     1      36.452 -22.914 -13.010  0.00  0.00    +0.120 C 
BRANCH  11  12
ATOM     12  N   UNL     1      37.118 -24.198 -12.774  0.00  0.00    -0.260 N 
ATOM     13  N   UNL     1      37.551 -26.161 -11.872  0.00  0.00    -0.394 NA
ATOM     14  C   UNL     1      38.195 -24.661 -13.463  0.00  0.00    +0.079 C 
ATOM     15  C   UNL     1      36.762 -25.111 -11.838  0.00  0.00    +0.164 C 
ATOM     16  C   UNL     1      38.452 -25.899 -12.879  0.00  0.00    +0.128 C 
ATOM     17  C   UNL     1      38.952 -24.136 -14.511  0.00  0.00    +0.017 C 
ATOM     18  C   UNL     1      35.624 -24.912 -10.918  0.00  0.00    +0.084 C 
ATOM     19  C   UNL     1      39.523 -26.672 -13.358  0.00  0.00    +0.086 C 
ATOM     20  C   UNL     1      40.014 -24.920 -14.974  0.00  0.00    -0.003 C 
ATOM     21  C   UNL     1      40.296 -26.166 -14.409  0.00  0.00    -0.019 C 
ENDBRANCH  11  12
ENDBRANCH   3  11
BRANCH   6  22
ATOM     22  C   UNL     1      35.981 -21.033 -20.111  0.00  0.00    +0.164 C 
BRANCH  22  23
ATOM     23  N   UNL     1      35.961 -19.581 -20.252  0.00  0.00    -0.326 N 
ATOM     24  H   UNL     1      36.327 -19.035 -19.519  0.00  0.00    +0.147 HD
BRANCH  23  25
ATOM     25  C   UNL     1      35.454 -18.937 -21.360  0.00  0.00    +0.045 C 
ATOM     26  C   UNL     1      34.908 -19.662 -22.440  0.00  0.00    +0.014 C 
ATOM     27  C   UNL     1      35.465 -17.529 -21.453  0.00  0.00    +0.014 C 
ATOM     28  C   UNL     1      34.397 -19.010 -23.562  0.00  0.00    +0.004 C 
ATOM     29  C   UNL     1      34.954 -16.877 -22.574  0.00  0.00    +0.004 C 
ATOM     30  C   UNL     1      34.421 -17.617 -23.629  0.00  0.00    +0.031 C 
BRANCH  30  33
ATOM     31  N   UNL     1      32.563 -17.103 -25.195  0.00  0.00    -0.343 N 
ATOM     32  N   UNL     1      34.670 -16.144 -25.512  0.00  0.00    -0.285 NA
ATOM     33  C   UNL     1      33.889 -16.936 -24.799  0.00  0.00    +0.117 C 
ATOM     34  H   UNL     1      32.224 -16.633 -25.991  0.00  0.00    +0.144 HD
ATOM     35  H   UNL     1      31.966 -17.692 -24.679  0.00  0.00    +0.144 HD
ATOM     36  H   UNL     1      34.312 -15.683 -26.305  0.00  0.00    +0.188 HD
ENDBRANCH  30  33
ENDBRANCH  23  25
ENDBRANCH  22  23
ENDBRANCH   6  22
TORSDOF 6
ENDMDL
MODEL 3
REMARK VINA RESULT:     -11.2      4.880      8.633
REMARK  Name = 445756
REMARK  6 active torsions:
REMARK  status: ('A' for Active; 'I' for Inactive)
REMARK    1  A    between atoms: C_3  and  C_11
REMARK    2  A    between atoms: C_6  and  C_22
REMARK    3  A    between atoms: C_11  and  N_12
REMARK    4  A    between atoms: C_22  and  N_23
REMARK    5  A    between atoms: N_23  and  C_25
REMARK    6  A    between atoms: C_30  and  C_33
REMARK                            x       y       z     vdW  Elec       q    Type
REMARK                         _______ _______ _______ _____ _____    ______ ____
ROOT
ATOM      1  N   UNL     1      33.002 -22.051 -18.144  0.00  0.00    -0.261 N 
ATOM      2  N   UNL     1      35.204 -22.350 -18.095  0.00  0.00    -0.392 NA
ATOM      3  C   UNL     1      35.103 -19.966 -20.972  0.00  0.00    -0.017 C 
ATOM      4  C   UNL     1      33.499 -21.274 -19.158  0.00  0.00    +0.079 C 
ATOM      5  C   UNL     1      34.875 -21.477 -19.106  0.00  0.00    +0.128 C 
ATOM      6  C   UNL     1      34.058 -22.675 -17.539  0.00  0.00    +0.183 C 
ATOM      7  C   UNL     1      35.701 -20.813 -20.029  0.00  0.00    +0.084 C 
ATOM      8  C   UNL     1      33.719 -19.782 -20.997  0.00  0.00    -0.005 C 
ATOM      9  C   UNL     1      32.882 -20.434 -20.087  0.00  0.00    +0.017 C 
ATOM     10  C   UNL     1      31.609 -22.186 -17.782  0.00  0.00    +0.120 C 
ENDROOT
BRANCH   3  11
ATOM     11  C   UNL     1      35.961 -19.249 -21.962  0.00  0.00    +0.120 C 
BRANCH  11  12
ATOM     12  N   UNL     1      35.161 -18.580 -22.992  0.00  0.00    -0.260 N 
ATOM     13  N   UNL     1      33.993 -18.304 -24.840  0.00  0.00    -0.394 NA
ATOM     14  C   UNL     1      34.792 -17.271 -22.972  0.00  0.00    +0.079 C 
ATOM     15  C   UNL     1      34.671 -19.163 -24.113  0.00  0.00    +0.164 C 
ATOM     16  C   UNL     1      34.057 -17.118 -24.145  0.00  0.00    +0.128 C 
ATOM     17  C   UNL     1      35.020 -16.232 -22.070  0.00  0.00    +0.017 C 
ATOM     18  C   UNL     1      34.894 -20.587 -24.437  0.00  0.00    +0.084 C 
ATOM     19  C   UNL     1      33.511 -15.861 -24.450  0.00  0.00    +0.086 C 
ATOM     20  C   UNL     1      34.470 -14.987 -22.391  0.00  0.00    -0.003 C 
ATOM     21  C   UNL     1      33.727 -14.802 -23.560  0.00  0.00    -0.019 C 
ENDBRANCH  11  12
ENDBRANCH   3  11
BRANCH   6  22
ATOM     22  C   UNL     1      33.878 -23.596 -16.399  0.00  0.00    +0.164 C 
BRANCH  22  23
ATOM     23  N   UNL     1      34.731 -23.328 -15.245  0.00  0.00    -0.326 N 
ATOM     24  H   UNL     1      34.422 -22.674 -14.577  0.00  0.00    +0.147 HD
BRANCH  23  25
ATOM     25  C   UNL     1      35.948 -23.944 -15.047  0.00  0.00    +0.045 C 
ATOM     26  C   UNL     1      37.158 -23.229 -15.174  0.00  0.00    +0.014 C 
ATOM     27  C   UNL     1      36.026 -25.312 -14.711  0.00  0.00    +0.014 C 
ATOM     28  C   UNL     1      38.389 -23.852 -14.975  0.00  0.00    +0.004 C 
ATOM     29  C   UNL     1      37.257 -25.936 -14.512  0.00  0.00    +0.004 C 
ATOM     30  C   UNL     1      38.438 -25.207 -14.644  0.00  0.00    +0.031 C 
BRANCH  30  33
ATOM     31  N   UNL     1      40.155 -26.220 -13.164  0.00  0.00    -0.343 N 
ATOM     32  N   UNL     1      40.505 -26.112 -15.472  0.00  0.00    -0.285 NA
ATOM     33  C   UNL     1      39.723 -25.858 -14.438  0.00  0.00    +0.117 C 
ATOM     34  H   UNL     1      41.028 -26.661 -13.047  0.00  0.00    +0.144 HD
ATOM     35  H   UNL     1      39.588 -26.037 -12.381  0.00  0.00    +0.144 HD
ATOM     36  H   UNL     1      41.375 -26.553 -15.334  0.00  0.00    +0.188 HD
ENDBRANCH  30  33
ENDBRANCH  23  25
ENDBRANCH  22  23
ENDBRANCH   6  22
TORSDOF 6
ENDMDL
MODEL 4
REMARK VINA RESULT:     -11.1      5.785     12.775
REMARK  Name = 445756
REMARK  6 active torsions:
REMARK  status: ('A' for Active; 'I' for Inactive)
REMARK    1  A    between atoms: C_3  and  C_11
REMARK    2  A    between atoms: C_6  and  C_22
REMARK    3  A    between atoms: C_11  and  N_12
REMARK    4  A    between atoms: C_22  and  N_23
REMARK    5  A    between atoms: N_23  and  C_25
REMARK    6  A    between atoms: C_30  and  C_33
REMARK                            x       y       z     vdW  Elec       q    Type
REMARK                         _______ _______ _______ _____ _____    ______ ____
ROOT
ATOM      1  N   UNL     1      34.147 -21.705 -18.913  0.00  0.00    -0.261 N 
ATOM      2  N   UNL     1      36.154 -22.058 -18.027  0.00  0.00    -0.392 NA
ATOM      3  C   UNL     1      34.155 -23.831 -15.414  0.00  0.00    -0.017 C 
ATOM      4  C   UNL     1      33.920 -22.422 -17.767  0.00  0.00    +0.079 C 
ATOM      5  C   UNL     1      35.189 -22.630 -17.232  0.00  0.00    +0.128 C 
ATOM      6  C   UNL     1      35.496 -21.511 -19.024  0.00  0.00    +0.183 C 
ATOM      7  C   UNL     1      35.317 -23.349 -16.032  0.00  0.00    +0.084 C 
ATOM      8  C   UNL     1      32.896 -23.607 -15.976  0.00  0.00    -0.005 C 
ATOM      9  C   UNL     1      32.750 -22.894 -17.170  0.00  0.00    +0.017 C 
ATOM     10  C   UNL     1      33.137 -21.237 -19.836  0.00  0.00    +0.120 C 
ENDROOT
BRANCH   3  11
ATOM     11  C   UNL     1      34.267 -24.599 -14.138  0.00  0.00    +0.120 C 
BRANCH  11  12
ATOM     12  N   UNL     1      35.662 -24.917 -13.816  0.00  0.00    -0.260 N 
ATOM     13  N   UNL     1      37.617 -25.932 -13.895  0.00  0.00    -0.394 NA
ATOM     14  C   UNL     1      36.417 -24.278 -12.885  0.00  0.00    +0.079 C 
ATOM     15  C   UNL     1      36.402 -25.893 -14.397  0.00  0.00    +0.164 C 
ATOM     16  C   UNL     1      37.645 -24.932 -12.951  0.00  0.00    +0.128 C 
ATOM     17  C   UNL     1      36.159 -23.219 -12.013  0.00  0.00    +0.017 C 
ATOM     18  C   UNL     1      35.873 -26.777 -15.456  0.00  0.00    +0.084 C 
ATOM     19  C   UNL     1      38.687 -24.518 -12.104  0.00  0.00    +0.086 C 
ATOM     20  C   UNL     1      37.208 -22.822 -11.177  0.00  0.00    -0.003 C 
ATOM     21  C   UNL     1      38.450 -23.458 -11.221  0.00  0.00    -0.019 C 
ENDBRANCH  11  12
ENDBRANCH   3  11
BRANCH   6  22
ATOM     22  C   UNL     1      36.092 -20.768 -20.153  0.00  0.00    +0.164 C 
BRANCH  22  23
ATOM     23  N   UNL     1      35.750 -19.351 -20.213  0.00  0.00    -0.326 N 
ATOM     24  H   UNL     1      35.853 -18.810 -19.396  0.00  0.00    +0.147 HD
BRANCH  23  25
ATOM     25  C   UNL     1      35.289 -18.734 -21.355  0.00  0.00    +0.045 C 
ATOM     26  C   UNL     1      35.383 -17.334 -21.517  0.00  0.00    +0.014 C 
ATOM     27  C   UNL     1      34.705 -19.478 -22.402  0.00  0.00    +0.014 C 
ATOM     28  C   UNL     1      34.914 -16.709 -22.672  0.00  0.00    +0.004 C 
ATOM     29  C   UNL     1      34.237 -18.853 -23.557  0.00  0.00    +0.004 C 
ATOM     30  C   UNL     1      34.341 -17.468 -23.692  0.00  0.00    +0.031 C 
BRANCH  30  33
ATOM     31  N   UNL     1      32.532 -16.970 -25.318  0.00  0.00    -0.343 N 
ATOM     32  N   UNL     1      34.665 -16.063 -25.615  0.00  0.00    -0.285 NA
ATOM     33  C   UNL     1      33.851 -16.816 -24.896  0.00  0.00    +0.117 C 
ATOM     34  H   UNL     1      32.221 -16.518 -26.137  0.00  0.00    +0.144 HD
ATOM     35  H   UNL     1      31.910 -17.528 -24.798  0.00  0.00    +0.144 HD
ATOM     36  H   UNL     1      34.335 -15.621 -26.430  0.00  0.00    +0.188 HD
ENDBRANCH  30  33
ENDBRANCH  23  25
ENDBRANCH  22  23
ENDBRANCH   6  22
TORSDOF 6
ENDMDL
MODEL 5
REMARK VINA RESULT:     -10.9      2.922     11.444
REMARK  Name = 445756
REMARK  6 active torsions:
REMARK  status: ('A' for Active; 'I' for Inactive)
REMARK    1  A    between atoms: C_3  and  C_11
REMARK    2  A    between atoms: C_6  and  C_22
REMARK    3  A    between atoms: C_11  and  N_12
REMARK    4  A    between atoms: C_22  and  N_23
REMARK    5  A    between atoms: N_23  and  C_25
REMARK    6  A    between atoms: C_30  and  C_33
REMARK                            x       y       z     vdW  Elec       q    Type
REMARK                         _______ _______ _______ _____ _____    ______ ____
ROOT
ATOM      1  N   UNL     1      32.009 -11.276 -21.392  0.00  0.00    -0.261 N 
ATOM      2  N   UNL     1      33.001 -10.663 -23.284  0.00  0.00    -0.392 NA
ATOM      3  C   UNL     1      34.266 -14.178 -23.192  0.00  0.00    -0.017 C 
ATOM      4  C   UNL     1      32.700 -12.381 -21.817  0.00  0.00    +0.079 C 
ATOM      5  C   UNL     1      33.311 -11.972 -23.000  0.00  0.00    +0.128 C 
ATOM      6  C   UNL     1      32.220 -10.276 -22.300  0.00  0.00    +0.183 C 
ATOM      7  C   UNL     1      34.111 -12.885 -23.708  0.00  0.00    +0.084 C 
ATOM      8  C   UNL     1      33.640 -14.558 -22.003  0.00  0.00    -0.005 C 
ATOM      9  C   UNL     1      32.839 -13.664 -21.286  0.00  0.00    +0.017 C 
ATOM     10  C   UNL     1      31.201 -11.188 -20.196  0.00  0.00    +0.120 C 
ENDROOT
BRANCH   3  11
ATOM     11  C   UNL     1      35.112 -15.165 -23.929  0.00  0.00    +0.120 C 
BRANCH  11  12
ATOM     12  N   UNL     1      34.592 -16.529 -23.802  0.00  0.00    -0.260 N 
ATOM     13  N   UNL     1      33.393 -18.327 -24.233  0.00  0.00    -0.394 NA
ATOM     14  C   UNL     1      34.981 -17.433 -22.864  0.00  0.00    +0.079 C 
ATOM     15  C   UNL     1      33.649 -17.090 -24.597  0.00  0.00    +0.164 C 
ATOM     16  C   UNL     1      34.213 -18.558 -23.153  0.00  0.00    +0.128 C 
ATOM     17  C   UNL     1      35.903 -17.383 -21.818  0.00  0.00    +0.017 C 
ATOM     18  C   UNL     1      33.017 -16.370 -25.721  0.00  0.00    +0.084 C 
ATOM     19  C   UNL     1      34.363 -19.710 -22.362  0.00  0.00    +0.086 C 
ATOM     20  C   UNL     1      36.037 -18.538 -21.041  0.00  0.00    -0.003 C 
ATOM     21  C   UNL     1      35.282 -19.682 -21.307  0.00  0.00    -0.019 C 
ENDBRANCH  11  12
ENDBRANCH   3  11
BRANCH   6  22
ATOM     22  C   UNL     1      31.618  -8.936 -22.147  0.00  0.00    +0.164 C 
BRANCH  22  23
ATOM     23  N   UNL     1      32.565  -7.854 -21.904  0.00  0.00    -0.326 N 
ATOM     24  H   UNL     1      32.843  -7.676 -20.976  0.00  0.00    +0.147 HD
BRANCH  23  25
ATOM     25  C   UNL     1      33.089  -7.068 -22.907  0.00  0.00    +0.045 C 
ATOM     26  C   UNL     1      32.264  -6.219 -23.675  0.00  0.00    +0.014 C 
ATOM     27  C   UNL     1      34.468  -7.087 -23.204  0.00  0.00    +0.014 C 
ATOM     28  C   UNL     1      32.794  -5.425 -24.692  0.00  0.00    +0.004 C 
ATOM     29  C   UNL     1      34.998  -6.294 -24.221  0.00  0.00    +0.004 C 
ATOM     30  C   UNL     1      34.161  -5.463 -24.965  0.00  0.00    +0.031 C 
BRANCH  30  33
ATOM     31  N   UNL     1      36.011  -4.831 -26.496  0.00  0.00    -0.343 N 
ATOM     32  N   UNL     1      33.981  -3.676 -26.562  0.00  0.00    -0.285 NA
ATOM     33  C   UNL     1      34.713  -4.637 -26.027  0.00  0.00    +0.117 C 
ATOM     34  H   UNL     1      36.365  -4.260 -27.216  0.00  0.00    +0.144 HD
ATOM     35  H   UNL     1      36.574  -5.540 -26.108  0.00  0.00    +0.144 HD
ATOM     36  H   UNL     1      34.353  -3.115 -27.281  0.00  0.00    +0.188 HD
ENDBRANCH  30  33
ENDBRANCH  23  25
ENDBRANCH  22  23
ENDBRANCH   6  22
TORSDOF 6
ENDMDL
MODEL 6
REMARK VINA RESULT:     -10.9      2.299      4.624
REMARK  Name = 445756
REMARK  6 active torsions:
REMARK  status: ('A' for Active; 'I' for Inactive)
REMARK    1  A    between atoms: C_3  and  C_11
REMARK    2  A    between atoms: C_6  and  C_22
REMARK    3  A    between atoms: C_11  and  N_12
REMARK    4  A    between atoms: C_22  and  N_23
REMARK    5  A    between atoms: N_23  and  C_25
REMARK    6  A    between atoms: C_30  and  C_33
REMARK                            x       y       z     vdW  Elec       q    Type
REMARK                         _______ _______ _______ _____ _____    ______ ____
ROOT
ATOM      1  N   UNL     1      32.162 -12.259 -21.145  0.00  0.00    -0.261 N 
ATOM      2  N   UNL     1      32.820 -11.077 -22.908  0.00  0.00    -0.392 NA
ATOM      3  C   UNL     1      32.275  -8.206 -20.577  0.00  0.00    -0.017 C 
ATOM      4  C   UNL     1      32.127 -10.950 -20.741  0.00  0.00    +0.079 C 
ATOM      5  C   UNL     1      32.542 -10.231 -21.859  0.00  0.00    +0.128 C 
ATOM      6  C   UNL     1      32.581 -12.284 -22.446  0.00  0.00    +0.183 C 
ATOM      7  C   UNL     1      32.621  -8.831 -21.783  0.00  0.00    +0.084 C 
ATOM      8  C   UNL     1      31.864  -8.954 -19.472  0.00  0.00    -0.005 C 
ATOM      9  C   UNL     1      31.780 -10.349 -19.530  0.00  0.00    +0.017 C 
ATOM     10  C   UNL     1      31.817 -13.407 -20.336  0.00  0.00    +0.120 C 
ENDROOT
BRANCH   3  11
ATOM     11  C   UNL     1      32.353  -6.718 -20.474  0.00  0.00    +0.120 C 
BRANCH  11  12
ATOM     12  N   UNL     1      32.173  -6.072 -21.778  0.00  0.00    -0.260 N 
ATOM     13  N   UNL     1      31.217  -4.919 -23.394  0.00  0.00    -0.394 NA
ATOM     14  C   UNL     1      33.084  -6.077 -22.787  0.00  0.00    +0.079 C 
ATOM     15  C   UNL     1      31.078  -5.378 -22.170  0.00  0.00    +0.164 C 
ATOM     16  C   UNL     1      32.462  -5.345 -23.795  0.00  0.00    +0.128 C 
ATOM     17  C   UNL     1      34.357  -6.633 -22.918  0.00  0.00    +0.017 C 
ATOM     18  C   UNL     1      29.899  -5.184 -21.301  0.00  0.00    +0.084 C 
ATOM     19  C   UNL     1      33.137  -5.146 -25.012  0.00  0.00    +0.086 C 
ATOM     20  C   UNL     1      35.013  -6.425 -24.136  0.00  0.00    -0.003 C 
ATOM     21  C   UNL     1      34.415  -5.695 -25.165  0.00  0.00    -0.019 C 
ENDBRANCH  11  12
ENDBRANCH   3  11
BRANCH   6  22
ATOM     22  C   UNL     1      32.731 -13.545 -23.199  0.00  0.00    +0.164 C 
BRANCH  22  23
ATOM     23  N   UNL     1      34.096 -14.048 -23.301  0.00  0.00    -0.326 N 
ATOM     24  H   UNL     1      34.757 -13.511 -23.797  0.00  0.00    +0.147 HD
BRANCH  23  25
ATOM     25  C   UNL     1      34.507 -15.238 -22.740  0.00  0.00    +0.045 C 
ATOM     26  C   UNL     1      34.546 -15.409 -21.339  0.00  0.00    +0.014 C 
ATOM     27  C   UNL     1      34.905 -16.326 -23.545  0.00  0.00    +0.014 C 
ATOM     28  C   UNL     1      34.964 -16.612 -20.771  0.00  0.00    +0.004 C 
ATOM     29  C   UNL     1      35.323 -17.529 -22.978  0.00  0.00    +0.004 C 
ATOM     30  C   UNL     1      35.353 -17.672 -21.591  0.00  0.00    +0.031 C 
BRANCH  30  33
ATOM     31  N   UNL     1      37.059 -19.062 -20.441  0.00  0.00    -0.343 N 
ATOM     32  N   UNL     1      34.976 -19.967 -20.987  0.00  0.00    -0.285 NA
ATOM     33  C   UNL     1      35.789 -18.926 -20.998  0.00  0.00    +0.117 C 
ATOM     34  H   UNL     1      37.334 -19.921 -20.045  0.00  0.00    +0.144 HD
ATOM     35  H   UNL     1      37.681 -18.299 -20.442  0.00  0.00    +0.144 HD
ATOM     36  H   UNL     1      35.269 -20.818 -20.586  0.00  0.00    +0.188 HD
ENDBRANCH  30  33
ENDBRANCH  23  25
ENDBRANCH  22  23
ENDBRANCH   6  22
TORSDOF 6
ENDMDL
MODEL 7
REMARK VINA RESULT:     -10.8      1.804      2.912
REMARK  Name = 445756
REMARK  6 active torsions:
REMARK  status: ('A' for Active; 'I' for Inactive)
REMARK    1  A    between atoms: C_3  and  C_11
REMARK    2  A    between atoms: C_6  and  C_22
REMARK    3  A    between atoms: C_11  and  N_12
REMARK    4  A    between atoms: C_22  and  N_23
REMARK    5  A    between atoms: N_23  and  C_25
REMARK    6  A    between atoms: C_30  and  C_33
REMARK                            x       y       z     vdW  Elec       q    Type
REMARK                         _______ _______ _______ _____ _____    ______ ____
ROOT
ATOM      1  N   UNL     1      34.603 -15.790 -21.487  0.00  0.00    -0.261 N 
ATOM      2  N   UNL     1      35.037 -15.823 -23.666  0.00  0.00    -0.392 NA
ATOM      3  C   UNL     1      33.492 -12.422 -23.532  0.00  0.00    -0.017 C 
ATOM      4  C   UNL     1      34.158 -14.586 -21.966  0.00  0.00    +0.079 C 
ATOM      5  C   UNL     1      34.440 -14.630 -23.329  0.00  0.00    +0.128 C 
ATOM      6  C   UNL     1      35.119 -16.494 -22.539  0.00  0.00    +0.183 C 
ATOM      7  C   UNL     1      34.103 -13.529 -24.135  0.00  0.00    +0.084 C 
ATOM      8  C   UNL     1      33.223 -12.407 -22.162  0.00  0.00    -0.005 C 
ATOM      9  C   UNL     1      33.551 -13.493 -21.345  0.00  0.00    +0.017 C 
ATOM     10  C   UNL     1      34.538 -16.234 -20.112  0.00  0.00    +0.120 C 
ENDROOT
BRANCH   3  11
ATOM     11  C   UNL     1      33.127 -11.240 -24.369  0.00  0.00    +0.120 C 
BRANCH  11  12
ATOM     12  N   UNL     1      33.693  -9.998 -23.832  0.00  0.00    -0.260 N 
ATOM     13  N   UNL     1      35.122  -8.351 -23.517  0.00  0.00    -0.394 NA
ATOM     14  C   UNL     1      33.090  -9.192 -22.918  0.00  0.00    +0.079 C 
ATOM     15  C   UNL     1      34.896  -9.471 -24.166  0.00  0.00    +0.164 C 
ATOM     16  C   UNL     1      34.007  -8.161 -22.734  0.00  0.00    +0.128 C 
ATOM     17  C   UNL     1      31.867  -9.259 -22.251  0.00  0.00    +0.017 C 
ATOM     18  C   UNL     1      35.806 -10.106 -25.141  0.00  0.00    +0.084 C 
ATOM     19  C   UNL     1      33.700  -7.126 -21.834  0.00  0.00    +0.086 C 
ATOM     20  C   UNL     1      31.579  -8.221 -21.359  0.00  0.00    -0.003 C 
ATOM     21  C   UNL     1      32.478  -7.172 -21.153  0.00  0.00    -0.019 C 
ENDBRANCH  11  12
ENDBRANCH   3  11
BRANCH   6  22
ATOM     22  C   UNL     1      35.690 -17.846 -22.376  0.00  0.00    +0.164 C 
BRANCH  22  23
ATOM     23  N   UNL     1      34.721 -18.936 -22.399  0.00  0.00    -0.326 N 
ATOM     24  H   UNL     1      34.194 -19.077 -23.220  0.00  0.00    +0.147 HD
BRANCH  23  25
ATOM     25  C   UNL     1      34.504 -19.776 -21.329  0.00  0.00    +0.045 C 
ATOM     26  C   UNL     1      35.581 -20.367 -20.634  0.00  0.00    +0.014 C 
ATOM     27  C   UNL     1      33.196 -20.078 -20.891  0.00  0.00    +0.014 C 
ATOM     28  C   UNL     1      35.361 -21.219 -19.552  0.00  0.00    +0.004 C 
ATOM     29  C   UNL     1      32.976 -20.930 -19.810  0.00  0.00    +0.004 C 
ATOM     30  C   UNL     1      34.058 -21.501 -19.141  0.00  0.00    +0.031 C 
BRANCH  30  33
ATOM     31  N   UNL     1      32.541 -22.771 -17.640  0.00  0.00    -0.343 N 
ATOM     32  N   UNL     1      34.854 -22.851 -17.319  0.00  0.00    -0.285 NA
ATOM     33  C   UNL     1      33.829 -22.391 -18.013  0.00  0.00    +0.117 C 
ATOM     34  H   UNL     1      32.408 -23.375 -16.873  0.00  0.00    +0.144 HD
ATOM     35  H   UNL     1      31.764 -22.436 -18.143  0.00  0.00    +0.144 HD
ATOM     36  H   UNL     1      34.701 -23.454 -16.555  0.00  0.00    +0.188 HD
ENDBRANCH  30  33
ENDBRANCH  23  25
ENDBRANCH  22  23
ENDBRANCH   6  22
TORSDOF 6
ENDMDL
MODEL 8
REMARK VINA RESULT:     -10.6      2.749     11.885
REMARK  Name = 445756
REMARK  6 active torsions:
REMARK  status: ('A' for Active; 'I' for Inactive)
REMARK    1  A    between atoms: C_3  and  C_11
REMARK    2  A    between atoms: C_6  and  C_22
REMARK    3  A    between atoms: C_11  and  N_12
REMARK    4  A    between atoms: C_22  and  N_23
REMARK    5  A    between atoms: N_23  and  C_25
REMARK    6  A    between atoms: C_30  and  C_33
REMARK                            x       y       z     vdW  Elec       q    Type
REMARK                         _______ _______ _______ _____ _____    ______ ____
ROOT
ATOM      1  N   UNL     1      32.127 -11.464 -21.277  0.00  0.00    -0.261 N 
ATOM      2  N   UNL     1      32.954 -10.933 -23.271  0.00  0.00    -0.392 NA
ATOM      3  C   UNL     1      34.365 -14.389 -23.066  0.00  0.00    -0.017 C 
ATOM      4  C   UNL     1      32.830 -12.567 -21.687  0.00  0.00    +0.079 C 
ATOM      5  C   UNL     1      33.337 -12.211 -22.934  0.00  0.00    +0.128 C 
ATOM      6  C   UNL     1      32.231 -10.515 -22.256  0.00  0.00    +0.183 C 
ATOM      7  C   UNL     1      34.120 -13.136 -23.644  0.00  0.00    +0.084 C 
ATOM      8  C   UNL     1      33.842 -14.717 -21.813  0.00  0.00    -0.005 C 
ATOM      9  C   UNL     1      33.059 -13.809 -21.092  0.00  0.00    +0.017 C 
ATOM     10  C   UNL     1      31.405 -11.331 -20.032  0.00  0.00    +0.120 C 
ENDROOT
BRANCH   3  11
ATOM     11  C   UNL     1      35.194 -15.388 -23.804  0.00  0.00    +0.120 C 
BRANCH  11  12
ATOM     12  N   UNL     1      34.686 -16.752 -23.630  0.00  0.00    -0.260 N 
ATOM     13  N   UNL     1      33.489 -18.567 -23.986  0.00  0.00    -0.394 NA
ATOM     14  C   UNL     1      35.102 -17.629 -22.678  0.00  0.00    +0.079 C 
ATOM     15  C   UNL     1      33.728 -17.339 -24.388  0.00  0.00    +0.164 C 
ATOM     16  C   UNL     1      34.336 -18.766 -22.921  0.00  0.00    +0.128 C 
ATOM     17  C   UNL     1      36.048 -17.546 -21.656  0.00  0.00    +0.017 C 
ATOM     18  C   UNL     1      33.065 -16.651 -25.515  0.00  0.00    +0.084 C 
ATOM     19  C   UNL     1      34.511 -19.896 -22.104  0.00  0.00    +0.086 C 
ATOM     20  C   UNL     1      36.208 -18.680 -20.853  0.00  0.00    -0.003 C 
ATOM     21  C   UNL     1      35.455 -19.835 -21.072  0.00  0.00    -0.019 C 
ENDBRANCH  11  12
ENDBRANCH   3  11
BRANCH   6  22
ATOM     22  C   UNL     1      31.588  -9.191 -22.139  0.00  0.00    +0.164 C 
BRANCH  22  23
ATOM     23  N   UNL     1      32.468  -8.051 -22.372  0.00  0.00    -0.326 N 
ATOM     24  H   UNL     1      33.438  -8.212 -22.426  0.00  0.00    +0.147 HD
BRANCH  23  25
ATOM     25  C   UNL     1      32.008  -6.760 -22.519  0.00  0.00    +0.045 C 
ATOM     26  C   UNL     1      32.562  -5.893 -23.486  0.00  0.00    +0.014 C 
ATOM     27  C   UNL     1      30.970  -6.258 -21.706  0.00  0.00    +0.014 C 
ATOM     28  C   UNL     1      32.099  -4.586 -23.632  0.00  0.00    +0.004 C 
ATOM     29  C   UNL     1      30.506  -4.951 -21.853  0.00  0.00    +0.004 C 
ATOM     30  C   UNL     1      31.071  -4.115 -22.815  0.00  0.00    +0.031 C 
BRANCH  30  33
ATOM     31  N   UNL     1      30.802  -2.034 -24.143  0.00  0.00    -0.343 N 
ATOM     32  N   UNL     1      29.937  -2.169 -21.977  0.00  0.00    -0.285 NA
ATOM     33  C   UNL     1      30.589  -2.752 -22.968  0.00  0.00    +0.117 C 
ATOM     34  H   UNL     1      30.466  -1.112 -24.225  0.00  0.00    +0.144 HD
ATOM     35  H   UNL     1      31.288  -2.449 -24.892  0.00  0.00    +0.144 HD
ATOM     36  H   UNL     1      29.609  -1.246 -22.078  0.00  0.00    +0.188 HD
ENDBRANCH  30  33
ENDBRANCH  23  25
ENDBRANCH  22  23
ENDBRANCH   6  22
TORSDOF 6
ENDMDL
MODEL 9
REMARK VINA RESULT:     -10.6      1.189      2.075
REMARK  Name = 445756
REMARK  6 active torsions:
REMARK  status: ('A' for Active; 'I' for Inactive)
REMARK    1  A    between atoms: C_3  and  C_11
REMARK    2  A    between atoms: C_6  and  C_22
REMARK    3  A    between atoms: C_11  and  N_12
REMARK    4  A    between atoms: C_22  and  N_23
REMARK    5  A    between atoms: N_23  and  C_25
REMARK    6  A    between atoms: C_30  and  C_33
REMARK                            x       y       z     vdW  Elec       q    Type
REMARK                         _______ _______ _______ _____ _____    ______ ____
ROOT
ATOM      1  N   UNL     1      34.251 -15.223 -21.465  0.00  0.00    -0.261 N 
ATOM      2  N   UNL     1      33.932 -14.201 -23.413  0.00  0.00    -0.392 NA
ATOM      3  C   UNL     1      31.703 -12.019 -21.353  0.00  0.00    -0.017 C 
ATOM      4  C   UNL     1      33.379 -14.198 -21.202  0.00  0.00    +0.079 C 
ATOM      5  C   UNL     1      33.196 -13.575 -22.434  0.00  0.00    +0.128 C 
ATOM      6  C   UNL     1      34.551 -15.184 -22.798  0.00  0.00    +0.183 C 
ATOM      7  C   UNL     1      32.342 -12.462 -22.519  0.00  0.00    +0.084 C 
ATOM      8  C   UNL     1      31.908 -12.665 -20.132  0.00  0.00    -0.005 C 
ATOM      9  C   UNL     1      32.755 -13.773 -20.028  0.00  0.00    +0.017 C 
ATOM     10  C   UNL     1      34.759 -16.173 -20.501  0.00  0.00    +0.120 C 
ENDROOT
BRANCH   3  11
ATOM     11  C   UNL     1      30.793 -10.837 -21.420  0.00  0.00    +0.120 C 
BRANCH  11  12
ATOM     12  N   UNL     1      31.453  -9.615 -20.952  0.00  0.00    -0.260 N 
ATOM     13  N   UNL     1      32.366  -8.166 -19.565  0.00  0.00    -0.394 NA
ATOM     14  C   UNL     1      31.829  -8.575 -21.742  0.00  0.00    +0.079 C 
ATOM     15  C   UNL     1      31.784  -9.341 -19.667  0.00  0.00    +0.164 C 
ATOM     16  C   UNL     1      32.402  -7.673 -20.849  0.00  0.00    +0.128 C 
ATOM     17  C   UNL     1      31.730  -8.337 -23.114  0.00  0.00    +0.017 C 
ATOM     18  C   UNL     1      31.512 -10.271 -18.553  0.00  0.00    +0.084 C 
ATOM     19  C   UNL     1      32.911  -6.458 -21.337  0.00  0.00    +0.086 C 
ATOM     20  C   UNL     1      32.241  -7.122 -23.580  0.00  0.00    -0.003 C 
ATOM     21  C   UNL     1      32.822  -6.197 -22.709  0.00  0.00    -0.019 C 
ENDBRANCH  11  12
ENDBRANCH   3  11
BRANCH   6  22
ATOM     22  C   UNL     1      35.470 -16.156 -23.425  0.00  0.00    +0.164 C 
BRANCH  22  23
ATOM     23  N   UNL     1      34.975 -17.527 -23.486  0.00  0.00    -0.326 N 
ATOM     24  H   UNL     1      34.480 -17.810 -24.290  0.00  0.00    +0.147 HD
BRANCH  23  25
ATOM     25  C   UNL     1      35.165 -18.445 -22.476  0.00  0.00    +0.045 C 
ATOM     26  C   UNL     1      36.426 -18.604 -21.862  0.00  0.00    +0.014 C 
ATOM     27  C   UNL     1      34.106 -19.259 -22.022  0.00  0.00    +0.014 C 
ATOM     28  C   UNL     1      36.618 -19.534 -20.841  0.00  0.00    +0.004 C 
ATOM     29  C   UNL     1      34.298 -20.189 -21.001  0.00  0.00    +0.004 C 
ATOM     30  C   UNL     1      35.554 -20.327 -20.411  0.00  0.00    +0.031 C 
BRANCH  30  33
ATOM     31  N   UNL     1      36.674 -21.074 -18.325  0.00  0.00    -0.343 N 
ATOM     32  N   UNL     1      35.060 -22.422 -19.343  0.00  0.00    -0.285 NA
ATOM     33  C   UNL     1      35.755 -21.299 -19.347  0.00  0.00    +0.117 C 
ATOM     34  H   UNL     1      36.794 -21.745 -17.614  0.00  0.00    +0.144 HD
ATOM     35  H   UNL     1      37.203 -20.244 -18.312  0.00  0.00    +0.144 HD
ATOM     36  H   UNL     1      35.194 -23.082 -18.623  0.00  0.00    +0.188 HD
ENDBRANCH  30  33
ENDBRANCH  23  25
ENDBRANCH  22  23
ENDBRANCH   6  22
TORSDOF 6
ENDMDL
