MODEL 1
REMARK VINA RESULT:     -11.8      0.000      0.000
REMARK  Name = 3822
REMARK  5 active torsions:
REMARK  status: ('A' for Active; 'I' for Inactive)
REMARK    1  A    between atoms: N_1  and  C_17
REMARK    2  A    between atoms: C_2  and  C_9
REMARK    3  A    between atoms: C_9  and  C_11
REMARK    4  A    between atoms: C_17  and  C_18
REMARK    5  A    between atoms: C_18  and  N_21
REMARK                            x       y       z     vdW  Elec       q    Type
REMARK                         _______ _______ _______ _____ _____    ______ ____
ROOT
ATOM      1  N   UNL     1      35.794 -20.165 -20.516  0.00  0.00    +0.388 N 
ATOM      2  C   UNL     1      35.506 -18.257 -22.731  0.00  0.00    +0.058 C 
ATOM      3  C   UNL     1      36.855 -18.563 -22.081  0.00  0.00    -0.015 C 
ATOM      4  C   UNL     1      34.490 -19.366 -22.460  0.00  0.00    -0.015 C 
ATOM      5  C   UNL     1      36.726 -19.035 -20.630  0.00  0.00    -0.077 C 
ATOM      6  C   UNL     1      34.457 -19.790 -20.989  0.00  0.00    -0.077 C 
ATOM      7  H   UNL     1      36.140 -20.922 -21.107  0.00  0.00    -0.080 HD
ENDROOT
BRANCH   2   9
ATOM      8  O   UNL     1      34.963 -16.638 -21.075  0.00  0.00    -0.291 OA
ATOM      9  C   UNL     1      34.967 -16.935 -22.267  0.00  0.00    +0.172 C 
BRANCH   9  11
ATOM     10  F   UNL     1      32.963 -13.346 -26.047  0.00  0.00    -0.204 F 
ATOM     11  C   UNL     1      34.432 -15.977 -23.276  0.00  0.00    +0.035 C 
ATOM     12  C   UNL     1      34.197 -16.427 -24.556  0.00  0.00    +0.005 C 
ATOM     13  C   UNL     1      34.191 -14.677 -22.890  0.00  0.00    +0.005 C 
ATOM     14  C   UNL     1      33.697 -15.530 -25.500  0.00  0.00    +0.030 C 
ATOM     15  C   UNL     1      33.691 -13.780 -23.835  0.00  0.00    +0.030 C 
ATOM     16  C   UNL     1      33.443 -14.206 -25.140  0.00  0.00    +0.140 C 
ENDBRANCH   9  11
ENDBRANCH   2   9
BRANCH   1  17
ATOM     17  C   UNL     1      35.733 -20.639 -19.133  0.00  0.00    -0.052 C 
BRANCH  17  18
ATOM     18  C   UNL     1      35.454 -22.134 -19.099  0.00  0.00    +0.091 C 
BRANCH  18  21
ATOM     19  O   UNL     1      36.087 -22.895 -16.510  0.00  0.00    -0.267 OA
ATOM     20  O   UNL     1      32.694 -22.035 -19.609  0.00  0.00    -0.246 OA
ATOM     21  N   UNL     1      34.451 -22.455 -18.121  0.00  0.00    -0.251 N 
ATOM     22  N   UNL     1      32.164 -22.696 -17.497  0.00  0.00    -0.306 N 
ATOM     23  C   UNL     1      34.902 -22.832 -16.832  0.00  0.00    +0.265 A 
ATOM     24  C   UNL     1      33.079 -22.372 -18.486  0.00  0.00    +0.330 A 
ATOM     25  C   UNL     1      33.863 -23.160 -15.837  0.00  0.00    +0.072 A 
ATOM     26  C   UNL     1      32.522 -23.082 -16.202  0.00  0.00    +0.065 A 
ATOM     27  C   UNL     1      34.213 -23.547 -14.540  0.00  0.00    +0.006 C 
ATOM     28  C   UNL     1      31.523 -23.389 -15.275  0.00  0.00    +0.017 C 
ATOM     29  C   UNL     1      33.215 -23.855 -13.614  0.00  0.00    +0.000 C 
ATOM     30  C   UNL     1      31.872 -23.775 -13.981  0.00  0.00    +0.001 C 
ATOM     31  H   UNL     1      31.206 -22.649 -17.719  0.00  0.00    +0.170 HD
ENDBRANCH  18  21
ENDBRANCH  17  18
ENDBRANCH   1  17
TORSDOF 5
ENDMDL
MODEL 2
REMARK VINA RESULT:     -11.8      0.683      2.034
REMARK  Name = 3822
REMARK  5 active torsions:
REMARK  status: ('A' for Active; 'I' for Inactive)
REMARK    1  A    between atoms: N_1  and  C_17
REMARK    2  A    between atoms: C_2  and  C_9
REMARK    3  A    between atoms: C_9  and  C_11
REMARK    4  A    between atoms: C_17  and  C_18
REMARK    5  A    between atoms: C_18  and  N_21
REMARK                            x       y       z     vdW  Elec       q    Type
REMARK                         _______ _______ _______ _____ _____    ______ ____
ROOT
ATOM      1  N   UNL     1      35.849 -20.205 -20.522  0.00  0.00    +0.388 N 
ATOM      2  C   UNL     1      35.522 -18.268 -22.706  0.00  0.00    +0.058 C 
ATOM      3  C   UNL     1      36.888 -18.619 -22.118  0.00  0.00    -0.015 C 
ATOM      4  C   UNL     1      34.486 -19.350 -22.401  0.00  0.00    -0.015 C 
ATOM      5  C   UNL     1      36.808 -19.101 -20.667  0.00  0.00    -0.077 C 
ATOM      6  C   UNL     1      34.504 -19.787 -20.934  0.00  0.00    -0.077 C 
ATOM      7  H   UNL     1      36.147 -20.966 -21.133  0.00  0.00    -0.080 HD
ENDROOT
BRANCH   2   9
ATOM      8  O   UNL     1      35.104 -16.648 -21.016  0.00  0.00    -0.291 OA
ATOM      9  C   UNL     1      35.042 -16.935 -22.208  0.00  0.00    +0.172 C 
BRANCH   9  11
ATOM     10  F   UNL     1      32.959 -13.268 -25.867  0.00  0.00    -0.204 F 
ATOM     11  C   UNL     1      34.486 -15.956 -23.185  0.00  0.00    +0.035 C 
ATOM     12  C   UNL     1      34.277 -14.658 -22.775  0.00  0.00    +0.005 C 
ATOM     13  C   UNL     1      34.202 -16.386 -24.462  0.00  0.00    +0.005 C 
ATOM     14  C   UNL     1      33.756 -13.742 -23.689  0.00  0.00    +0.030 C 
ATOM     15  C   UNL     1      33.681 -15.470 -25.376  0.00  0.00    +0.030 C 
ATOM     16  C   UNL     1      33.458 -14.148 -24.990  0.00  0.00    +0.140 C 
ENDBRANCH   9  11
ENDBRANCH   2   9
BRANCH   1  17
ATOM     17  C   UNL     1      35.834 -20.690 -19.142  0.00  0.00    -0.052 C 
BRANCH  17  18
ATOM     18  C   UNL     1      35.408 -22.150 -19.100  0.00  0.00    +0.091 C 
BRANCH  18  21
ATOM     19  O   UNL     1      32.653 -22.371 -18.872  0.00  0.00    -0.267 OA
ATOM     20  O   UNL     1      36.785 -22.622 -16.699  0.00  0.00    -0.246 OA
ATOM     21  N   UNL     1      34.758 -22.468 -17.858  0.00  0.00    -0.251 N 
ATOM     22  N   UNL     1      34.864 -22.989 -15.535  0.00  0.00    -0.306 N 
ATOM     23  C   UNL     1      33.343 -22.550 -17.871  0.00  0.00    +0.265 A 
ATOM     24  C   UNL     1      35.553 -22.688 -16.699  0.00  0.00    +0.330 A 
ATOM     25  C   UNL     1      32.688 -22.876 -16.589  0.00  0.00    +0.072 A 
ATOM     26  C   UNL     1      33.472 -23.085 -15.458  0.00  0.00    +0.065 A 
ATOM     27  C   UNL     1      31.296 -22.974 -16.504  0.00  0.00    +0.006 C 
ATOM     28  C   UNL     1      32.871 -23.393 -14.234  0.00  0.00    +0.017 C 
ATOM     29  C   UNL     1      30.696 -23.281 -15.281  0.00  0.00    +0.000 C 
ATOM     30  C   UNL     1      31.482 -23.491 -14.149  0.00  0.00    +0.001 C 
ATOM     31  H   UNL     1      35.386 -23.146 -14.715  0.00  0.00    +0.170 HD
ENDBRANCH  18  21
ENDBRANCH  17  18
ENDBRANCH   1  17
TORSDOF 5
ENDMDL
MODEL 3
REMARK VINA RESULT:     -10.8      4.952     10.924
REMARK  Name = 3822
REMARK  5 active torsions:
REMARK  status: ('A' for Active; 'I' for Inactive)
REMARK    1  A    between atoms: N_1  and  C_17
REMARK    2  A    between atoms: C_2  and  C_9
REMARK    3  A    between atoms: C_9  and  C_11
REMARK    4  A    between atoms: C_17  and  C_18
REMARK    5  A    between atoms: C_18  and  N_21
REMARK                            x       y       z     vdW  Elec       q    Type
REMARK                         _______ _______ _______ _____ _____    ______ ____
ROOT
ATOM      1  N   UNL     1      34.307 -14.871 -22.194  0.00  0.00    +0.388 N 
ATOM      2  C   UNL     1      35.401 -17.484 -22.970  0.00  0.00    +0.058 C 
ATOM      3  C   UNL     1      34.968 -16.437 -23.997  0.00  0.00    -0.015 C 
ATOM      4  C   UNL     1      35.666 -16.852 -21.605  0.00  0.00    -0.015 C 
ATOM      5  C   UNL     1      33.894 -15.485 -23.463  0.00  0.00    -0.077 C 
ATOM      6  C   UNL     1      34.553 -15.894 -21.172  0.00  0.00    -0.077 C 
ATOM      7  H   UNL     1      35.180 -14.367 -22.355  0.00  0.00    -0.080 HD
ENDROOT
BRANCH   2   9
ATOM      8  O   UNL     1      33.519 -18.736 -23.708  0.00  0.00    -0.291 OA
ATOM      9  C   UNL     1      34.382 -18.579 -22.848  0.00  0.00    +0.172 C 
BRANCH   9  11
ATOM     10  F   UNL     1      34.554 -21.959 -18.407  0.00  0.00    -0.204 F 
ATOM     11  C   UNL     1      34.428 -19.482 -21.663  0.00  0.00    +0.035 C 
ATOM     12  C   UNL     1      35.655 -19.873 -21.177  0.00  0.00    +0.005 C 
ATOM     13  C   UNL     1      33.240 -19.890 -21.097  0.00  0.00    +0.005 C 
ATOM     14  C   UNL     1      35.698 -20.718 -20.067  0.00  0.00    +0.030 C 
ATOM     15  C   UNL     1      33.283 -20.734 -19.987  0.00  0.00    +0.030 C 
ATOM     16  C   UNL     1      34.512 -21.149 -19.472  0.00  0.00    +0.140 C 
ENDBRANCH   9  11
ENDBRANCH   2   9
BRANCH   1  17
ATOM     17  C   UNL     1      33.295 -13.920 -21.734  0.00  0.00    -0.052 C 
BRANCH  17  18
ATOM     18  C   UNL     1      32.711 -13.157 -22.913  0.00  0.00    +0.091 C 
BRANCH  18  21
ATOM     19  O   UNL     1      34.539 -11.570 -24.264  0.00  0.00    -0.267 OA
ATOM     20  O   UNL     1      31.058 -11.730 -21.147  0.00  0.00    -0.246 OA
ATOM     21  N   UNL     1      32.799 -11.737 -22.711  0.00  0.00    -0.251 N 
ATOM     22  N   UNL     1      32.051  -9.743 -21.642  0.00  0.00    -0.306 N 
ATOM     23  C   UNL     1      33.777 -11.037 -23.460  0.00  0.00    +0.265 A 
ATOM     24  C   UNL     1      31.912 -11.114 -21.790  0.00  0.00    +0.330 A 
ATOM     25  C   UNL     1      33.859  -9.579 -23.242  0.00  0.00    +0.072 A 
ATOM     26  C   UNL     1      32.990  -8.977 -22.336  0.00  0.00    +0.065 A 
ATOM     27  C   UNL     1      34.796  -8.806 -23.934  0.00  0.00    +0.006 C 
ATOM     28  C   UNL     1      33.053  -7.598 -22.115  0.00  0.00    +0.017 C 
ATOM     29  C   UNL     1      34.858  -7.429 -23.713  0.00  0.00    +0.000 C 
ATOM     30  C   UNL     1      33.987  -6.827 -22.805  0.00  0.00    +0.001 C 
ATOM     31  H   UNL     1      31.452  -9.283 -21.011  0.00  0.00    +0.170 HD
ENDBRANCH  18  21
ENDBRANCH  17  18
ENDBRANCH   1  17
TORSDOF 5
ENDMDL
MODEL 4
REMARK VINA RESULT:     -10.8      4.860     10.622
REMARK  Name = 3822
REMARK  5 active torsions:
REMARK  status: ('A' for Active; 'I' for Inactive)
REMARK    1  A    between atoms: N_1  and  C_17
REMARK    2  A    between atoms: C_2  and  C_9
REMARK    3  A    between atoms: C_9  and  C_11
REMARK    4  A    between atoms: C_17  and  C_18
REMARK    5  A    between atoms: C_18  and  N_21
REMARK                            x       y       z     vdW  Elec       q    Type
REMARK                         _______ _______ _______ _____ _____    ______ ____
ROOT
ATOM      1  N   UNL     1      34.499 -15.167 -21.848  0.00  0.00    +0.388 N 
ATOM      2  C   UNL     1      35.454 -17.837 -22.613  0.00  0.00    +0.058 C 
ATOM      3  C   UNL     1      35.114 -16.761 -23.643  0.00  0.00    -0.015 C 
ATOM      4  C   UNL     1      35.718 -17.230 -21.236  0.00  0.00    -0.015 C 
ATOM      5  C   UNL     1      34.085 -15.749 -23.132  0.00  0.00    -0.077 C 
ATOM      6  C   UNL     1      34.653 -16.209 -20.826  0.00  0.00    -0.077 C 
ATOM      7  H   UNL     1      35.404 -14.716 -21.982  0.00  0.00    -0.080 HD
ENDROOT
BRANCH   2   9
ATOM      8  O   UNL     1      33.520 -18.969 -23.410  0.00  0.00    -0.291 OA
ATOM      9  C   UNL     1      34.368 -18.869 -22.526  0.00  0.00    +0.172 C 
BRANCH   9  11
ATOM     10  F   UNL     1      34.219 -22.284 -18.111  0.00  0.00    -0.204 F 
ATOM     11  C   UNL     1      34.327 -19.780 -21.347  0.00  0.00    +0.035 C 
ATOM     12  C   UNL     1      33.105 -20.114 -20.809  0.00  0.00    +0.005 C 
ATOM     13  C   UNL     1      35.516 -20.257 -20.840  0.00  0.00    +0.005 C 
ATOM     14  C   UNL     1      33.068 -20.967 -19.706  0.00  0.00    +0.030 C 
ATOM     15  C   UNL     1      35.479 -21.110 -19.737  0.00  0.00    +0.030 C 
ATOM     16  C   UNL     1      34.255 -21.465 -19.170  0.00  0.00    +0.140 C 
ENDBRANCH   9  11
ENDBRANCH   2   9
BRANCH   1  17
ATOM     17  C   UNL     1      33.533 -14.159 -21.409  0.00  0.00    -0.052 C 
BRANCH  17  18
ATOM     18  C   UNL     1      32.756 -13.617 -22.599  0.00  0.00    +0.091 C 
BRANCH  18  21
ATOM     19  O   UNL     1      31.422 -11.896 -20.883  0.00  0.00    -0.267 OA
ATOM     20  O   UNL     1      34.356 -12.308 -24.500  0.00  0.00    -0.246 OA
ATOM     21  N   UNL     1      32.875 -12.188 -22.692  0.00  0.00    -0.251 N 
ATOM     22  N   UNL     1      33.783 -10.244 -23.729  0.00  0.00    -0.306 N 
ATOM     23  C   UNL     1      32.141 -11.416 -21.757  0.00  0.00    +0.265 A 
ATOM     24  C   UNL     1      33.714 -11.628 -23.694  0.00  0.00    +0.330 A 
ATOM     25  C   UNL     1      32.270  -9.950 -21.864  0.00  0.00    +0.072 A 
ATOM     26  C   UNL     1      33.089  -9.409 -22.850  0.00  0.00    +0.065 A 
ATOM     27  C   UNL     1      31.579  -9.107 -20.988  0.00  0.00    +0.006 C 
ATOM     28  C   UNL     1      33.224  -8.022 -22.968  0.00  0.00    +0.017 C 
ATOM     29  C   UNL     1      31.714  -7.723 -21.106  0.00  0.00    +0.000 C 
ATOM     30  C   UNL     1      32.536  -7.182 -22.094  0.00  0.00    +0.001 C 
ATOM     31  H   UNL     1      34.355  -9.826 -24.413  0.00  0.00    +0.170 HD
ENDBRANCH  18  21
ENDBRANCH  17  18
ENDBRANCH   1  17
TORSDOF 5
ENDMDL
MODEL 5
REMARK VINA RESULT:     -10.6      4.149      9.272
REMARK  Name = 3822
REMARK  5 active torsions:
REMARK  status: ('A' for Active; 'I' for Inactive)
REMARK    1  A    between atoms: N_1  and  C_17
REMARK    2  A    between atoms: C_2  and  C_9
REMARK    3  A    between atoms: C_9  and  C_11
REMARK    4  A    between atoms: C_17  and  C_18
REMARK    5  A    between atoms: C_18  and  N_21
REMARK                            x       y       z     vdW  Elec       q    Type
REMARK                         _______ _______ _______ _____ _____    ______ ____
ROOT
ATOM      1  N   UNL     1      33.164 -23.280 -13.984  0.00  0.00    +0.388 N 
ATOM      2  C   UNL     1      30.569 -24.449 -13.259  0.00  0.00    +0.058 C 
ATOM      3  C   UNL     1      31.889 -25.192 -13.058  0.00  0.00    -0.015 C 
ATOM      4  C   UNL     1      30.788 -22.942 -13.384  0.00  0.00    -0.015 C 
ATOM      5  C   UNL     1      32.984 -24.737 -14.026  0.00  0.00    -0.077 C 
ATOM      6  C   UNL     1      31.922 -22.588 -14.350  0.00  0.00    -0.077 C 
ATOM      7  H   UNL     1      33.404 -23.017 -13.028  0.00  0.00    -0.080 HD
ENDROOT
BRANCH   2   9
ATOM      8  O   UNL     1      30.014 -26.112 -14.867  0.00  0.00    -0.291 OA
ATOM      9  C   UNL     1      29.831 -24.967 -14.459  0.00  0.00    +0.172 C 
BRANCH   9  11
ATOM     10  F   UNL     1      26.213 -21.614 -17.076  0.00  0.00    -0.204 F 
ATOM     11  C   UNL     1      28.865 -24.072 -15.157  0.00  0.00    +0.035 C 
ATOM     12  C   UNL     1      28.171 -23.141 -14.417  0.00  0.00    +0.005 C 
ATOM     13  C   UNL     1      28.703 -24.209 -16.518  0.00  0.00    +0.005 C 
ATOM     14  C   UNL     1      27.267 -22.304 -15.071  0.00  0.00    +0.030 C 
ATOM     15  C   UNL     1      27.799 -23.371 -17.172  0.00  0.00    +0.030 C 
ATOM     16  C   UNL     1      27.081 -22.419 -16.449  0.00  0.00    +0.140 C 
ENDBRANCH   9  11
ENDBRANCH   2   9
BRANCH   1  17
ATOM     17  C   UNL     1      34.256 -22.874 -14.870  0.00  0.00    -0.052 C 
BRANCH  17  18
ATOM     18  C   UNL     1      34.207 -23.667 -16.167  0.00  0.00    +0.091 C 
BRANCH  18  21
ATOM     19  O   UNL     1      36.398 -22.491 -17.391  0.00  0.00    -0.267 OA
ATOM     20  O   UNL     1      31.752 -23.015 -17.367  0.00  0.00    -0.246 OA
ATOM     21  N   UNL     1      34.082 -22.798 -17.305  0.00  0.00    -0.251 N 
ATOM     22  N   UNL     1      32.739 -21.687 -18.930  0.00  0.00    -0.306 N 
ATOM     23  C   UNL     1      35.278 -22.257 -17.839  0.00  0.00    +0.265 A 
ATOM     24  C   UNL     1      32.788 -22.534 -17.834  0.00  0.00    +0.330 A 
ATOM     25  C   UNL     1      35.136 -21.364 -19.006  0.00  0.00    +0.072 A 
ATOM     26  C   UNL     1      33.867 -21.107 -19.516  0.00  0.00    +0.065 A 
ATOM     27  C   UNL     1      36.260 -20.781 -19.598  0.00  0.00    +0.006 C 
ATOM     28  C   UNL     1      33.711 -20.264 -20.620  0.00  0.00    +0.017 C 
ATOM     29  C   UNL     1      36.104 -19.938 -20.701  0.00  0.00    +0.000 C 
ATOM     30  C   UNL     1      34.832 -19.681 -21.211  0.00  0.00    +0.001 C 
ATOM     31  H   UNL     1      31.857 -21.483 -19.318  0.00  0.00    +0.170 HD
ENDBRANCH  18  21
ENDBRANCH  17  18
ENDBRANCH   1  17
TORSDOF 5
ENDMDL
MODEL 6
REMARK VINA RESULT:     -10.5      6.010      9.624
REMARK  Name = 3822
REMARK  5 active torsions:
REMARK  status: ('A' for Active; 'I' for Inactive)
REMARK    1  A    between atoms: N_1  and  C_17
REMARK    2  A    between atoms: C_2  and  C_9
REMARK    3  A    between atoms: C_9  and  C_11
REMARK    4  A    between atoms: C_17  and  C_18
REMARK    5  A    between atoms: C_18  and  N_21
REMARK                            x       y       z     vdW  Elec       q    Type
REMARK                         _______ _______ _______ _____ _____    ______ ____
ROOT
ATOM      1  N   UNL     1      31.665 -11.375 -21.057  0.00  0.00    +0.388 N 
ATOM      2  C   UNL     1      31.418  -8.458 -20.818  0.00  0.00    +0.058 C 
ATOM      3  C   UNL     1      31.233  -9.191 -22.146  0.00  0.00    -0.015 C 
ATOM      4  C   UNL     1      31.242  -9.400 -19.628  0.00  0.00    -0.015 C 
ATOM      5  C   UNL     1      31.992 -10.520 -22.205  0.00  0.00    -0.077 C 
ATOM      6  C   UNL     1      32.013 -10.712 -19.794  0.00  0.00    -0.077 C 
ATOM      7  H   UNL     1      30.658 -11.541 -21.061  0.00  0.00    -0.080 HD
ENDROOT
BRANCH   2   9
ATOM      8  O   UNL     1      33.395  -7.747 -19.702  0.00  0.00    -0.291 OA
ATOM      9  C   UNL     1      32.758  -7.784 -20.752  0.00  0.00    +0.172 C 
BRANCH   9  11
ATOM     10  F   UNL     1      34.839  -5.426 -25.366  0.00  0.00    -0.204 F 
ATOM     11  C   UNL     1      33.313  -7.154 -21.984  0.00  0.00    +0.035 C 
ATOM     12  C   UNL     1      32.568  -6.193 -22.629  0.00  0.00    +0.005 C 
ATOM     13  C   UNL     1      34.552  -7.557 -22.430  0.00  0.00    +0.005 C 
ATOM     14  C   UNL     1      33.088  -5.604 -23.782  0.00  0.00    +0.030 C 
ATOM     15  C   UNL     1      35.072  -6.968 -23.583  0.00  0.00    +0.030 C 
ATOM     16  C   UNL     1      34.340  -5.992 -24.259  0.00  0.00    +0.140 C 
ENDBRANCH   9  11
ENDBRANCH   2   9
BRANCH   1  17
ATOM     17  C   UNL     1      32.352 -12.662 -21.165  0.00  0.00    -0.052 C 
BRANCH  17  18
ATOM     18  C   UNL     1      33.305 -12.654 -22.352  0.00  0.00    +0.091 C 
BRANCH  18  21
ATOM     19  O   UNL     1      34.428 -14.403 -20.517  0.00  0.00    -0.267 OA
ATOM     20  O   UNL     1      33.023 -13.739 -24.927  0.00  0.00    -0.246 OA
ATOM     21  N   UNL     1      33.710 -13.987 -22.703  0.00  0.00    -0.251 N 
ATOM     22  N   UNL     1      33.936 -15.731 -24.311  0.00  0.00    -0.306 N 
ATOM     23  C   UNL     1      34.274 -14.784 -21.676  0.00  0.00    +0.265 A 
ATOM     24  C   UNL     1      33.522 -14.437 -24.040  0.00  0.00    +0.330 A 
ATOM     25  C   UNL     1      34.687 -16.150 -22.050  0.00  0.00    +0.072 A 
ATOM     26  C   UNL     1      34.505 -16.582 -23.360  0.00  0.00    +0.065 A 
ATOM     27  C   UNL     1      35.257 -17.007 -21.103  0.00  0.00    +0.006 C 
ATOM     28  C   UNL     1      34.891 -17.872 -23.734  0.00  0.00    +0.017 C 
ATOM     29  C   UNL     1      35.643 -18.296 -21.478  0.00  0.00    +0.000 C 
ATOM     30  C   UNL     1      35.459 -18.727 -22.791  0.00  0.00    +0.001 C 
ATOM     31  H   UNL     1      33.820 -16.071 -25.228  0.00  0.00    +0.170 HD
ENDBRANCH  18  21
ENDBRANCH  17  18
ENDBRANCH   1  17
TORSDOF 5
ENDMDL
MODEL 7
REMARK VINA RESULT:     -10.5      6.713     10.708
REMARK  Name = 3822
REMARK  5 active torsions:
REMARK  status: ('A' for Active; 'I' for Inactive)
REMARK    1  A    between atoms: N_1  and  C_17
REMARK    2  A    between atoms: C_2  and  C_9
REMARK    3  A    between atoms: C_9  and  C_11
REMARK    4  A    between atoms: C_17  and  C_18
REMARK    5  A    between atoms: C_18  and  N_21
REMARK                            x       y       z     vdW  Elec       q    Type
REMARK                         _______ _______ _______ _____ _____    ______ ____
ROOT
ATOM      1  N   UNL     1      32.892 -10.560 -22.286  0.00  0.00    +0.388 N 
ATOM      2  C   UNL     1      32.547  -7.673 -21.874  0.00  0.00    +0.058 C 
ATOM      3  C   UNL     1      31.932  -8.715 -20.940  0.00  0.00    -0.015 C 
ATOM      4  C   UNL     1      33.706  -8.257 -22.679  0.00  0.00    -0.015 C 
ATOM      5  C   UNL     1      31.678 -10.058 -21.629  0.00  0.00    -0.077 C 
ATOM      6  C   UNL     1      33.366  -9.614 -23.303  0.00  0.00    -0.077 C 
ATOM      7  H   UNL     1      33.620 -10.656 -21.577  0.00  0.00    -0.080 HD
ENDROOT
BRANCH   2   9
ATOM      8  O   UNL     1      30.495  -7.720 -23.076  0.00  0.00    -0.291 OA
ATOM      9  C   UNL     1      31.514  -7.092 -22.796  0.00  0.00    +0.172 C 
BRANCH   9  11
ATOM     10  F   UNL     1      32.350  -2.011 -24.953  0.00  0.00    -0.204 F 
ATOM     11  C   UNL     1      31.738  -5.736 -23.372  0.00  0.00    +0.035 C 
ATOM     12  C   UNL     1      32.620  -5.599 -24.420  0.00  0.00    +0.005 C 
ATOM     13  C   UNL     1      31.051  -4.669 -22.835  0.00  0.00    +0.005 C 
ATOM     14  C   UNL     1      32.829  -4.330 -24.958  0.00  0.00    +0.030 C 
ATOM     15  C   UNL     1      31.260  -3.399 -23.373  0.00  0.00    +0.030 C 
ATOM     16  C   UNL     1      32.149  -3.229 -24.435  0.00  0.00    +0.140 C 
ENDBRANCH   9  11
ENDBRANCH   2   9
BRANCH   1  17
ATOM     17  C   UNL     1      32.644 -11.872 -22.884  0.00  0.00    -0.052 C 
BRANCH  17  18
ATOM     18  C   UNL     1      33.808 -12.273 -23.779  0.00  0.00    +0.091 C 
BRANCH  18  21
ATOM     19  O   UNL     1      34.898 -14.072 -21.974  0.00  0.00    -0.267 OA
ATOM     20  O   UNL     1      32.727 -13.482 -26.072  0.00  0.00    -0.246 OA
ATOM     21  N   UNL     1      33.820 -13.691 -24.013  0.00  0.00    -0.251 N 
ATOM     22  N   UNL     1      33.291 -15.574 -25.374  0.00  0.00    -0.306 N 
ATOM     23  C   UNL     1      34.409 -14.506 -23.014  0.00  0.00    +0.265 A 
ATOM     24  C   UNL     1      33.245 -14.199 -25.211  0.00  0.00    +0.330 A 
ATOM     25  C   UNL     1      34.417 -15.960 -23.268  0.00  0.00    +0.072 A 
ATOM     26  C   UNL     1      33.856 -16.449 -24.444  0.00  0.00    +0.065 A 
ATOM     27  C   UNL     1      34.980 -16.842 -22.340  0.00  0.00    +0.006 C 
ATOM     28  C   UNL     1      33.855 -17.823 -24.702  0.00  0.00    +0.017 C 
ATOM     29  C   UNL     1      34.979 -18.214 -22.599  0.00  0.00    +0.000 C 
ATOM     30  C   UNL     1      34.417 -18.703 -23.777  0.00  0.00    +0.001 C 
ATOM     31  H   UNL     1      32.902 -15.956 -26.194  0.00  0.00    +0.170 HD
ENDBRANCH  18  21
ENDBRANCH  17  18
ENDBRANCH   1  17
TORSDOF 5
ENDMDL
MODEL 8
REMARK VINA RESULT:     -10.5      4.648     10.403
REMARK  Name = 3822
REMARK  5 active torsions:
REMARK  status: ('A' for Active; 'I' for Inactive)
REMARK    1  A    between atoms: N_1  and  C_17
REMARK    2  A    between atoms: C_2  and  C_9
REMARK    3  A    between atoms: C_9  and  C_11
REMARK    4  A    between atoms: C_17  and  C_18
REMARK    5  A    between atoms: C_18  and  N_21
REMARK                            x       y       z     vdW  Elec       q    Type
REMARK                         _______ _______ _______ _____ _____    ______ ____
ROOT
ATOM      1  N   UNL     1      34.969 -15.681 -21.770  0.00  0.00    +0.388 N 
ATOM      2  C   UNL     1      35.520 -18.491 -22.426  0.00  0.00    +0.058 C 
ATOM      3  C   UNL     1      35.242 -17.436 -23.497  0.00  0.00    -0.015 C 
ATOM      4  C   UNL     1      35.960 -17.850 -21.111  0.00  0.00    -0.015 C 
ATOM      5  C   UNL     1      34.390 -16.272 -22.983  0.00  0.00    -0.077 C 
ATOM      6  C   UNL     1      35.066 -16.678 -20.697  0.00  0.00    -0.077 C 
ATOM      7  H   UNL     1      35.912 -15.361 -21.991  0.00  0.00    -0.080 HD
ENDROOT
BRANCH   2   9
ATOM      8  O   UNL     1      33.399 -19.393 -23.013  0.00  0.00    -0.291 OA
ATOM      9  C   UNL     1      34.321 -19.366 -22.202  0.00  0.00    +0.172 C 
BRANCH   9  11
ATOM     10  F   UNL     1      34.094 -22.525 -17.603  0.00  0.00    -0.204 F 
ATOM     11  C   UNL     1      34.260 -20.209 -20.974  0.00  0.00    +0.035 C 
ATOM     12  C   UNL     1      33.032 -20.457 -20.402  0.00  0.00    +0.005 C 
ATOM     13  C   UNL     1      35.435 -20.710 -20.458  0.00  0.00    +0.005 C 
ATOM     14  C   UNL     1      32.976 -21.247 -19.253  0.00  0.00    +0.030 C 
ATOM     15  C   UNL     1      35.378 -21.499 -19.309  0.00  0.00    +0.030 C 
ATOM     16  C   UNL     1      34.149 -21.768 -18.706  0.00  0.00    +0.140 C 
ENDBRANCH   9  11
ENDBRANCH   2   9
BRANCH   1  17
ATOM     17  C   UNL     1      34.174 -14.533 -21.331  0.00  0.00    -0.052 C 
BRANCH  17  18
ATOM     18  C   UNL     1      33.395 -13.953 -22.502  0.00  0.00    +0.091 C 
BRANCH  18  21
ATOM     19  O   UNL     1      34.126 -11.707 -23.953  0.00  0.00    -0.267 OA
ATOM     20  O   UNL     1      31.596 -13.416 -20.413  0.00  0.00    -0.246 OA
ATOM     21  N   UNL     1      32.898 -12.639 -22.196  0.00  0.00    -0.251 N 
ATOM     22  N   UNL     1      31.550 -11.187 -20.872  0.00  0.00    -0.306 N 
ATOM     23  C   UNL     1      33.349 -11.571 -23.011  0.00  0.00    +0.265 A 
ATOM     24  C   UNL     1      31.989 -12.479 -21.114  0.00  0.00    +0.330 A 
ATOM     25  C   UNL     1      32.833 -10.227 -22.686  0.00  0.00    +0.072 A 
ATOM     26  C   UNL     1      31.947 -10.077 -21.623  0.00  0.00    +0.065 A 
ATOM     27  C   UNL     1      33.225  -9.113 -23.433  0.00  0.00    +0.006 C 
ATOM     28  C   UNL     1      31.448  -8.813 -21.298  0.00  0.00    +0.017 C 
ATOM     29  C   UNL     1      32.727  -7.849 -23.108  0.00  0.00    +0.000 C 
ATOM     30  C   UNL     1      31.839  -7.701 -22.043  0.00  0.00    +0.001 C 
ATOM     31  H   UNL     1      30.921 -11.043 -20.129  0.00  0.00    +0.170 HD
ENDBRANCH  18  21
ENDBRANCH  17  18
ENDBRANCH   1  17
TORSDOF 5
ENDMDL
MODEL 9
REMARK VINA RESULT:     -10.4      3.188      5.780
REMARK  Name = 3822
REMARK  5 active torsions:
REMARK  status: ('A' for Active; 'I' for Inactive)
REMARK    1  A    between atoms: N_1  and  C_17
REMARK    2  A    between atoms: C_2  and  C_9
REMARK    3  A    between atoms: C_9  and  C_11
REMARK    4  A    between atoms: C_17  and  C_18
REMARK    5  A    between atoms: C_18  and  N_21
REMARK                            x       y       z     vdW  Elec       q    Type
REMARK                         _______ _______ _______ _____ _____    ______ ____
ROOT
ATOM      1  N   UNL     1      34.392 -15.639 -22.587  0.00  0.00    +0.388 N 
ATOM      2  C   UNL     1      32.911 -13.307 -23.584  0.00  0.00    +0.058 C 
ATOM      3  C   UNL     1      32.952 -14.637 -24.336  0.00  0.00    -0.015 C 
ATOM      4  C   UNL     1      33.271 -13.486 -22.110  0.00  0.00    -0.015 C 
ATOM      5  C   UNL     1      34.209 -15.457 -24.033  0.00  0.00    -0.077 C 
ATOM      6  C   UNL     1      34.523 -14.344 -21.908  0.00  0.00    -0.077 C 
ATOM      7  H   UNL     1      33.565 -16.108 -22.218  0.00  0.00    -0.080 HD
ENDROOT
BRANCH   2   9
ATOM      8  O   UNL     1      34.576 -12.613 -25.133  0.00  0.00    -0.291 OA
ATOM      9  C   UNL     1      33.818 -12.295 -24.221  0.00  0.00    +0.172 C 
BRANCH   9  11
ATOM     10  F   UNL     1      33.712  -7.022 -22.386  0.00  0.00    -0.204 F 
ATOM     11  C   UNL     1      33.789 -10.887 -23.731  0.00  0.00    +0.035 C 
ATOM     12  C   UNL     1      32.711 -10.468 -22.985  0.00  0.00    +0.005 C 
ATOM     13  C   UNL     1      34.844 -10.058 -24.043  0.00  0.00    +0.005 C 
ATOM     14  C   UNL     1      32.684  -9.151 -22.526  0.00  0.00    +0.030 C 
ATOM     15  C   UNL     1      34.817  -8.740 -23.584  0.00  0.00    +0.030 C 
ATOM     16  C   UNL     1      33.738  -8.287 -22.826  0.00  0.00    +0.140 C 
ENDBRANCH   9  11
ENDBRANCH   2   9
BRANCH   1  17
ATOM     17  C   UNL     1      35.564 -16.475 -22.322  0.00  0.00    -0.052 C 
BRANCH  17  18
ATOM     18  C   UNL     1      35.317 -17.897 -22.803  0.00  0.00    +0.091 C 
BRANCH  18  21
ATOM     19  O   UNL     1      33.208 -19.393 -21.802  0.00  0.00    -0.267 OA
ATOM     20  O   UNL     1      37.776 -18.425 -21.552  0.00  0.00    -0.246 OA
ATOM     21  N   UNL     1      35.481 -18.845 -21.735  0.00  0.00    -0.251 N 
ATOM     22  N   UNL     1      36.859 -19.961 -20.144  0.00  0.00    -0.306 N 
ATOM     23  C   UNL     1      34.324 -19.546 -21.310  0.00  0.00    +0.265 A 
ATOM     24  C   UNL     1      36.772 -19.034 -21.171  0.00  0.00    +0.330 A 
ATOM     25  C   UNL     1      34.505 -20.515 -20.211  0.00  0.00    +0.072 A 
ATOM     26  C   UNL     1      35.771 -20.692 -19.661  0.00  0.00    +0.065 A 
ATOM     27  C   UNL     1      33.421 -21.249 -19.723  0.00  0.00    +0.006 C 
ATOM     28  C   UNL     1      35.962 -21.603 -18.619  0.00  0.00    +0.017 C 
ATOM     29  C   UNL     1      33.612 -22.160 -18.682  0.00  0.00    +0.000 C 
ATOM     30  C   UNL     1      34.881 -22.337 -18.132  0.00  0.00    +0.001 C 
ATOM     31  H   UNL     1      37.741 -20.114 -19.732  0.00  0.00    +0.170 HD
ENDBRANCH  18  21
ENDBRANCH  17  18
ENDBRANCH   1  17
TORSDOF 5
ENDMDL
