MODEL 1
REMARK VINA RESULT:     -12.4      0.000      0.000
REMARK  Name = 446399
REMARK  4 active torsions:
REMARK  status: ('A' for Active; 'I' for Inactive)
REMARK    1  A    between atoms: N_3  and  S_21
REMARK    2  A    between atoms: C_4  and  C_10
REMARK    3  A    between atoms: N_9  and  C_16
REMARK    4  A    between atoms: S_21  and  C_25
REMARK                            x       y       z     vdW  Elec       q    Type
REMARK                         _______ _______ _______ _____ _____    ______ ____
ROOT
ATOM      1  O   UNL     1      33.275 -13.742 -25.469  0.00  0.00    -0.275 OA
ATOM      2  N   UNL     1      33.672 -15.114 -23.637  0.00  0.00    -0.277 N 
ATOM      3  N   UNL     1      34.962 -17.489 -22.748  0.00  0.00    -0.152 NA
ATOM      4  C   UNL     1      33.491 -13.881 -24.262  0.00  0.00    +0.225 C 
ATOM      5  C   UNL     1      33.931 -15.315 -22.207  0.00  0.00    +0.113 C 
ATOM      6  C   UNL     1      33.541 -16.351 -24.408  0.00  0.00    +0.113 C 
ATOM      7  C   UNL     1      35.149 -16.211 -21.999  0.00  0.00    +0.117 C 
ATOM      8  C   UNL     1      34.758 -17.248 -24.209  0.00  0.00    +0.117 C 
ENDROOT
BRANCH   4  10
ATOM      9  N   UNL     1      32.555 -10.097 -22.529  0.00  0.00    -0.307 N 
ATOM     10  C   UNL     1      33.572 -12.661 -23.381  0.00  0.00    +0.080 C 
ATOM     11  C   UNL     1      32.297 -12.546 -22.550  0.00  0.00    +0.031 C 
ATOM     12  C   UNL     1      33.754 -11.408 -24.234  0.00  0.00    +0.031 C 
ATOM     13  C   UNL     1      32.295 -11.278 -21.698  0.00  0.00    +0.091 C 
ATOM     14  C   UNL     1      33.756 -10.146 -23.375  0.00  0.00    +0.091 C 
BRANCH   9  16
ATOM     15  N   UNL     1      31.264  -6.302 -21.204  0.00  0.00    -0.242 NA
ATOM     16  C   UNL     1      32.127  -8.838 -22.090  0.00  0.00    +0.051 C 
ATOM     17  C   UNL     1      32.370  -8.409 -20.776  0.00  0.00    +0.035 C 
ATOM     18  C   UNL     1      31.440  -7.967 -22.950  0.00  0.00    +0.035 C 
ATOM     19  C   UNL     1      31.926  -7.154 -20.390  0.00  0.00    +0.100 C 
ATOM     20  C   UNL     1      31.038  -6.732 -22.467  0.00  0.00    +0.100 C 
ENDBRANCH   9  16
ENDBRANCH   4  10
BRANCH   3  21
ATOM     21  S   UNL     1      36.071 -18.736 -22.360  0.00  0.00    +0.063 S 
ATOM     22  O   UNL     1      37.180 -18.169 -21.626  0.00  0.00    -0.153 OA
ATOM     23  O   UNL     1      36.292 -19.549 -23.537  0.00  0.00    -0.153 OA
BRANCH  21  25
ATOM     24 CL   UNL     1      32.455 -23.579 -16.430  0.00  0.00    -0.082 Cl
ATOM     25  C   UNL     1      35.094 -19.674 -21.228  0.00  0.00    +0.122 C 
ATOM     26  C   UNL     1      35.725 -20.423 -20.249  0.00  0.00    +0.020 C 
ATOM     27  C   UNL     1      33.716 -19.643 -21.337  0.00  0.00    +0.020 C 
ATOM     28  C   UNL     1      34.962 -21.175 -19.339  0.00  0.00    +0.001 C 
ATOM     29  C   UNL     1      33.550 -21.154 -19.438  0.00  0.00    +0.001 C 
ATOM     30  C   UNL     1      32.943 -20.384 -20.442  0.00  0.00    +0.001 C 
ATOM     31  C   UNL     1      35.570 -21.946 -18.335  0.00  0.00    +0.001 C 
ATOM     32  C   UNL     1      32.787 -21.905 -18.528  0.00  0.00    +0.011 C 
ATOM     33  C   UNL     1      34.796 -22.686 -17.440  0.00  0.00    +0.011 C 
ATOM     34  C   UNL     1      33.407 -22.666 -17.537  0.00  0.00    +0.058 C 
ENDBRANCH  21  25
ENDBRANCH   3  21
TORSDOF 4
ENDMDL
MODEL 2
REMARK VINA RESULT:     -11.3      4.494     11.456
REMARK  Name = 446399
REMARK  4 active torsions:
REMARK  status: ('A' for Active; 'I' for Inactive)
REMARK    1  A    between atoms: N_3  and  S_21
REMARK    2  A    between atoms: C_4  and  C_10
REMARK    3  A    between atoms: N_9  and  C_16
REMARK    4  A    between atoms: S_21  and  C_25
REMARK                            x       y       z     vdW  Elec       q    Type
REMARK                         _______ _______ _______ _____ _____    ______ ____
ROOT
ATOM      1  O   UNL     1      34.096 -16.030 -25.441  0.00  0.00    -0.275 OA
ATOM      2  N   UNL     1      34.202 -14.634 -23.588  0.00  0.00    -0.277 N 
ATOM      3  N   UNL     1      32.885 -12.547 -22.171  0.00  0.00    -0.152 NA
ATOM      4  C   UNL     1      34.390 -15.842 -24.257  0.00  0.00    +0.225 C 
ATOM      5  C   UNL     1      34.539 -14.377 -22.183  0.00  0.00    +0.113 C 
ATOM      6  C   UNL     1      33.689 -13.469 -24.310  0.00  0.00    +0.113 C 
ATOM      7  C   UNL     1      33.351 -13.766 -21.445  0.00  0.00    +0.117 C 
ATOM      8  C   UNL     1      32.497 -12.858 -23.581  0.00  0.00    +0.117 C 
ENDROOT
BRANCH   4  10
ATOM      9  N   UNL     1      34.739 -19.088 -21.512  0.00  0.00    -0.307 N 
ATOM     10  C   UNL     1      34.989 -16.970 -23.457  0.00  0.00    +0.080 C 
ATOM     11  C   UNL     1      34.259 -18.270 -23.785  0.00  0.00    +0.031 C 
ATOM     12  C   UNL     1      34.879 -16.671 -21.964  0.00  0.00    +0.031 C 
ATOM     13  C   UNL     1      34.777 -19.433 -22.937  0.00  0.00    +0.091 C 
ATOM     14  C   UNL     1      35.401 -17.835 -21.124  0.00  0.00    +0.091 C 
BRANCH   9  16
ATOM     15  N   UNL     1      34.588 -22.174 -18.634  0.00  0.00    -0.242 NA
ATOM     16  C   UNL     1      34.689 -20.112 -20.557  0.00  0.00    +0.051 C 
ATOM     17  C   UNL     1      33.461 -20.613 -20.098  0.00  0.00    +0.035 C 
ATOM     18  C   UNL     1      35.865 -20.667 -20.030  0.00  0.00    +0.035 C 
ATOM     19  C   UNL     1      33.466 -21.627 -19.152  0.00  0.00    +0.100 C 
ATOM     20  C   UNL     1      35.762 -21.679 -19.088  0.00  0.00    +0.100 C 
ENDBRANCH   9  16
ENDBRANCH   4  10
BRANCH   3  21
ATOM     21  S   UNL     1      31.784 -11.555 -21.311  0.00  0.00    +0.063 S 
ATOM     22  O   UNL     1      32.184 -11.501 -19.923  0.00  0.00    -0.153 OA
ATOM     23  O   UNL     1      30.435 -11.920 -21.686  0.00  0.00    -0.153 OA
BRANCH  21  25
ATOM     24 CL   UNL     1      32.458  -3.671 -24.322  0.00  0.00    -0.082 Cl
ATOM     25  C   UNL     1      32.147  -9.990 -22.041  0.00  0.00    +0.122 C 
ATOM     26  C   UNL     1      31.253  -8.944 -21.879  0.00  0.00    +0.020 C 
ATOM     27  C   UNL     1      33.317  -9.833 -22.760  0.00  0.00    +0.020 C 
ATOM     28  C   UNL     1      31.527  -7.691 -22.453  0.00  0.00    +0.001 C 
ATOM     29  C   UNL     1      32.720  -7.515 -23.192  0.00  0.00    +0.001 C 
ATOM     30  C   UNL     1      33.605  -8.596 -23.336  0.00  0.00    +0.001 C 
ATOM     31  C   UNL     1      30.642  -6.610 -22.309  0.00  0.00    +0.001 C 
ATOM     32  C   UNL     1      32.995  -6.262 -23.766  0.00  0.00    +0.011 C 
ATOM     33  C   UNL     1      30.930  -5.372 -22.886  0.00  0.00    +0.011 C 
ATOM     34  C   UNL     1      32.104  -5.199 -23.613  0.00  0.00    +0.058 C 
ENDBRANCH  21  25
ENDBRANCH   3  21
TORSDOF 4
ENDMDL
MODEL 3
REMARK VINA RESULT:     -10.8      5.315     11.831
REMARK  Name = 446399
REMARK  4 active torsions:
REMARK  status: ('A' for Active; 'I' for Inactive)
REMARK    1  A    between atoms: N_3  and  S_21
REMARK    2  A    between atoms: C_4  and  C_10
REMARK    3  A    between atoms: N_9  and  C_16
REMARK    4  A    between atoms: S_21  and  C_25
REMARK                            x       y       z     vdW  Elec       q    Type
REMARK                         _______ _______ _______ _____ _____    ______ ____
ROOT
ATOM      1  O   UNL     1      32.038 -22.010 -17.912  0.00  0.00    -0.275 OA
ATOM      2  N   UNL     1      34.081 -21.832 -19.003  0.00  0.00    -0.277 N 
ATOM      3  N   UNL     1      35.793 -20.092 -20.464  0.00  0.00    -0.152 NA
ATOM      4  C   UNL     1      33.237 -22.290 -17.992  0.00  0.00    +0.225 C 
ATOM      5  C   UNL     1      35.509 -22.146 -19.127  0.00  0.00    +0.113 C 
ATOM      6  C   UNL     1      33.542 -21.022 -20.096  0.00  0.00    +0.113 C 
ATOM      7  C   UNL     1      36.328 -20.870 -19.306  0.00  0.00    +0.117 C 
ATOM      8  C   UNL     1      34.352 -19.743 -20.275  0.00  0.00    +0.117 C 
ENDROOT
BRANCH   4  10
ATOM      9  N   UNL     1      34.966 -23.565 -14.307  0.00  0.00    -0.307 N 
ATOM     10  C   UNL     1      33.859 -23.177 -16.944  0.00  0.00    +0.080 C 
ATOM     11  C   UNL     1      32.971 -23.199 -15.703  0.00  0.00    +0.031 C 
ATOM     12  C   UNL     1      35.251 -22.666 -16.582  0.00  0.00    +0.031 C 
ATOM     13  C   UNL     1      33.599 -24.022 -14.578  0.00  0.00    +0.091 C 
ATOM     14  C   UNL     1      35.873 -23.496 -15.461  0.00  0.00    +0.091 C 
BRANCH   9  16
ATOM     15  N   UNL     1      36.690 -24.310 -10.526  0.00  0.00    -0.242 NA
ATOM     16  C   UNL     1      35.538 -23.812 -13.052  0.00  0.00    +0.051 C 
ATOM     17  C   UNL     1      36.844 -23.391 -12.757  0.00  0.00    +0.035 C 
ATOM     18  C   UNL     1      34.823 -24.490 -12.052  0.00  0.00    +0.035 C 
ATOM     19  C   UNL     1      37.364 -23.659 -11.500  0.00  0.00    +0.100 C 
ATOM     20  C   UNL     1      35.434 -24.709 -10.828  0.00  0.00    +0.100 C 
ENDBRANCH   9  16
ENDBRANCH   4  10
BRANCH   3  21
ATOM     21  S   UNL     1      36.791 -18.812 -21.011  0.00  0.00    +0.063 S 
ATOM     22  O   UNL     1      37.942 -19.367 -21.688  0.00  0.00    -0.153 OA
ATOM     23  O   UNL     1      36.946 -17.849 -19.942  0.00  0.00    -0.153 OA
BRANCH  21  25
ATOM     24 CL   UNL     1      31.999 -14.322 -26.356  0.00  0.00    -0.082 Cl
ATOM     25  C   UNL     1      35.735 -18.101 -22.233  0.00  0.00    +0.122 C 
ATOM     26  C   UNL     1      35.544 -16.729 -22.250  0.00  0.00    +0.020 C 
ATOM     27  C   UNL     1      35.116 -18.925 -23.155  0.00  0.00    +0.020 C 
ATOM     28  C   UNL     1      34.707 -16.147 -23.216  0.00  0.00    +0.001 C 
ATOM     29  C   UNL     1      34.067 -16.978 -24.166  0.00  0.00    +0.001 C 
ATOM     30  C   UNL     1      34.281 -18.364 -24.122  0.00  0.00    +0.001 C 
ATOM     31  C   UNL     1      34.493 -14.760 -23.261  0.00  0.00    +0.001 C 
ATOM     32  C   UNL     1      33.230 -16.396 -25.134  0.00  0.00    +0.011 C 
ATOM     33  C   UNL     1      33.658 -14.200 -24.228  0.00  0.00    +0.011 C 
ATOM     34  C   UNL     1      33.027 -15.017 -25.163  0.00  0.00    +0.058 C 
ENDBRANCH  21  25
ENDBRANCH   3  21
TORSDOF 4
ENDMDL
MODEL 4
REMARK VINA RESULT:     -10.4      3.036      4.907
REMARK  Name = 446399
REMARK  4 active torsions:
REMARK  status: ('A' for Active; 'I' for Inactive)
REMARK    1  A    between atoms: N_3  and  S_21
REMARK    2  A    between atoms: C_4  and  C_10
REMARK    3  A    between atoms: N_9  and  C_16
REMARK    4  A    between atoms: S_21  and  C_25
REMARK                            x       y       z     vdW  Elec       q    Type
REMARK                         _______ _______ _______ _____ _____    ______ ____
ROOT
ATOM      1  O   UNL     1      31.544 -10.549 -20.949  0.00  0.00    -0.275 OA
ATOM      2  N   UNL     1      33.011 -11.374 -22.551  0.00  0.00    -0.277 N 
ATOM      3  N   UNL     1      33.520 -13.515 -24.354  0.00  0.00    -0.152 NA
ATOM      4  C   UNL     1      32.321 -10.359 -21.889  0.00  0.00    +0.225 C 
ATOM      5  C   UNL     1      33.940 -11.183 -23.670  0.00  0.00    +0.113 C 
ATOM      6  C   UNL     1      32.889 -12.760 -22.096  0.00  0.00    +0.113 C 
ATOM      7  C   UNL     1      33.581 -12.102 -24.834  0.00  0.00    +0.117 C 
ATOM      8  C   UNL     1      32.523 -13.682 -23.253  0.00  0.00    +0.117 C 
ENDROOT
BRANCH   4  10
ATOM      9  N   UNL     1      31.749  -6.191 -22.591  0.00  0.00    -0.307 N 
ATOM     10  C   UNL     1      32.559  -8.953 -22.377  0.00  0.00    +0.080 C 
ATOM     11  C   UNL     1      32.636  -8.006 -21.182  0.00  0.00    +0.031 C 
ATOM     12  C   UNL     1      31.432  -8.524 -23.313  0.00  0.00    +0.031 C 
ATOM     13  C   UNL     1      32.795  -6.552 -21.628  0.00  0.00    +0.091 C 
ATOM     14  C   UNL     1      31.601  -7.073 -23.757  0.00  0.00    +0.091 C 
BRANCH   9  16
ATOM     15  N   UNL     1      30.692  -2.133 -23.080  0.00  0.00    -0.242 NA
ATOM     16  C   UNL     1      31.399  -4.844 -22.753  0.00  0.00    +0.051 C 
ATOM     17  C   UNL     1      30.481  -4.227 -21.890  0.00  0.00    +0.035 C 
ATOM     18  C   UNL     1      31.953  -4.072 -23.786  0.00  0.00    +0.035 C 
ATOM     19  C   UNL     1      30.167  -2.892 -22.092  0.00  0.00    +0.100 C 
ATOM     20  C   UNL     1      31.574  -2.744 -23.903  0.00  0.00    +0.100 C 
ENDBRANCH   9  16
ENDBRANCH   4  10
BRANCH   3  21
ATOM     21  S   UNL     1      33.460 -14.706 -25.583  0.00  0.00    +0.063 S 
ATOM     22  O   UNL     1      34.544 -14.480 -26.513  0.00  0.00    -0.153 OA
ATOM     23  O   UNL     1      32.094 -14.833 -26.045  0.00  0.00    -0.153 OA
BRANCH  21  25
ATOM     24 CL   UNL     1      35.840 -20.829 -20.241  0.00  0.00    -0.082 Cl
ATOM     25  C   UNL     1      33.850 -16.144 -24.637  0.00  0.00    +0.122 C 
ATOM     26  C   UNL     1      34.525 -16.003 -23.436  0.00  0.00    +0.020 C 
ATOM     27  C   UNL     1      33.473 -17.388 -25.111  0.00  0.00    +0.020 C 
ATOM     28  C   UNL     1      34.843 -17.138 -22.671  0.00  0.00    +0.001 C 
ATOM     29  C   UNL     1      34.464 -18.418 -23.142  0.00  0.00    +0.001 C 
ATOM     30  C   UNL     1      33.780 -18.525 -24.363  0.00  0.00    +0.001 C 
ATOM     31  C   UNL     1      35.527 -17.030 -21.450  0.00  0.00    +0.001 C 
ATOM     32  C   UNL     1      34.781 -19.553 -22.377  0.00  0.00    +0.011 C 
ATOM     33  C   UNL     1      35.834 -18.168 -20.703  0.00  0.00    +0.011 C 
ATOM     34  C   UNL     1      35.462 -19.427 -21.166  0.00  0.00    +0.058 C 
ENDBRANCH  21  25
ENDBRANCH   3  21
TORSDOF 4
ENDMDL
MODEL 5
REMARK VINA RESULT:     -10.0      2.205      3.579
REMARK  Name = 446399
REMARK  4 active torsions:
REMARK  status: ('A' for Active; 'I' for Inactive)
REMARK    1  A    between atoms: N_3  and  S_21
REMARK    2  A    between atoms: C_4  and  C_10
REMARK    3  A    between atoms: N_9  and  C_16
REMARK    4  A    between atoms: S_21  and  C_25
REMARK                            x       y       z     vdW  Elec       q    Type
REMARK                         _______ _______ _______ _____ _____    ______ ____
ROOT
ATOM      1  O   UNL     1      32.332 -11.797 -20.471  0.00  0.00    -0.275 OA
ATOM      2  N   UNL     1      33.472 -12.713 -22.275  0.00  0.00    -0.277 N 
ATOM      3  N   UNL     1      34.169 -15.133 -23.599  0.00  0.00    -0.152 NA
ATOM      4  C   UNL     1      32.688 -11.744 -21.651  0.00  0.00    +0.225 C 
ATOM      5  C   UNL     1      33.913 -12.681 -23.674  0.00  0.00    +0.113 C 
ATOM      6  C   UNL     1      33.984 -13.848 -21.505  0.00  0.00    +0.113 C 
ATOM      7  C   UNL     1      33.586 -13.997 -24.374  0.00  0.00    +0.117 C 
ATOM      8  C   UNL     1      33.654 -15.166 -22.196  0.00  0.00    +0.117 C 
ENDROOT
BRANCH   4  10
ATOM      9  N   UNL     1      32.041  -7.727 -22.932  0.00  0.00    -0.307 N 
ATOM     10  C   UNL     1      32.263 -10.572 -22.498  0.00  0.00    +0.080 C 
ATOM     11  C   UNL     1      33.483  -9.722 -22.840  0.00  0.00    +0.031 C 
ATOM     12  C   UNL     1      31.231  -9.731 -21.751  0.00  0.00    +0.031 C 
ATOM     13  C   UNL     1      33.093  -8.474 -23.632  0.00  0.00    +0.091 C 
ATOM     14  C   UNL     1      30.844  -8.489 -22.550  0.00  0.00    +0.091 C 
BRANCH   9  16
ATOM     15  N   UNL     1      31.557  -3.606 -23.708  0.00  0.00    -0.242 NA
ATOM     16  C   UNL     1      31.880  -6.360 -23.190  0.00  0.00    +0.051 C 
ATOM     17  C   UNL     1      32.625  -5.720 -24.193  0.00  0.00    +0.035 C 
ATOM     18  C   UNL     1      30.970  -5.587 -22.451  0.00  0.00    +0.035 C 
ATOM     19  C   UNL     1      32.429  -4.365 -24.408  0.00  0.00    +0.100 C 
ATOM     20  C   UNL     1      30.848  -4.238 -22.745  0.00  0.00    +0.100 C 
ENDBRANCH   9  16
ENDBRANCH   4  10
BRANCH   3  21
ATOM     21  S   UNL     1      34.186 -16.642 -24.408  0.00  0.00    +0.063 S 
ATOM     22  O   UNL     1      35.154 -16.592 -25.481  0.00  0.00    -0.153 OA
ATOM     23  O   UNL     1      32.821 -17.057 -24.653  0.00  0.00    -0.153 OA
BRANCH  21  25
ATOM     24 CL   UNL     1      36.210 -22.009 -18.180  0.00  0.00    -0.082 Cl
ATOM     25  C   UNL     1      34.845 -17.668 -23.132  0.00  0.00    +0.122 C 
ATOM     26  C   UNL     1      34.007 -18.550 -22.470  0.00  0.00    +0.020 C 
ATOM     27  C   UNL     1      36.188 -17.575 -22.816  0.00  0.00    +0.020 C 
ATOM     28  C   UNL     1      34.516 -19.373 -21.452  0.00  0.00    +0.001 C 
ATOM     29  C   UNL     1      35.889 -19.290 -21.117  0.00  0.00    +0.001 C 
ATOM     30  C   UNL     1      36.711 -18.386 -21.808  0.00  0.00    +0.001 C 
ATOM     31  C   UNL     1      33.694 -20.278 -20.761  0.00  0.00    +0.001 C 
ATOM     32  C   UNL     1      36.399 -20.114 -20.100  0.00  0.00    +0.011 C 
ATOM     33  C   UNL     1      34.217 -21.088 -19.753  0.00  0.00    +0.011 C 
ATOM     34  C   UNL     1      35.567 -21.006 -19.423  0.00  0.00    +0.058 C 
ENDBRANCH  21  25
ENDBRANCH   3  21
TORSDOF 4
ENDMDL
MODEL 6
REMARK VINA RESULT:      -9.8      4.754     11.624
REMARK  Name = 446399
REMARK  4 active torsions:
REMARK  status: ('A' for Active; 'I' for Inactive)
REMARK    1  A    between atoms: N_3  and  S_21
REMARK    2  A    between atoms: C_4  and  C_10
REMARK    3  A    between atoms: N_9  and  C_16
REMARK    4  A    between atoms: S_21  and  C_25
REMARK                            x       y       z     vdW  Elec       q    Type
REMARK                         _______ _______ _______ _____ _____    ______ ____
ROOT
ATOM      1  O   UNL     1      32.184 -21.615 -17.930  0.00  0.00    -0.275 OA
ATOM      2  N   UNL     1      34.023 -21.601 -19.349  0.00  0.00    -0.277 N 
ATOM      3  N   UNL     1      35.559 -20.021 -21.149  0.00  0.00    -0.152 NA
ATOM      4  C   UNL     1      33.336 -21.970 -18.194  0.00  0.00    +0.225 C 
ATOM      5  C   UNL     1      35.391 -22.004 -19.693  0.00  0.00    +0.113 C 
ATOM      6  C   UNL     1      33.353 -20.798 -20.374  0.00  0.00    +0.113 C 
ATOM      7  C   UNL     1      36.237 -20.789 -20.062  0.00  0.00    +0.117 C 
ATOM      8  C   UNL     1      34.190 -19.578 -20.742  0.00  0.00    +0.117 C 
ENDROOT
BRANCH   4  10
ATOM      9  N   UNL     1      35.134 -23.373 -14.589  0.00  0.00    -0.307 N 
ATOM     10  C   UNL     1      34.075 -22.856 -17.224  0.00  0.00    +0.080 C 
ATOM     11  C   UNL     1      33.160 -23.202 -16.052  0.00  0.00    +0.031 C 
ATOM     12  C   UNL     1      35.329 -22.148 -16.717  0.00  0.00    +0.031 C 
ATOM     13  C   UNL     1      33.890 -24.035 -14.998  0.00  0.00    +0.091 C 
ATOM     14  C   UNL     1      36.055 -22.988 -15.668  0.00  0.00    +0.091 C 
BRANCH   9  16
ATOM     15  N   UNL     1      36.821 -24.273 -10.825  0.00  0.00    -0.242 NA
ATOM     16  C   UNL     1      35.693 -23.671 -13.340  0.00  0.00    +0.051 C 
ATOM     17  C   UNL     1      37.045 -23.405 -13.071  0.00  0.00    +0.035 C 
ATOM     18  C   UNL     1      34.920 -24.247 -12.320  0.00  0.00    +0.035 C 
ATOM     19  C   UNL     1      37.551 -23.719 -11.819  0.00  0.00    +0.100 C 
ATOM     20  C   UNL     1      35.521 -24.522 -11.102  0.00  0.00    +0.100 C 
ENDBRANCH   9  16
ENDBRANCH   4  10
BRANCH   3  21
ATOM     21  S   UNL     1      36.519 -18.824 -21.910  0.00  0.00    +0.063 S 
ATOM     22  O   UNL     1      36.509 -19.049 -23.339  0.00  0.00    -0.153 OA
ATOM     23  O   UNL     1      37.763 -18.690 -21.184  0.00  0.00    -0.153 OA
BRANCH  21  25
ATOM     24 CL   UNL     1      31.818 -11.791 -21.550  0.00  0.00    -0.082 Cl
ATOM     25  C   UNL     1      35.541 -17.391 -21.581  0.00  0.00    +0.122 C 
ATOM     26  C   UNL     1      35.110 -16.608 -22.639  0.00  0.00    +0.020 C 
ATOM     27  C   UNL     1      35.222 -17.076 -20.274  0.00  0.00    +0.020 C 
ATOM     28  C   UNL     1      34.331 -15.465 -22.394  0.00  0.00    +0.001 C 
ATOM     29  C   UNL     1      33.995 -15.129 -21.061  0.00  0.00    +0.001 C 
ATOM     30  C   UNL     1      34.449 -15.945 -20.013  0.00  0.00    +0.001 C 
ATOM     31  C   UNL     1      33.877 -14.649 -23.444  0.00  0.00    +0.001 C 
ATOM     32  C   UNL     1      33.215 -13.986 -20.816  0.00  0.00    +0.011 C 
ATOM     33  C   UNL     1      33.104 -13.517 -23.182  0.00  0.00    +0.011 C 
ATOM     34  C   UNL     1      32.774 -13.186 -21.870  0.00  0.00    +0.058 C 
ENDBRANCH  21  25
ENDBRANCH   3  21
TORSDOF 4
ENDMDL
MODEL 7
REMARK VINA RESULT:      -9.5      3.617      6.386
REMARK  Name = 446399
REMARK  4 active torsions:
REMARK  status: ('A' for Active; 'I' for Inactive)
REMARK    1  A    between atoms: N_3  and  S_21
REMARK    2  A    between atoms: C_4  and  C_10
REMARK    3  A    between atoms: N_9  and  C_16
REMARK    4  A    between atoms: S_21  and  C_25
REMARK                            x       y       z     vdW  Elec       q    Type
REMARK                         _______ _______ _______ _____ _____    ______ ____
ROOT
ATOM      1  O   UNL     1      36.872 -18.267 -20.464  0.00  0.00    -0.275 OA
ATOM      2  N   UNL     1      35.247 -19.925 -20.532  0.00  0.00    -0.277 N 
ATOM      3  N   UNL     1      34.090 -22.105 -19.118  0.00  0.00    -0.152 NA
ATOM      4  C   UNL     1      35.742 -18.647 -20.785  0.00  0.00    +0.225 C 
ATOM      5  C   UNL     1      33.911 -20.408 -20.899  0.00  0.00    +0.113 C 
ATOM      6  C   UNL     1      36.106 -20.934 -19.911  0.00  0.00    +0.113 C 
ATOM      7  C   UNL     1      33.216 -21.040 -19.696  0.00  0.00    +0.117 C 
ATOM      8  C   UNL     1      35.420 -21.564 -18.704  0.00  0.00    +0.117 C 
ENDROOT
BRANCH   4  10
ATOM      9  N   UNL     1      34.377 -15.353 -23.127  0.00  0.00    -0.307 N 
ATOM     10  C   UNL     1      34.815 -17.691 -21.492  0.00  0.00    +0.080 C 
ATOM     11  C   UNL     1      35.124 -17.696 -22.987  0.00  0.00    +0.031 C 
ATOM     12  C   UNL     1      34.983 -16.283 -20.928  0.00  0.00    +0.031 C 
ATOM     13  C   UNL     1      34.264 -16.681 -23.740  0.00  0.00    +0.091 C 
ATOM     14  C   UNL     1      34.117 -15.276 -21.682  0.00  0.00    +0.091 C 
BRANCH   9  16
ATOM     15  N   UNL     1      33.533 -11.922 -25.437  0.00  0.00    -0.242 NA
ATOM     16  C   UNL     1      34.098 -14.215 -23.893  0.00  0.00    +0.051 C 
ATOM     17  C   UNL     1      34.235 -12.927 -23.353  0.00  0.00    +0.035 C 
ATOM     18  C   UNL     1      33.670 -14.328 -25.226  0.00  0.00    +0.035 C 
ATOM     19  C   UNL     1      33.946 -11.833 -24.153  0.00  0.00    +0.100 C 
ATOM     20  C   UNL     1      33.406 -13.171 -25.942  0.00  0.00    +0.100 C 
ENDBRANCH   9  16
ENDBRANCH   4  10
BRANCH   3  21
ATOM     21  S   UNL     1      33.333 -23.136 -17.978  0.00  0.00    +0.063 S 
ATOM     22  O   UNL     1      33.317 -24.485 -18.500  0.00  0.00    -0.153 OA
ATOM     23  O   UNL     1      32.120 -22.503 -17.507  0.00  0.00    -0.153 OA
BRANCH  21  25
ATOM     24 CL   UNL     1      38.200 -23.466 -11.058  0.00  0.00    -0.082 Cl
ATOM     25  C   UNL     1      34.520 -23.075 -16.673  0.00  0.00    +0.122 C 
ATOM     26  C   UNL     1      34.218 -23.660 -15.454  0.00  0.00    +0.020 C 
ATOM     27  C   UNL     1      35.731 -22.446 -16.890  0.00  0.00    +0.020 C 
ATOM     28  C   UNL     1      35.152 -23.620 -14.405  0.00  0.00    +0.001 C 
ATOM     29  C   UNL     1      36.397 -22.979 -14.612  0.00  0.00    +0.001 C 
ATOM     30  C   UNL     1      36.671 -22.397 -15.860  0.00  0.00    +0.001 C 
ATOM     31  C   UNL     1      34.877 -24.203 -13.158  0.00  0.00    +0.001 C 
ATOM     32  C   UNL     1      37.331 -22.940 -13.564  0.00  0.00    +0.011 C 
ATOM     33  C   UNL     1      35.817 -24.153 -12.127  0.00  0.00    +0.011 C 
ATOM     34  C   UNL     1      37.041 -23.523 -12.330  0.00  0.00    +0.058 C 
ENDBRANCH  21  25
ENDBRANCH   3  21
TORSDOF 4
ENDMDL
MODEL 8
REMARK VINA RESULT:      -9.5      1.716      2.300
REMARK  Name = 446399
REMARK  4 active torsions:
REMARK  status: ('A' for Active; 'I' for Inactive)
REMARK    1  A    between atoms: N_3  and  S_21
REMARK    2  A    between atoms: C_4  and  C_10
REMARK    3  A    between atoms: N_9  and  C_16
REMARK    4  A    between atoms: S_21  and  C_25
REMARK                            x       y       z     vdW  Elec       q    Type
REMARK                         _______ _______ _______ _____ _____    ______ ____
ROOT
ATOM      1  O   UNL     1      32.223 -13.740 -19.548  0.00  0.00    -0.275 OA
ATOM      2  N   UNL     1      33.858 -14.548 -20.986  0.00  0.00    -0.277 N 
ATOM      3  N   UNL     1      35.146 -16.890 -21.960  0.00  0.00    -0.152 NA
ATOM      4  C   UNL     1      32.834 -13.677 -20.618  0.00  0.00    +0.225 C 
ATOM      5  C   UNL     1      34.603 -14.502 -22.249  0.00  0.00    +0.113 C 
ATOM      6  C   UNL     1      34.318 -15.575 -20.049  0.00  0.00    +0.113 C 
ATOM      7  C   UNL     1      34.618 -15.873 -22.918  0.00  0.00    +0.117 C 
ATOM      8  C   UNL     1      34.328 -16.948 -20.711  0.00  0.00    +0.117 C 
ENDROOT
BRANCH   4  10
ATOM      9  N   UNL     1      32.595  -9.869 -22.524  0.00  0.00    -0.307 N 
ATOM     10  C   UNL     1      32.471 -12.605 -21.613  0.00  0.00    +0.080 C 
ATOM     11  C   UNL     1      33.744 -12.026 -22.225  0.00  0.00    +0.031 C 
ATOM     12  C   UNL     1      31.672 -11.500 -20.926  0.00  0.00    +0.031 C 
ATOM     13  C   UNL     1      33.433 -10.876 -23.183  0.00  0.00    +0.091 C 
ATOM     14  C   UNL     1      31.362 -10.357 -21.890  0.00  0.00    +0.091 C 
BRANCH   9  16
ATOM     15  N   UNL     1      32.594  -5.903 -23.972  0.00  0.00    -0.242 NA
ATOM     16  C   UNL     1      32.595  -8.553 -23.004  0.00  0.00    +0.051 C 
ATOM     17  C   UNL     1      31.393  -7.860 -23.215  0.00  0.00    +0.035 C 
ATOM     18  C   UNL     1      33.797  -7.887 -23.291  0.00  0.00    +0.035 C 
ATOM     19  C   UNL     1      31.447  -6.559 -23.692  0.00  0.00    +0.100 C 
ATOM     20  C   UNL     1      33.743  -6.586 -23.763  0.00  0.00    +0.100 C 
ENDBRANCH   9  16
ENDBRANCH   4  10
BRANCH   3  21
ATOM     21  S   UNL     1      35.542 -18.409 -22.647  0.00  0.00    +0.063 S 
ATOM     22  O   UNL     1      36.979 -18.570 -22.640  0.00  0.00    -0.153 OA
ATOM     23  O   UNL     1      34.777 -18.587 -23.862  0.00  0.00    -0.153 OA
BRANCH  21  25
ATOM     24 CL   UNL     1      33.482 -23.706 -16.371  0.00  0.00    -0.082 Cl
ATOM     25  C   UNL     1      34.871 -19.485 -21.419  0.00  0.00    +0.122 C 
ATOM     26  C   UNL     1      35.723 -20.088 -20.508  0.00  0.00    +0.020 C 
ATOM     27  C   UNL     1      33.507 -19.707 -21.387  0.00  0.00    +0.020 C 
ATOM     28  C   UNL     1      35.205 -20.947 -19.524  0.00  0.00    +0.001 C 
ATOM     29  C   UNL     1      33.810 -21.185 -19.478  0.00  0.00    +0.001 C 
ATOM     30  C   UNL     1      32.976 -20.557 -20.417  0.00  0.00    +0.001 C 
ATOM     31  C   UNL     1      36.040 -21.574 -18.586  0.00  0.00    +0.001 C 
ATOM     32  C   UNL     1      33.292 -22.043 -18.494  0.00  0.00    +0.011 C 
ATOM     33  C   UNL     1      35.508 -22.424 -17.615  0.00  0.00    +0.011 C 
ATOM     34  C   UNL     1      34.136 -22.659 -17.570  0.00  0.00    +0.058 C 
ENDBRANCH  21  25
ENDBRANCH   3  21
TORSDOF 4
ENDMDL
