MODEL 1
REMARK VINA RESULT:     -11.9      0.000      0.000
REMARK  Name = 66571548
REMARK  8 active torsions:
REMARK  status: ('A' for Active; 'I' for Inactive)
REMARK    1  A    between atoms: C_2  and  C_10
REMARK    2  A    between atoms: C_2  and  C_22
REMARK    3  A    between atoms: N_3  and  C_15
REMARK    4  A    between atoms: C_15  and  C_18
REMARK    5  A    between atoms: C_18  and  O_19
REMARK    6  A    between atoms: C_25  and  N_28
REMARK    7  A    between atoms: C_29  and  C_31
REMARK    8  A    between atoms: C_31  and  C_34
REMARK                            x       y       z     vdW  Elec       q    Type
REMARK                         _______ _______ _______ _____ _____    ______ ____
ROOT
ATOM      1  O   UNL     1      32.287 -22.516 -18.522  0.00  0.00    -0.286 OA
ATOM      2  C   UNL     1      33.374 -22.438 -17.910  0.00  0.00    +0.199 C 
ENDROOT
BRANCH   2  10
ATOM      3  N   UNL     1      34.506 -23.745 -14.742  0.00  0.00    -0.261 N 
ATOM      4  N   UNL     1      32.577 -24.489 -13.500  0.00  0.00    -0.322 NA
ATOM      5  N   UNL     1      30.487 -24.157 -14.704  0.00  0.00    -0.170 NA
ATOM      6  N   UNL     1      30.525 -25.109 -12.566  0.00  0.00    -0.293 N 
ATOM      7  C   UNL     1      33.160 -23.948 -14.584  0.00  0.00    +0.201 C 
ATOM      8  C   UNL     1      34.742 -23.173 -15.965  0.00  0.00    +0.071 C 
ATOM      9  C   UNL     1      32.522 -23.497 -15.733  0.00  0.00    +0.069 C 
ATOM     10  C   UNL     1      33.529 -23.008 -16.602  0.00  0.00    +0.059 C 
ATOM     11  C   UNL     1      31.133 -23.620 -15.765  0.00  0.00    +0.116 C 
ATOM     12  C   UNL     1      31.239 -24.552 -13.652  0.00  0.00    +0.143 C 
ATOM     13  H   UNL     1      31.010 -25.418 -11.766  0.00  0.00    +0.155 HD
ATOM     14  H   UNL     1      29.545 -25.186 -12.608  0.00  0.00    +0.155 HD
BRANCH   3  15
ATOM     15  C   UNL     1      35.596 -24.102 -13.714  0.00  0.00    +0.091 C 
ATOM     16  C   UNL     1      36.065 -25.575 -13.793  0.00  0.00    +0.023 C 
ATOM     17  C   UNL     1      36.840 -23.219 -13.972  0.00  0.00    +0.023 C 
BRANCH  15  18
ATOM     18  C   UNL     1      35.087 -23.833 -12.275  0.00  0.00    +0.155 C 
BRANCH  18  19
ATOM     19  O   UNL     1      34.727 -25.052 -11.632  0.00  0.00    -0.380 OA
ATOM     20  H   UNL     1      33.937 -24.909 -11.088  0.00  0.00    +0.211 HD
ENDBRANCH  18  19
ENDBRANCH  15  18
ENDBRANCH   3  15
ENDBRANCH   2  10
BRANCH   2  22
ATOM     21  N   UNL     1      36.829 -21.146 -18.757  0.00  0.00    -0.241 NA
ATOM     22  C   UNL     1      34.483 -21.718 -18.628  0.00  0.00    +0.059 C 
ATOM     23  C   UNL     1      34.232 -20.977 -19.778  0.00  0.00    +0.021 C 
ATOM     24  C   UNL     1      35.787 -21.769 -18.162  0.00  0.00    +0.102 C 
ATOM     25  C   UNL     1      35.278 -20.321 -20.419  0.00  0.00    +0.070 C 
ATOM     26  C   UNL     1      36.546 -20.436 -19.873  0.00  0.00    +0.113 C 
BRANCH  25  28
ATOM     27  O   UNL     1      37.149 -18.584 -21.998  0.00  0.00    -0.274 OA
ATOM     28  N   UNL     1      35.056 -19.572 -21.572  0.00  0.00    -0.282 N 
ATOM     29  C   UNL     1      35.969 -18.771 -22.279  0.00  0.00    +0.232 C 
ATOM     30  H   UNL     1      34.143 -19.609 -21.938  0.00  0.00    +0.155 HD
BRANCH  29  31
ATOM     31  C   UNL     1      35.311 -18.124 -23.488  0.00  0.00    +0.131 C 
BRANCH  31  34
ATOM     32 CL   UNL     1      33.129 -12.732 -22.241  0.00  0.00    -0.081 Cl
ATOM     33  N   UNL     1      34.885 -16.295 -21.941  0.00  0.00    -0.247 NA
ATOM     34  C   UNL     1      34.748 -16.756 -23.205  0.00  0.00    +0.068 C 
ATOM     35  C   UNL     1      34.131 -16.050 -24.225  0.00  0.00    +0.016 C 
ATOM     36  C   UNL     1      33.623 -14.790 -23.930  0.00  0.00    +0.014 C 
ATOM     37  C   UNL     1      34.379 -15.067 -21.692  0.00  0.00    +0.110 C 
ATOM     38  C   UNL     1      33.744 -14.282 -22.642  0.00  0.00    +0.077 C 
ENDBRANCH  31  34
ENDBRANCH  29  31
ENDBRANCH  25  28
ENDBRANCH   2  22
TORSDOF 8
ENDMDL
MODEL 2
REMARK VINA RESULT:     -11.8      1.903      3.276
REMARK  Name = 66571548
REMARK  8 active torsions:
REMARK  status: ('A' for Active; 'I' for Inactive)
REMARK    1  A    between atoms: C_2  and  C_10
REMARK    2  A    between atoms: C_2  and  C_22
REMARK    3  A    between atoms: N_3  and  C_15
REMARK    4  A    between atoms: C_15  and  C_18
REMARK    5  A    between atoms: C_18  and  O_19
REMARK    6  A    between atoms: C_25  and  N_28
REMARK    7  A    between atoms: C_29  and  C_31
REMARK    8  A    between atoms: C_31  and  C_34
REMARK                            x       y       z     vdW  Elec       q    Type
REMARK                         _______ _______ _______ _____ _____    ______ ____
ROOT
ATOM      1  O   UNL     1      36.565 -22.405 -17.815  0.00  0.00    -0.286 OA
ATOM      2  C   UNL     1      35.331 -22.336 -17.627  0.00  0.00    +0.199 C 
ENDROOT
BRANCH   2  10
ATOM      3  N   UNL     1      33.162 -23.580 -15.025  0.00  0.00    -0.261 N 
ATOM      4  N   UNL     1      34.536 -24.542 -13.293  0.00  0.00    -0.322 NA
ATOM      5  N   UNL     1      36.917 -24.400 -13.781  0.00  0.00    -0.170 NA
ATOM      6  N   UNL     1      36.133 -25.386 -11.808  0.00  0.00    -0.293 N 
ATOM      7  C   UNL     1      34.368 -23.922 -14.473  0.00  0.00    +0.201 C 
ATOM      8  C   UNL     1      33.368 -22.966 -16.233  0.00  0.00    +0.071 C 
ATOM      9  C   UNL     1      35.369 -23.516 -15.348  0.00  0.00    +0.069 C 
ATOM     10  C   UNL     1      34.728 -22.912 -16.459  0.00  0.00    +0.059 C 
ATOM     11  C   UNL     1      36.682 -23.778 -14.959  0.00  0.00    +0.116 C 
ATOM     12  C   UNL     1      35.843 -24.739 -13.031  0.00  0.00    +0.143 C 
ATOM     13  H   UNL     1      35.399 -25.661 -11.212  0.00  0.00    +0.155 HD
ATOM     14  H   UNL     1      37.067 -25.562 -11.552  0.00  0.00    +0.155 HD
BRANCH   3  15
ATOM     15  C   UNL     1      31.779 -23.838 -14.395  0.00  0.00    +0.091 C 
ATOM     16  C   UNL     1      31.478 -22.939 -13.172  0.00  0.00    +0.023 C 
ATOM     17  C   UNL     1      30.684 -23.547 -15.448  0.00  0.00    +0.023 C 
BRANCH  15  18
ATOM     18  C   UNL     1      31.659 -25.318 -13.950  0.00  0.00    +0.155 C 
BRANCH  18  19
ATOM     19  O   UNL     1      31.862 -25.439 -12.546  0.00  0.00    -0.380 OA
ATOM     20  H   UNL     1      32.241 -24.615 -12.202  0.00  0.00    +0.211 HD
ENDBRANCH  18  19
ENDBRANCH  15  18
ENDBRANCH   3  15
ENDBRANCH   2  10
BRANCH   2  22
ATOM     21  N   UNL     1      32.397 -21.148 -19.701  0.00  0.00    -0.241 NA
ATOM     22  C   UNL     1      34.542 -21.623 -18.691  0.00  0.00    +0.059 C 
ATOM     23  C   UNL     1      35.171 -20.808 -19.627  0.00  0.00    +0.021 C 
ATOM     24  C   UNL     1      33.165 -21.760 -18.771  0.00  0.00    +0.102 C 
ATOM     25  C   UNL     1      34.414 -20.163 -20.599  0.00  0.00    +0.070 C 
ATOM     26  C   UNL     1      33.043 -20.364 -20.593  0.00  0.00    +0.113 C 
BRANCH  25  28
ATOM     27  O   UNL     1      35.062 -17.233 -20.505  0.00  0.00    -0.274 OA
ATOM     28  N   UNL     1      35.016 -19.342 -21.549  0.00  0.00    -0.282 N 
ATOM     29  C   UNL     1      35.301 -17.968 -21.459  0.00  0.00    +0.232 C 
ATOM     30  H   UNL     1      35.275 -19.779 -22.391  0.00  0.00    +0.155 HD
BRANCH  29  31
ATOM     31  C   UNL     1      35.967 -17.460 -22.728  0.00  0.00    +0.131 C 
BRANCH  31  34
ATOM     32 CL   UNL     1      32.570 -13.664 -25.801  0.00  0.00    -0.081 Cl
ATOM     33  N   UNL     1      35.039 -15.242 -23.102  0.00  0.00    -0.247 NA
ATOM     34  C   UNL     1      35.098 -16.524 -23.527  0.00  0.00    +0.068 C 
ATOM     35  C   UNL     1      34.416 -17.007 -24.633  0.00  0.00    +0.016 C 
ATOM     36  C   UNL     1      33.624 -16.117 -25.349  0.00  0.00    +0.014 C 
ATOM     37  C   UNL     1      34.259 -14.406 -23.823  0.00  0.00    +0.110 C 
ATOM     38  C   UNL     1      33.537 -14.790 -24.942  0.00  0.00    +0.077 C 
ENDBRANCH  31  34
ENDBRANCH  29  31
ENDBRANCH  25  28
ENDBRANCH   2  22
TORSDOF 8
ENDMDL
MODEL 3
REMARK VINA RESULT:     -11.4      1.944      2.556
REMARK  Name = 66571548
REMARK  8 active torsions:
REMARK  status: ('A' for Active; 'I' for Inactive)
REMARK    1  A    between atoms: C_2  and  C_10
REMARK    2  A    between atoms: C_2  and  C_22
REMARK    3  A    between atoms: N_3  and  C_15
REMARK    4  A    between atoms: C_15  and  C_18
REMARK    5  A    between atoms: C_18  and  O_19
REMARK    6  A    between atoms: C_25  and  N_28
REMARK    7  A    between atoms: C_29  and  C_31
REMARK    8  A    between atoms: C_31  and  C_34
REMARK                            x       y       z     vdW  Elec       q    Type
REMARK                         _______ _______ _______ _____ _____    ______ ____
ROOT
ATOM      1  O   UNL     1      37.868 -21.093 -16.672  0.00  0.00    -0.286 OA
ATOM      2  C   UNL     1      36.892 -21.873 -16.690  0.00  0.00    +0.199 C 
ENDROOT
BRANCH   2  10
ATOM      3  N   UNL     1      37.138 -24.318 -14.047  0.00  0.00    -0.261 N 
ATOM      4  N   UNL     1      34.908 -24.846 -13.296  0.00  0.00    -0.322 NA
ATOM      5  N   UNL     1      33.185 -23.618 -14.500  0.00  0.00    -0.170 NA
ATOM      6  N   UNL     1      32.641 -25.135 -12.803  0.00  0.00    -0.293 N 
ATOM      7  C   UNL     1      35.775 -24.186 -14.083  0.00  0.00    +0.201 C 
ATOM      8  C   UNL     1      37.703 -23.495 -14.986  0.00  0.00    +0.071 C 
ATOM      9  C   UNL     1      35.462 -23.259 -15.069  0.00  0.00    +0.069 C 
ATOM     10  C   UNL     1      36.687 -22.826 -15.636  0.00  0.00    +0.059 C 
ATOM     11  C   UNL     1      34.108 -22.986 -15.262  0.00  0.00    +0.116 C 
ATOM     12  C   UNL     1      33.637 -24.496 -13.577  0.00  0.00    +0.143 C 
ATOM     13  H   UNL     1      32.898 -25.786 -12.112  0.00  0.00    +0.155 HD
ATOM     14  H   UNL     1      31.691 -24.927 -12.955  0.00  0.00    +0.155 HD
BRANCH   3  15
ATOM     15  C   UNL     1      37.927 -25.245 -13.102  0.00  0.00    +0.091 C 
ATOM     16  C   UNL     1      39.357 -25.568 -13.601  0.00  0.00    +0.023 C 
ATOM     17  C   UNL     1      38.076 -24.554 -11.727  0.00  0.00    +0.023 C 
BRANCH  15  18
ATOM     18  C   UNL     1      37.170 -26.583 -12.906  0.00  0.00    +0.155 C 
BRANCH  18  19
ATOM     19  O   UNL     1      36.744 -26.727 -11.555  0.00  0.00    -0.380 OA
ATOM     20  H   UNL     1      35.813 -26.998 -11.537  0.00  0.00    +0.211 HD
ENDBRANCH  18  19
ENDBRANCH  15  18
ENDBRANCH   3  15
ENDBRANCH   2  10
BRANCH   2  22
ATOM     21  N   UNL     1      33.905 -22.386 -18.957  0.00  0.00    -0.241 NA
ATOM     22  C   UNL     1      35.967 -21.744 -17.870  0.00  0.00    +0.059 C 
ATOM     23  C   UNL     1      36.280 -20.910 -18.938  0.00  0.00    +0.021 C 
ATOM     24  C   UNL     1      34.779 -22.455 -17.927  0.00  0.00    +0.102 C 
ATOM     25  C   UNL     1      35.406 -20.814 -20.016  0.00  0.00    +0.070 C 
ATOM     26  C   UNL     1      34.242 -21.565 -19.977  0.00  0.00    +0.113 C 
BRANCH  25  28
ATOM     27  O   UNL     1      33.574 -19.528 -22.018  0.00  0.00    -0.274 OA
ATOM     28  N   UNL     1      35.692 -19.988 -21.100  0.00  0.00    -0.282 N 
ATOM     29  C   UNL     1      34.796 -19.406 -22.014  0.00  0.00    +0.232 C 
ATOM     30  H   UNL     1      36.644 -19.786 -21.246  0.00  0.00    +0.155 HD
BRANCH  29  31
ATOM     31  C   UNL     1      35.531 -18.571 -23.050  0.00  0.00    +0.131 C 
BRANCH  31  34
ATOM     32 CL   UNL     1      33.374 -13.046 -23.510  0.00  0.00    -0.081 Cl
ATOM     33  N   UNL     1      35.002 -16.396 -22.096  0.00  0.00    -0.247 NA
ATOM     34  C   UNL     1      34.978 -17.178 -23.199  0.00  0.00    +0.068 C 
ATOM     35  C   UNL     1      34.482 -16.771 -24.428  0.00  0.00    +0.016 C 
ATOM     36  C   UNL     1      33.979 -15.479 -24.531  0.00  0.00    +0.014 C 
ATOM     37  C   UNL     1      34.504 -15.146 -22.235  0.00  0.00    +0.110 C 
ATOM     38  C   UNL     1      33.986 -14.645 -23.419  0.00  0.00    +0.077 C 
ENDBRANCH  31  34
ENDBRANCH  29  31
ENDBRANCH  25  28
ENDBRANCH   2  22
TORSDOF 8
ENDMDL
MODEL 4
REMARK VINA RESULT:     -10.8      4.142     10.801
REMARK  Name = 66571548
REMARK  8 active torsions:
REMARK  status: ('A' for Active; 'I' for Inactive)
REMARK    1  A    between atoms: C_2  and  C_10
REMARK    2  A    between atoms: C_2  and  C_22
REMARK    3  A    between atoms: N_3  and  C_15
REMARK    4  A    between atoms: C_15  and  C_18
REMARK    5  A    between atoms: C_18  and  O_19
REMARK    6  A    between atoms: C_25  and  N_28
REMARK    7  A    between atoms: C_29  and  C_31
REMARK    8  A    between atoms: C_31  and  C_34
REMARK                            x       y       z     vdW  Elec       q    Type
REMARK                         _______ _______ _______ _____ _____    ______ ____
ROOT
ATOM      1  O   UNL     1      37.049 -18.766 -22.144  0.00  0.00    -0.286 OA
ATOM      2  C   UNL     1      35.909 -18.541 -21.683  0.00  0.00    +0.199 C 
ENDROOT
BRANCH   2  10
ATOM      3  N   UNL     1      34.234 -15.345 -21.746  0.00  0.00    -0.261 N 
ATOM      4  N   UNL     1      33.503 -14.920 -24.004  0.00  0.00    -0.322 NA
ATOM      5  N   UNL     1      34.085 -16.715 -25.544  0.00  0.00    -0.170 NA
ATOM      6  N   UNL     1      32.933 -14.810 -26.269  0.00  0.00    -0.293 N 
ATOM      7  C   UNL     1      34.106 -15.675 -23.069  0.00  0.00    +0.201 C 
ATOM      8  C   UNL     1      34.904 -16.344 -21.088  0.00  0.00    +0.071 C 
ATOM      9  C   UNL     1      34.705 -16.914 -23.261  0.00  0.00    +0.069 C 
ATOM     10  C   UNL     1      35.208 -17.331 -22.003  0.00  0.00    +0.059 C 
ATOM     11  C   UNL     1      34.677 -17.427 -24.557  0.00  0.00    +0.116 C 
ATOM     12  C   UNL     1      33.542 -15.522 -25.210  0.00  0.00    +0.143 C 
ATOM     13  H   UNL     1      32.518 -13.934 -26.098  0.00  0.00    +0.155 HD
ATOM     14  H   UNL     1      32.924 -15.190 -27.177  0.00  0.00    +0.155 HD
BRANCH   3  15
ATOM     15  C   UNL     1      33.711 -14.055 -21.086  0.00  0.00    +0.091 C 
ATOM     16  C   UNL     1      32.564 -14.297 -20.075  0.00  0.00    +0.023 C 
ATOM     17  C   UNL     1      34.865 -13.385 -20.305  0.00  0.00    +0.023 C 
BRANCH  15  18
ATOM     18  C   UNL     1      33.203 -13.066 -22.166  0.00  0.00    +0.155 C 
BRANCH  18  19
ATOM     19  O   UNL     1      31.781 -12.980 -22.141  0.00  0.00    -0.380 OA
ATOM     20  H   UNL     1      31.504 -12.118 -22.489  0.00  0.00    +0.211 HD
ENDBRANCH  18  19
ENDBRANCH  15  18
ENDBRANCH   3  15
ENDBRANCH   2  10
BRANCH   2  22
ATOM     21  N   UNL     1      33.414 -20.873 -20.052  0.00  0.00    -0.241 NA
ATOM     22  C   UNL     1      35.339 -19.608 -20.788  0.00  0.00    +0.059 C 
ATOM     23  C   UNL     1      36.147 -20.302 -19.894  0.00  0.00    +0.021 C 
ATOM     24  C   UNL     1      33.991 -19.927 -20.827  0.00  0.00    +0.102 C 
ATOM     25  C   UNL     1      35.590 -21.281 -19.079  0.00  0.00    +0.070 C 
ATOM     26  C   UNL     1      34.231 -21.527 -19.195  0.00  0.00    +0.113 C 
BRANCH  25  28
ATOM     27  O   UNL     1      37.166 -20.331 -16.707  0.00  0.00    -0.274 OA
ATOM     28  N   UNL     1      36.374 -21.993 -18.173  0.00  0.00    -0.282 N 
ATOM     29  C   UNL     1      37.096 -21.501 -17.072  0.00  0.00    +0.232 C 
ATOM     30  H   UNL     1      36.429 -22.963 -18.324  0.00  0.00    +0.155 HD
BRANCH  29  31
ATOM     31  C   UNL     1      37.820 -22.623 -16.344  0.00  0.00    +0.131 C 
BRANCH  31  34
ATOM     32 CL   UNL     1      35.098 -24.522 -11.407  0.00  0.00    -0.081 Cl
ATOM     33  N   UNL     1      37.874 -23.477 -14.067  0.00  0.00    -0.247 NA
ATOM     34  C   UNL     1      37.101 -23.099 -15.109  0.00  0.00    +0.068 C 
ATOM     35  C   UNL     1      35.715 -23.127 -15.098  0.00  0.00    +0.016 C 
ATOM     36  C   UNL     1      35.083 -23.571 -13.942  0.00  0.00    +0.014 C 
ATOM     37  C   UNL     1      37.224 -23.902 -12.960  0.00  0.00    +0.110 C 
ATOM     38  C   UNL     1      35.844 -23.969 -12.849  0.00  0.00    +0.077 C 
ENDBRANCH  31  34
ENDBRANCH  29  31
ENDBRANCH  25  28
ENDBRANCH   2  22
TORSDOF 8
ENDMDL
MODEL 5
REMARK VINA RESULT:     -10.6      3.668     10.794
REMARK  Name = 66571548
REMARK  8 active torsions:
REMARK  status: ('A' for Active; 'I' for Inactive)
REMARK    1  A    between atoms: C_2  and  C_10
REMARK    2  A    between atoms: C_2  and  C_22
REMARK    3  A    between atoms: N_3  and  C_15
REMARK    4  A    between atoms: C_15  and  C_18
REMARK    5  A    between atoms: C_18  and  O_19
REMARK    6  A    between atoms: C_25  and  N_28
REMARK    7  A    between atoms: C_29  and  C_31
REMARK    8  A    between atoms: C_31  and  C_34
REMARK                            x       y       z     vdW  Elec       q    Type
REMARK                         _______ _______ _______ _____ _____    ______ ____
ROOT
ATOM      1  O   UNL     1      34.844 -19.034 -24.020  0.00  0.00    -0.286 OA
ATOM      2  C   UNL     1      34.952 -18.317 -23.001  0.00  0.00    +0.199 C 
ENDROOT
BRANCH   2  10
ATOM      3  N   UNL     1      33.878 -14.954 -22.251  0.00  0.00    -0.261 N 
ATOM      4  N   UNL     1      33.360 -13.846 -24.329  0.00  0.00    -0.322 NA
ATOM      5  N   UNL     1      33.697 -15.270 -26.275  0.00  0.00    -0.170 NA
ATOM      6  N   UNL     1      32.943 -13.065 -26.493  0.00  0.00    -0.293 N 
ATOM      7  C   UNL     1      33.766 -14.910 -23.615  0.00  0.00    +0.201 C 
ATOM      8  C   UNL     1      34.322 -16.193 -21.868  0.00  0.00    +0.071 C 
ATOM      9  C   UNL     1      34.146 -16.150 -24.116  0.00  0.00    +0.069 C 
ATOM     10  C   UNL     1      34.496 -16.956 -23.004  0.00  0.00    +0.059 C 
ATOM     11  C   UNL     1      34.098 -16.305 -25.501  0.00  0.00    +0.116 C 
ATOM     12  C   UNL     1      33.358 -14.120 -25.648  0.00  0.00    +0.143 C 
ATOM     13  H   UNL     1      32.682 -12.198 -26.105  0.00  0.00    +0.155 HD
ATOM     14  H   UNL     1      32.918 -13.195 -27.468  0.00  0.00    +0.155 HD
BRANCH   3  15
ATOM     15  C   UNL     1      33.557 -13.798 -21.284  0.00  0.00    +0.091 C 
ATOM     16  C   UNL     1      32.605 -14.200 -20.131  0.00  0.00    +0.023 C 
ATOM     17  C   UNL     1      34.870 -13.307 -20.633  0.00  0.00    +0.023 C 
BRANCH  15  18
ATOM     18  C   UNL     1      32.912 -12.617 -22.054  0.00  0.00    +0.155 C 
BRANCH  18  19
ATOM     19  O   UNL     1      31.494 -12.650 -21.929  0.00  0.00    -0.380 OA
ATOM     20  H   UNL     1      31.101 -12.021 -22.555  0.00  0.00    +0.211 HD
ENDBRANCH  18  19
ENDBRANCH  15  18
ENDBRANCH   3  15
ENDBRANCH   2  10
BRANCH   2  22
ATOM     21  N   UNL     1      37.438 -19.096 -20.257  0.00  0.00    -0.241 NA
ATOM     22  C   UNL     1      35.582 -18.969 -21.801  0.00  0.00    +0.059 C 
ATOM     23  C   UNL     1      34.945 -20.010 -21.133  0.00  0.00    +0.021 C 
ATOM     24  C   UNL     1      36.816 -18.554 -21.328  0.00  0.00    +0.102 C 
ATOM     25  C   UNL     1      35.553 -20.594 -20.027  0.00  0.00    +0.070 C 
ATOM     26  C   UNL     1      36.788 -20.105 -19.632  0.00  0.00    +0.113 C 
BRANCH  25  28
ATOM     27  O   UNL     1      32.702 -20.933 -19.149  0.00  0.00    -0.274 OA
ATOM     28  N   UNL     1      34.940 -21.638 -19.338  0.00  0.00    -0.282 N 
ATOM     29  C   UNL     1      33.594 -21.753 -18.948  0.00  0.00    +0.232 C 
ATOM     30  H   UNL     1      35.524 -22.391 -19.094  0.00  0.00    +0.155 HD
BRANCH  29  31
ATOM     31  C   UNL     1      33.345 -23.061 -18.213  0.00  0.00    +0.131 C 
BRANCH  31  34
ATOM     32 CL   UNL     1      36.010 -23.254 -12.898  0.00  0.00    -0.081 Cl
ATOM     33  N   UNL     1      35.320 -22.883 -16.804  0.00  0.00    -0.247 NA
ATOM     34  C   UNL     1      33.990 -23.117 -16.853  0.00  0.00    +0.068 C 
ATOM     35  C   UNL     1      33.210 -23.399 -15.743  0.00  0.00    +0.016 C 
ATOM     36  C   UNL     1      33.836 -23.443 -14.502  0.00  0.00    +0.014 C 
ATOM     37  C   UNL     1      35.894 -22.934 -15.582  0.00  0.00    +0.110 C 
ATOM     38  C   UNL     1      35.204 -23.208 -14.411  0.00  0.00    +0.077 C 
ENDBRANCH  31  34
ENDBRANCH  29  31
ENDBRANCH  25  28
ENDBRANCH   2  22
TORSDOF 8
ENDMDL
MODEL 6
REMARK VINA RESULT:     -10.3      5.187     12.004
REMARK  Name = 66571548
REMARK  8 active torsions:
REMARK  status: ('A' for Active; 'I' for Inactive)
REMARK    1  A    between atoms: C_2  and  C_10
REMARK    2  A    between atoms: C_2  and  C_22
REMARK    3  A    between atoms: N_3  and  C_15
REMARK    4  A    between atoms: C_15  and  C_18
REMARK    5  A    between atoms: C_18  and  O_19
REMARK    6  A    between atoms: C_25  and  N_28
REMARK    7  A    between atoms: C_29  and  C_31
REMARK    8  A    between atoms: C_31  and  C_34
REMARK                            x       y       z     vdW  Elec       q    Type
REMARK                         _______ _______ _______ _____ _____    ______ ____
ROOT
ATOM      1  O   UNL     1      33.984 -13.843 -26.569  0.00  0.00    -0.286 OA
ATOM      2  C   UNL     1      33.670 -14.147 -25.398  0.00  0.00    +0.199 C 
ENDROOT
BRANCH   2  10
ATOM      3  N   UNL     1      32.684 -12.134 -22.569  0.00  0.00    -0.261 N 
ATOM      4  N   UNL     1      33.710  -9.963 -22.793  0.00  0.00    -0.322 NA
ATOM      5  N   UNL     1      35.070  -9.759 -24.802  0.00  0.00    -0.170 NA
ATOM      6  N   UNL     1      34.838  -7.979 -23.300  0.00  0.00    -0.293 N 
ATOM      7  C   UNL     1      33.469 -11.216 -23.216  0.00  0.00    +0.201 C 
ATOM      8  C   UNL     1      32.666 -13.304 -23.283  0.00  0.00    +0.071 C 
ATOM      9  C   UNL     1      33.962 -11.813 -24.370  0.00  0.00    +0.069 C 
ATOM     10  C   UNL     1      33.449 -13.134 -24.405  0.00  0.00    +0.059 C 
ATOM     11  C   UNL     1      34.790 -11.030 -25.173  0.00  0.00    +0.116 C 
ATOM     12  C   UNL     1      34.521  -9.311 -23.651  0.00  0.00    +0.143 C 
ATOM     13  H   UNL     1      34.472  -7.588 -22.474  0.00  0.00    +0.155 HD
ATOM     14  H   UNL     1      35.425  -7.443 -23.881  0.00  0.00    +0.155 HD
BRANCH   3  15
ATOM     15  C   UNL     1      31.933 -11.900 -21.244  0.00  0.00    +0.091 C 
ATOM     16  C   UNL     1      30.455 -11.483 -21.436  0.00  0.00    +0.023 C 
ATOM     17  C   UNL     1      31.927 -13.215 -20.430  0.00  0.00    +0.023 C 
BRANCH  15  18
ATOM     18  C   UNL     1      32.641 -10.803 -20.410  0.00  0.00    +0.155 C 
BRANCH  18  19
ATOM     19  O   UNL     1      31.944  -9.565 -20.511  0.00  0.00    -0.380 OA
ATOM     20  H   UNL     1      32.568  -8.861 -20.746  0.00  0.00    +0.211 HD
ENDBRANCH  18  19
ENDBRANCH  15  18
ENDBRANCH   3  15
ENDBRANCH   2  10
BRANCH   2  22
ATOM     21  N   UNL     1      32.398 -17.709 -25.513  0.00  0.00    -0.241 NA
ATOM     22  C   UNL     1      33.543 -15.618 -25.111  0.00  0.00    +0.059 C 
ATOM     23  C   UNL     1      34.401 -16.252 -24.218  0.00  0.00    +0.021 C 
ATOM     24  C   UNL     1      32.567 -16.385 -25.726  0.00  0.00    +0.102 C 
ATOM     25  C   UNL     1      34.258 -17.613 -23.972  0.00  0.00    +0.070 C 
ATOM     26  C   UNL     1      33.251 -18.291 -24.639  0.00  0.00    +0.113 C 
BRANCH  25  28
ATOM     27  O   UNL     1      35.043 -16.921 -21.157  0.00  0.00    -0.274 OA
ATOM     28  N   UNL     1      35.102 -18.274 -23.083  0.00  0.00    -0.282 N 
ATOM     29  C   UNL     1      35.440 -17.910 -21.767  0.00  0.00    +0.232 C 
ATOM     30  H   UNL     1      35.515 -19.102 -23.418  0.00  0.00    +0.155 HD
BRANCH  29  31
ATOM     31  C   UNL     1      36.397 -18.915 -21.147  0.00  0.00    +0.131 C 
BRANCH  31  34
ATOM     32 CL   UNL     1      33.791 -23.121 -17.844  0.00  0.00    -0.081 Cl
ATOM     33  N   UNL     1      36.489 -20.701 -19.497  0.00  0.00    -0.247 NA
ATOM     34  C   UNL     1      35.708 -19.972 -20.324  0.00  0.00    +0.068 C 
ATOM     35  C   UNL     1      34.339 -20.145 -20.451  0.00  0.00    +0.016 C 
ATOM     36  C   UNL     1      33.733 -21.129 -19.677  0.00  0.00    +0.014 C 
ATOM     37  C   UNL     1      35.866 -21.647 -18.760  0.00  0.00    +0.110 C 
ATOM     38  C   UNL     1      34.504 -21.899 -18.813  0.00  0.00    +0.077 C 
ENDBRANCH  31  34
ENDBRANCH  29  31
ENDBRANCH  25  28
ENDBRANCH   2  22
TORSDOF 8
ENDMDL
MODEL 7
REMARK VINA RESULT:     -10.1      2.400      3.100
REMARK  Name = 66571548
REMARK  8 active torsions:
REMARK  status: ('A' for Active; 'I' for Inactive)
REMARK    1  A    between atoms: C_2  and  C_10
REMARK    2  A    between atoms: C_2  and  C_22
REMARK    3  A    between atoms: N_3  and  C_15
REMARK    4  A    between atoms: C_15  and  C_18
REMARK    5  A    between atoms: C_18  and  O_19
REMARK    6  A    between atoms: C_25  and  N_28
REMARK    7  A    between atoms: C_29  and  C_31
REMARK    8  A    between atoms: C_31  and  C_34
REMARK                            x       y       z     vdW  Elec       q    Type
REMARK                         _______ _______ _______ _____ _____    ______ ____
ROOT
ATOM      1  O   UNL     1      37.523 -21.190 -16.668  0.00  0.00    -0.286 OA
ATOM      2  C   UNL     1      36.556 -21.976 -16.767  0.00  0.00    +0.199 C 
ENDROOT
BRANCH   2  10
ATOM      3  N   UNL     1      36.764 -24.684 -14.391  0.00  0.00    -0.261 N 
ATOM      4  N   UNL     1      34.553 -25.099 -13.523  0.00  0.00    -0.322 NA
ATOM      5  N   UNL     1      32.868 -23.619 -14.472  0.00  0.00    -0.170 NA
ATOM      6  N   UNL     1      32.308 -25.248 -12.886  0.00  0.00    -0.293 N 
ATOM      7  C   UNL     1      35.419 -24.438 -14.310  0.00  0.00    +0.201 C 
ATOM      8  C   UNL     1      37.335 -23.820 -15.290  0.00  0.00    +0.071 C 
ATOM      9  C   UNL     1      35.123 -23.394 -15.178  0.00  0.00    +0.069 C 
ATOM     10  C   UNL     1      36.340 -23.009 -15.795  0.00  0.00    +0.059 C 
ATOM     11  C   UNL     1      33.789 -22.993 -15.240  0.00  0.00    +0.116 C 
ATOM     12  C   UNL     1      33.302 -24.619 -13.672  0.00  0.00    +0.143 C 
ATOM     13  H   UNL     1      32.553 -25.984 -12.281  0.00  0.00    +0.155 HD
ATOM     14  H   UNL     1      31.373 -24.949 -12.945  0.00  0.00    +0.155 HD
BRANCH   3  15
ATOM     15  C   UNL     1      37.530 -25.762 -13.600  0.00  0.00    +0.091 C 
ATOM     16  C   UNL     1      37.367 -25.639 -12.066  0.00  0.00    +0.023 C 
ATOM     17  C   UNL     1      36.993 -27.156 -13.999  0.00  0.00    +0.023 C 
BRANCH  15  18
ATOM     18  C   UNL     1      39.043 -25.700 -13.932  0.00  0.00    +0.155 C 
BRANCH  18  19
ATOM     19  O   UNL     1      39.721 -24.831 -13.031  0.00  0.00    -0.380 OA
ATOM     20  H   UNL     1      40.537 -24.508 -13.445  0.00  0.00    +0.211 HD
ENDBRANCH  18  19
ENDBRANCH  15  18
ENDBRANCH   3  15
ENDBRANCH   2  10
BRANCH   2  22
ATOM     21  N   UNL     1      33.553 -22.223 -19.057  0.00  0.00    -0.241 NA
ATOM     22  C   UNL     1      35.656 -21.766 -17.954  0.00  0.00    +0.059 C 
ATOM     23  C   UNL     1      36.049 -20.964 -19.020  0.00  0.00    +0.021 C 
ATOM     24  C   UNL     1      34.410 -22.369 -18.021  0.00  0.00    +0.102 C 
ATOM     25  C   UNL     1      35.195 -20.790 -20.105  0.00  0.00    +0.070 C 
ATOM     26  C   UNL     1      33.969 -21.435 -20.074  0.00  0.00    +0.113 C 
BRANCH  25  28
ATOM     27  O   UNL     1      36.115 -17.933 -20.191  0.00  0.00    -0.274 OA
ATOM     28  N   UNL     1      35.562 -19.993 -21.186  0.00  0.00    -0.282 N 
ATOM     29  C   UNL     1      35.989 -18.654 -21.177  0.00  0.00    +0.232 C 
ATOM     30  H   UNL     1      35.516 -20.423 -22.070  0.00  0.00    +0.155 HD
BRANCH  29  31
ATOM     31  C   UNL     1      36.291 -18.164 -22.584  0.00  0.00    +0.131 C 
BRANCH  31  34
ATOM     32 CL   UNL     1      31.495 -17.714 -26.075  0.00  0.00    -0.081 Cl
ATOM     33  N   UNL     1      34.718 -16.853 -23.898  0.00  0.00    -0.247 NA
ATOM     34  C   UNL     1      35.073 -18.083 -23.466  0.00  0.00    +0.068 C 
ATOM     35  C   UNL     1      34.388 -19.245 -23.786  0.00  0.00    +0.016 C 
ATOM     36  C   UNL     1      33.267 -19.136 -24.602  0.00  0.00    +0.014 C 
ATOM     37  C   UNL     1      33.624 -16.786 -24.690  0.00  0.00    +0.110 C 
ATOM     38  C   UNL     1      32.871 -17.887 -25.066  0.00  0.00    +0.077 C 
ENDBRANCH  31  34
ENDBRANCH  29  31
ENDBRANCH  25  28
ENDBRANCH   2  22
TORSDOF 8
ENDMDL
MODEL 8
REMARK VINA RESULT:     -10.1      2.348      4.596
REMARK  Name = 66571548
REMARK  8 active torsions:
REMARK  status: ('A' for Active; 'I' for Inactive)
REMARK    1  A    between atoms: C_2  and  C_10
REMARK    2  A    between atoms: C_2  and  C_22
REMARK    3  A    between atoms: N_3  and  C_15
REMARK    4  A    between atoms: C_15  and  C_18
REMARK    5  A    between atoms: C_18  and  O_19
REMARK    6  A    between atoms: C_25  and  N_28
REMARK    7  A    between atoms: C_29  and  C_31
REMARK    8  A    between atoms: C_31  and  C_34
REMARK                            x       y       z     vdW  Elec       q    Type
REMARK                         _______ _______ _______ _____ _____    ______ ____
ROOT
ATOM      1  O   UNL     1      32.130 -25.240 -13.692  0.00  0.00    -0.286 OA
ATOM      2  C   UNL     1      33.040 -24.562 -14.217  0.00  0.00    +0.199 C 
ENDROOT
BRANCH   2  10
ATOM      3  N   UNL     1      36.127 -24.115 -12.402  0.00  0.00    -0.261 N 
ATOM      4  N   UNL     1      37.806 -25.523 -13.410  0.00  0.00    -0.322 NA
ATOM      5  N   UNL     1      36.962 -26.798 -15.305  0.00  0.00    -0.170 NA
ATOM      6  N   UNL     1      39.188 -26.981 -14.605  0.00  0.00    -0.293 N 
ATOM      7  C   UNL     1      36.558 -25.028 -13.328  0.00  0.00    +0.201 C 
ATOM      8  C   UNL     1      34.801 -23.840 -12.615  0.00  0.00    +0.071 C 
ATOM      9  C   UNL     1      35.484 -25.342 -14.152  0.00  0.00    +0.069 C 
ATOM     10  C   UNL     1      34.376 -24.586 -13.694  0.00  0.00    +0.059 C 
ATOM     11  C   UNL     1      35.726 -26.264 -15.170  0.00  0.00    +0.116 C 
ATOM     12  C   UNL     1      37.912 -26.400 -14.428  0.00  0.00    +0.143 C 
ATOM     13  H   UNL     1      39.927 -26.737 -14.002  0.00  0.00    +0.155 HD
ATOM     14  H   UNL     1      39.338 -27.631 -15.328  0.00  0.00    +0.155 HD
BRANCH   3  15
ATOM     15  C   UNL     1      36.988 -23.486 -11.290  0.00  0.00    +0.091 C 
ATOM     16  C   UNL     1      38.170 -24.380 -10.841  0.00  0.00    +0.023 C 
ATOM     17  C   UNL     1      37.596 -22.164 -11.811  0.00  0.00    +0.023 C 
BRANCH  15  18
ATOM     18  C   UNL     1      36.117 -23.176 -10.046  0.00  0.00    +0.155 C 
BRANCH  18  19
ATOM     19  O   UNL     1      36.068 -24.300  -9.173  0.00  0.00    -0.380 OA
ATOM     20  H   UNL     1      36.334 -25.097  -9.657  0.00  0.00    +0.211 HD
ENDBRANCH  18  19
ENDBRANCH  15  18
ENDBRANCH   3  15
ENDBRANCH   2  10
BRANCH   2  22
ATOM     21  N   UNL     1      30.884 -22.692 -16.703  0.00  0.00    -0.241 NA
ATOM     22  C   UNL     1      32.640 -23.738 -15.411  0.00  0.00    +0.059 C 
ATOM     23  C   UNL     1      33.592 -23.267 -16.309  0.00  0.00    +0.021 C 
ATOM     24  C   UNL     1      31.312 -23.426 -15.651  0.00  0.00    +0.102 C 
ATOM     25  C   UNL     1      33.191 -22.508 -17.404  0.00  0.00    +0.070 C 
ATOM     26  C   UNL     1      31.838 -22.250 -17.554  0.00  0.00    +0.113 C 
BRANCH  25  28
ATOM     27  O   UNL     1      32.815 -20.761 -19.816  0.00  0.00    -0.274 OA
ATOM     28  N   UNL     1      34.121 -22.024 -18.320  0.00  0.00    -0.282 N 
ATOM     29  C   UNL     1      33.896 -21.203 -19.440  0.00  0.00    +0.232 C 
ATOM     30  H   UNL     1      35.055 -22.290 -18.164  0.00  0.00    +0.155 HD
BRANCH  29  31
ATOM     31  C   UNL     1      35.194 -20.908 -20.174  0.00  0.00    +0.131 C 
BRANCH  31  34
ATOM     32 CL   UNL     1      34.967 -15.981 -23.501  0.00  0.00    -0.081 Cl
ATOM     33  N   UNL     1      35.502 -18.513 -20.472  0.00  0.00    -0.247 NA
ATOM     34  C   UNL     1      35.125 -19.679 -21.043  0.00  0.00    +0.068 C 
ATOM     35  C   UNL     1      34.689 -19.796 -22.353  0.00  0.00    +0.016 C 
ATOM     36  C   UNL     1      34.638 -18.643 -23.127  0.00  0.00    +0.014 C 
ATOM     37  C   UNL     1      35.439 -17.413 -21.255  0.00  0.00    +0.110 C 
ATOM     38  C   UNL     1      35.017 -17.424 -22.576  0.00  0.00    +0.077 C 
ENDBRANCH  31  34
ENDBRANCH  29  31
ENDBRANCH  25  28
ENDBRANCH   2  22
TORSDOF 8
ENDMDL
MODEL 9
REMARK VINA RESULT:      -9.9      5.602     12.725
REMARK  Name = 66571548
REMARK  8 active torsions:
REMARK  status: ('A' for Active; 'I' for Inactive)
REMARK    1  A    between atoms: C_2  and  C_10
REMARK    2  A    between atoms: C_2  and  C_22
REMARK    3  A    between atoms: N_3  and  C_15
REMARK    4  A    between atoms: C_15  and  C_18
REMARK    5  A    between atoms: C_18  and  O_19
REMARK    6  A    between atoms: C_25  and  N_28
REMARK    7  A    between atoms: C_29  and  C_31
REMARK    8  A    between atoms: C_31  and  C_34
REMARK                            x       y       z     vdW  Elec       q    Type
REMARK                         _______ _______ _______ _____ _____    ______ ____
ROOT
ATOM      1  O   UNL     1      34.875 -11.267 -25.472  0.00  0.00    -0.286 OA
ATOM      2  C   UNL     1      34.112 -11.651 -24.559  0.00  0.00    +0.199 C 
ENDROOT
BRANCH   2  10
ATOM      3  N   UNL     1      32.874  -8.771 -22.772  0.00  0.00    -0.261 N 
ATOM      4  N   UNL     1      31.667  -9.546 -20.833  0.00  0.00    -0.322 NA
ATOM      5  N   UNL     1      31.635 -11.973 -20.644  0.00  0.00    -0.170 NA
ATOM      6  N   UNL     1      30.577 -10.612 -19.060  0.00  0.00    -0.293 N 
ATOM      7  C   UNL     1      32.386  -9.752 -21.950  0.00  0.00    +0.201 C 
ATOM      8  C   UNL     1      33.556  -9.343 -23.814  0.00  0.00    +0.071 C 
ATOM      9  C   UNL     1      32.766 -10.980 -22.479  0.00  0.00    +0.069 C 
ATOM     10  C   UNL     1      33.506 -10.713 -23.658  0.00  0.00    +0.059 C 
ATOM     11  C   UNL     1      32.361 -12.115 -21.777  0.00  0.00    +0.116 C 
ATOM     12  C   UNL     1      31.337 -10.715 -20.249  0.00  0.00    +0.143 C 
ATOM     13  H   UNL     1      30.324  -9.725 -18.714  0.00  0.00    +0.155 HD
ATOM     14  H   UNL     1      30.301 -11.425 -18.580  0.00  0.00    +0.155 HD
BRANCH   3  15
ATOM     15  C   UNL     1      32.693  -7.254 -22.567  0.00  0.00    +0.091 C 
ATOM     16  C   UNL     1      33.559  -6.393 -23.517  0.00  0.00    +0.023 C 
ATOM     17  C   UNL     1      31.218  -6.882 -22.842  0.00  0.00    +0.023 C 
BRANCH  15  18
ATOM     18  C   UNL     1      33.040  -6.863 -21.108  0.00  0.00    +0.155 C 
BRANCH  18  19
ATOM     19  O   UNL     1      31.859  -6.558 -20.374  0.00  0.00    -0.380 OA
ATOM     20  H   UNL     1      31.791  -5.598 -20.255  0.00  0.00    +0.211 HD
ENDBRANCH  18  19
ENDBRANCH  15  18
ENDBRANCH   3  15
ENDBRANCH   2  10
BRANCH   2  22
ATOM     21  N   UNL     1      32.729 -15.095 -25.297  0.00  0.00    -0.241 NA
ATOM     22  C   UNL     1      33.882 -13.136 -24.475  0.00  0.00    +0.059 C 
ATOM     23  C   UNL     1      34.561 -13.916 -23.545  0.00  0.00    +0.021 C 
ATOM     24  C   UNL     1      32.984 -13.767 -25.320  0.00  0.00    +0.102 C 
ATOM     25  C   UNL     1      34.324 -15.285 -23.490  0.00  0.00    +0.070 C 
ATOM     26  C   UNL     1      33.407 -15.822 -24.380  0.00  0.00    +0.113 C 
BRANCH  25  28
ATOM     27  O   UNL     1      34.870 -18.238 -23.530  0.00  0.00    -0.274 OA
ATOM     28  N   UNL     1      34.988 -16.092 -22.569  0.00  0.00    -0.282 N 
ATOM     29  C   UNL     1      35.221 -17.477 -22.632  0.00  0.00    +0.232 C 
ATOM     30  H   UNL     1      35.339 -15.634 -21.773  0.00  0.00    +0.155 HD
BRANCH  29  31
ATOM     31  C   UNL     1      35.989 -17.962 -21.412  0.00  0.00    +0.131 C 
BRANCH  31  34
ATOM     32 CL   UNL     1      33.714 -22.809 -18.821  0.00  0.00    -0.081 Cl
ATOM     33  N   UNL     1      36.230 -20.005 -20.114  0.00  0.00    -0.247 NA
ATOM     34  C   UNL     1      35.382 -19.180 -20.767  0.00  0.00    +0.068 C 
ATOM     35  C   UNL     1      34.017 -19.395 -20.870  0.00  0.00    +0.016 C 
ATOM     36  C   UNL     1      33.489 -20.529 -20.263  0.00  0.00    +0.014 C 
ATOM     37  C   UNL     1      35.681 -21.097 -19.536  0.00  0.00    +0.110 C 
ATOM     38  C   UNL     1      34.330 -21.402 -19.582  0.00  0.00    +0.077 C 
ENDBRANCH  31  34
ENDBRANCH  29  31
ENDBRANCH  25  28
ENDBRANCH   2  22
TORSDOF 8
ENDMDL
