MODEL 1
REMARK VINA RESULT:     -11.0      0.000      0.000
REMARK  Name = 25134248
REMARK  7 active torsions:
REMARK  status: ('A' for Active; 'I' for Inactive)
REMARK    1  A    between atoms: N_2  and  C_20
REMARK    2  A    between atoms: C_3  and  C_7
REMARK    3  A    between atoms: C_11  and  C_12
REMARK    4  A    between atoms: C_12  and  C_13
REMARK    5  A    between atoms: C_13  and  C_14
REMARK    6  A    between atoms: C_20  and  C_21
REMARK    7  A    between atoms: C_26  and  C_29
REMARK                            x       y       z     vdW  Elec       q    Type
REMARK                         _______ _______ _______ _____ _____    ______ ____
ROOT
ATOM      1  O   UNL     1      35.093 -24.940 -15.671  0.00  0.00    -0.273 OA
ATOM      2  N   UNL     1      34.540 -22.786 -16.356  0.00  0.00    -0.299 N 
ATOM      3  C   UNL     1      35.071 -23.726 -15.490  0.00  0.00    +0.241 C 
ATOM      4  H   UNL     1      34.581 -21.836 -16.100  0.00  0.00    +0.150 HD
ENDROOT
BRANCH   3   7
ATOM      5  O   UNL     1      34.540 -25.088 -11.390  0.00  0.00    -0.275 OA
ATOM      6  N   UNL     1      35.591 -24.068 -13.177  0.00  0.00    -0.273 N 
ATOM      7  C   UNL     1      35.666 -23.097 -14.266  0.00  0.00    +0.152 C 
ATOM      8  C   UNL     1      37.160 -22.854 -14.457  0.00  0.00    +0.031 C 
ATOM      9  C   UNL     1      36.901 -24.635 -12.889  0.00  0.00    +0.094 C 
ATOM     10  C   UNL     1      37.792 -24.176 -14.033  0.00  0.00    +0.024 C 
ATOM     11  C   UNL     1      34.495 -24.353 -12.378  0.00  0.00    +0.226 C 
BRANCH  11  12
ATOM     12  C   UNL     1      33.194 -23.704 -12.780  0.00  0.00    +0.085 C 
BRANCH  12  13
ATOM     13  C   UNL     1      32.126 -24.758 -13.018  0.00  0.00    +0.010 C 
BRANCH  13  14
ATOM     14  C   UNL     1      31.350 -24.535 -14.314  0.00  0.00    +0.000 C 
ATOM     15  C   UNL     1      29.892 -24.986 -14.158  0.00  0.00    +0.000 C 
ATOM     16  C   UNL     1      31.424 -23.063 -14.743  0.00  0.00    +0.000 C 
ATOM     17  C   UNL     1      29.082 -24.723 -15.425  0.00  0.00    +0.000 C 
ATOM     18  C   UNL     1      30.611 -22.804 -16.009  0.00  0.00    +0.000 C 
ATOM     19  C   UNL     1      29.165 -23.262 -15.853  0.00  0.00    +0.000 C 
ENDBRANCH  13  14
ENDBRANCH  12  13
ENDBRANCH  11  12
ENDBRANCH   3   7
BRANCH   2  20
ATOM     20  C   UNL     1      33.928 -23.131 -17.619  0.00  0.00    +0.116 C 
BRANCH  20  21
ATOM     21  C   UNL     1      34.155 -22.074 -18.661  0.00  0.00    -0.003 C 
ATOM     22  C   UNL     1      33.065 -21.443 -19.263  0.00  0.00    -0.003 C 
ATOM     23  C   UNL     1      35.453 -21.721 -19.026  0.00  0.00    -0.003 C 
ATOM     24  C   UNL     1      33.275 -20.460 -20.230  0.00  0.00    +0.002 C 
ATOM     25  C   UNL     1      35.664 -20.738 -19.994  0.00  0.00    +0.002 C 
ATOM     26  C   UNL     1      34.574 -20.108 -20.595  0.00  0.00    +0.031 C 
BRANCH  26  29
ATOM     27  N   UNL     1      35.284 -17.823 -21.262  0.00  0.00    -0.343 N 
ATOM     28  N   UNL     1      34.521 -19.337 -22.871  0.00  0.00    -0.285 NA
ATOM     29  C   UNL     1      34.793 -19.082 -21.603  0.00  0.00    +0.117 C 
ATOM     30  H   UNL     1      35.424 -17.144 -21.960  0.00  0.00    +0.144 HD
ATOM     31  H   UNL     1      35.489 -17.613 -20.322  0.00  0.00    +0.144 HD
ATOM     32  H   UNL     1      34.668 -18.644 -23.555  0.00  0.00    +0.188 HD
ENDBRANCH  26  29
ENDBRANCH  20  21
ENDBRANCH   2  20
TORSDOF 7
ENDMDL
MODEL 2
REMARK VINA RESULT:     -10.9      2.925      6.310
REMARK  Name = 25134248
REMARK  7 active torsions:
REMARK  status: ('A' for Active; 'I' for Inactive)
REMARK    1  A    between atoms: N_2  and  C_20
REMARK    2  A    between atoms: C_3  and  C_7
REMARK    3  A    between atoms: C_11  and  C_12
REMARK    4  A    between atoms: C_12  and  C_13
REMARK    5  A    between atoms: C_13  and  C_14
REMARK    6  A    between atoms: C_20  and  C_21
REMARK    7  A    between atoms: C_26  and  C_29
REMARK                            x       y       z     vdW  Elec       q    Type
REMARK                         _______ _______ _______ _____ _____    ______ ____
ROOT
ATOM      1  O   UNL     1      35.454 -23.532 -13.172  0.00  0.00    -0.273 OA
ATOM      2  N   UNL     1      33.816 -24.993 -13.946  0.00  0.00    -0.299 N 
ATOM      3  C   UNL     1      35.084 -24.438 -13.912  0.00  0.00    +0.241 C 
ATOM      4  H   UNL     1      33.639 -25.719 -14.587  0.00  0.00    +0.150 HD
ENDROOT
BRANCH   3   7
ATOM      5  O   UNL     1      38.684 -22.668 -15.602  0.00  0.00    -0.275 OA
ATOM      6  N   UNL     1      37.273 -24.350 -14.881  0.00  0.00    -0.273 N 
ATOM      7  C   UNL     1      36.014 -25.090 -14.891  0.00  0.00    +0.152 C 
ATOM      8  C   UNL     1      36.393 -26.492 -14.422  0.00  0.00    +0.031 C 
ATOM      9  C   UNL     1      38.315 -25.095 -14.187  0.00  0.00    +0.094 C 
ATOM     10  C   UNL     1      37.593 -26.249 -13.510  0.00  0.00    +0.024 C 
ATOM     11  C   UNL     1      37.559 -23.168 -15.546  0.00  0.00    +0.226 C 
BRANCH  11  12
ATOM     12  C   UNL     1      36.396 -22.492 -16.227  0.00  0.00    +0.085 C 
BRANCH  12  13
ATOM     13  C   UNL     1      36.848 -21.830 -17.518  0.00  0.00    +0.010 C 
BRANCH  13  14
ATOM     14  C   UNL     1      35.786 -21.879 -18.614  0.00  0.00    +0.000 C 
ATOM     15  C   UNL     1      34.389 -22.068 -18.007  0.00  0.00    +0.000 C 
ATOM     16  C   UNL     1      35.839 -20.612 -19.478  0.00  0.00    +0.000 C 
ATOM     17  C   UNL     1      33.303 -22.067 -19.079  0.00  0.00    +0.000 C 
ATOM     18  C   UNL     1      34.750 -20.614 -20.548  0.00  0.00    +0.000 C 
ATOM     19  C   UNL     1      33.365 -20.811 -19.942  0.00  0.00    +0.000 C 
ENDBRANCH  13  14
ENDBRANCH  12  13
ENDBRANCH  11  12
ENDBRANCH   3   7
BRANCH   2  20
ATOM     20  C   UNL     1      32.740 -24.558 -13.084  0.00  0.00    +0.116 C 
BRANCH  20  21
ATOM     21  C   UNL     1      31.490 -24.253 -13.857  0.00  0.00    -0.003 C 
ATOM     22  C   UNL     1      31.467 -23.180 -14.749  0.00  0.00    -0.003 C 
ATOM     23  C   UNL     1      30.353 -25.041 -13.686  0.00  0.00    -0.003 C 
ATOM     24  C   UNL     1      30.306 -22.896 -15.469  0.00  0.00    +0.002 C 
ATOM     25  C   UNL     1      29.192 -24.757 -14.405  0.00  0.00    +0.002 C 
ATOM     26  C   UNL     1      29.169 -23.685 -15.297  0.00  0.00    +0.031 C 
BRANCH  26  29
ATOM     27  N   UNL     1      27.029 -22.458 -15.588  0.00  0.00    -0.343 N 
ATOM     28  N   UNL     1      27.724 -24.011 -17.190  0.00  0.00    -0.285 NA
ATOM     29  C   UNL     1      27.959 -23.389 -16.048  0.00  0.00    +0.117 C 
ATOM     30  H   UNL     1      26.218 -22.273 -16.113  0.00  0.00    +0.144 HD
ATOM     31  H   UNL     1      27.185 -21.986 -14.738  0.00  0.00    +0.144 HD
ATOM     32  H   UNL     1      26.906 -23.812 -17.700  0.00  0.00    +0.188 HD
ENDBRANCH  26  29
ENDBRANCH  20  21
ENDBRANCH   2  20
TORSDOF 7
ENDMDL
MODEL 3
REMARK VINA RESULT:     -10.2      7.201     11.539
REMARK  Name = 25134248
REMARK  7 active torsions:
REMARK  status: ('A' for Active; 'I' for Inactive)
REMARK    1  A    between atoms: N_2  and  C_20
REMARK    2  A    between atoms: C_3  and  C_7
REMARK    3  A    between atoms: C_11  and  C_12
REMARK    4  A    between atoms: C_12  and  C_13
REMARK    5  A    between atoms: C_13  and  C_14
REMARK    6  A    between atoms: C_20  and  C_21
REMARK    7  A    between atoms: C_26  and  C_29
REMARK                            x       y       z     vdW  Elec       q    Type
REMARK                         _______ _______ _______ _____ _____    ______ ____
ROOT
ATOM      1  O   UNL     1      33.981 -14.931 -20.827  0.00  0.00    -0.273 OA
ATOM      2  N   UNL     1      32.775 -13.417 -22.119  0.00  0.00    -0.299 N 
ATOM      3  C   UNL     1      33.771 -14.351 -21.889  0.00  0.00    +0.241 C 
ATOM      4  H   UNL     1      32.706 -13.018 -23.018  0.00  0.00    +0.150 HD
ENDROOT
BRANCH   3   7
ATOM      5  O   UNL     1      34.111 -18.163 -23.962  0.00  0.00    -0.275 OA
ATOM      6  N   UNL     1      34.117 -15.866 -23.711  0.00  0.00    -0.273 N 
ATOM      7  C   UNL     1      34.591 -14.620 -23.114  0.00  0.00    +0.152 C 
ATOM      8  C   UNL     1      34.329 -13.562 -24.182  0.00  0.00    +0.031 C 
ATOM      9  C   UNL     1      33.344 -15.608 -24.918  0.00  0.00    +0.094 C 
ATOM     10  C   UNL     1      33.113 -14.106 -24.928  0.00  0.00    +0.024 C 
ATOM     11  C   UNL     1      34.441 -17.159 -23.329  0.00  0.00    +0.226 C 
BRANCH  11  12
ATOM     12  C   UNL     1      35.246 -17.294 -22.062  0.00  0.00    +0.085 C 
BRANCH  12  13
ATOM     13  C   UNL     1      35.753 -18.718 -21.904  0.00  0.00    +0.010 C 
BRANCH  13  14
ATOM     14  C   UNL     1      35.142 -19.436 -20.703  0.00  0.00    +0.000 C 
ATOM     15  C   UNL     1      33.731 -19.940 -21.033  0.00  0.00    +0.000 C 
ATOM     16  C   UNL     1      36.042 -20.592 -20.247  0.00  0.00    +0.000 C 
ATOM     17  C   UNL     1      33.119 -20.709 -19.865  0.00  0.00    +0.000 C 
ATOM     18  C   UNL     1      35.427 -21.359 -19.080  0.00  0.00    +0.000 C 
ATOM     19  C   UNL     1      34.021 -21.851 -19.408  0.00  0.00    +0.000 C 
ENDBRANCH  13  14
ENDBRANCH  12  13
ENDBRANCH  11  12
ENDBRANCH   3   7
BRANCH   2  20
ATOM     20  C   UNL     1      31.833 -12.999 -21.107  0.00  0.00    +0.116 C 
BRANCH  20  21
ATOM     21  C   UNL     1      31.920 -11.525 -20.833  0.00  0.00    -0.003 C 
ATOM     22  C   UNL     1      31.821 -11.053 -19.524  0.00  0.00    -0.003 C 
ATOM     23  C   UNL     1      32.101 -10.628 -21.885  0.00  0.00    -0.003 C 
ATOM     24  C   UNL     1      31.902  -9.684 -19.268  0.00  0.00    +0.002 C 
ATOM     25  C   UNL     1      32.182  -9.260 -21.630  0.00  0.00    +0.002 C 
ATOM     26  C   UNL     1      32.083  -8.788 -20.321  0.00  0.00    +0.031 C 
BRANCH  26  29
ATOM     27  N   UNL     1      31.379  -6.444 -20.746  0.00  0.00    -0.343 N 
ATOM     28  N   UNL     1      33.012  -6.911 -19.141  0.00  0.00    -0.285 NA
ATOM     29  C   UNL     1      32.169  -7.361 -20.054  0.00  0.00    +0.117 C 
ATOM     30  H   UNL     1      31.453  -5.483 -20.548  0.00  0.00    +0.144 HD
ATOM     31  H   UNL     1      30.747  -6.760 -21.432  0.00  0.00    +0.144 HD
ATOM     32  H   UNL     1      33.071  -5.946 -18.958  0.00  0.00    +0.188 HD
ENDBRANCH  26  29
ENDBRANCH  20  21
ENDBRANCH   2  20
TORSDOF 7
ENDMDL
MODEL 4
REMARK VINA RESULT:      -9.8      1.492      2.202
REMARK  Name = 25134248
REMARK  7 active torsions:
REMARK  status: ('A' for Active; 'I' for Inactive)
REMARK    1  A    between atoms: N_2  and  C_20
REMARK    2  A    between atoms: C_3  and  C_7
REMARK    3  A    between atoms: C_11  and  C_12
REMARK    4  A    between atoms: C_12  and  C_13
REMARK    5  A    between atoms: C_13  and  C_14
REMARK    6  A    between atoms: C_20  and  C_21
REMARK    7  A    between atoms: C_26  and  C_29
REMARK                            x       y       z     vdW  Elec       q    Type
REMARK                         _______ _______ _______ _____ _____    ______ ____
ROOT
ATOM      1  O   UNL     1      36.844 -24.682 -14.770  0.00  0.00    -0.273 OA
ATOM      2  N   UNL     1      36.917 -22.411 -15.273  0.00  0.00    -0.299 N 
ATOM      3  C   UNL     1      36.680 -23.506 -14.459  0.00  0.00    +0.241 C 
ATOM      4  H   UNL     1      36.746 -21.512 -14.909  0.00  0.00    +0.150 HD
ENDROOT
BRANCH   3   7
ATOM      5  O   UNL     1      33.034 -24.872 -12.511  0.00  0.00    -0.275 OA
ATOM      6  N   UNL     1      35.198 -24.074 -12.666  0.00  0.00    -0.273 N 
ATOM      7  C   UNL     1      36.204 -23.107 -13.095  0.00  0.00    +0.152 C 
ATOM      8  C   UNL     1      37.327 -23.245 -12.071  0.00  0.00    +0.031 C 
ATOM      9  C   UNL     1      35.732 -24.971 -11.649  0.00  0.00    +0.094 C 
ATOM     10  C   UNL     1      37.229 -24.703 -11.631  0.00  0.00    +0.024 C 
ATOM     11  C   UNL     1      33.857 -24.106 -13.016  0.00  0.00    +0.226 C 
BRANCH  11  12
ATOM     12  C   UNL     1      33.426 -23.128 -14.080  0.00  0.00    +0.085 C 
BRANCH  12  13
ATOM     13  C   UNL     1      32.636 -23.839 -15.166  0.00  0.00    +0.010 C 
BRANCH  13  14
ATOM     14  C   UNL     1      31.127 -23.644 -15.025  0.00  0.00    +0.000 C 
ATOM     15  C   UNL     1      30.559 -22.914 -16.249  0.00  0.00    +0.000 C 
ATOM     16  C   UNL     1      30.423 -24.992 -14.817  0.00  0.00    +0.000 C 
ATOM     17  C   UNL     1      29.043 -22.755 -16.157  0.00  0.00    +0.000 C 
ATOM     18  C   UNL     1      28.909 -24.829 -14.727  0.00  0.00    +0.000 C 
ATOM     19  C   UNL     1      28.348 -24.095 -15.941  0.00  0.00    +0.000 C 
ENDBRANCH  13  14
ENDBRANCH  12  13
ENDBRANCH  11  12
ENDBRANCH   3   7
BRANCH   2  20
ATOM     20  C   UNL     1      37.404 -22.524 -16.628  0.00  0.00    +0.116 C 
BRANCH  20  21
ATOM     21  C   UNL     1      36.413 -22.001 -17.627  0.00  0.00    -0.003 C 
ATOM     22  C   UNL     1      35.064 -22.339 -17.513  0.00  0.00    -0.003 C 
ATOM     23  C   UNL     1      36.838 -21.174 -18.667  0.00  0.00    -0.003 C 
ATOM     24  C   UNL     1      34.142 -21.853 -18.440  0.00  0.00    +0.002 C 
ATOM     25  C   UNL     1      35.917 -20.687 -19.593  0.00  0.00    +0.002 C 
ATOM     26  C   UNL     1      34.568 -21.026 -19.480  0.00  0.00    +0.031 C 
BRANCH  26  29
ATOM     27  N   UNL     1      34.015 -19.793 -21.563  0.00  0.00    -0.343 N 
ATOM     28  N   UNL     1      32.316 -20.739 -20.267  0.00  0.00    -0.285 NA
ATOM     29  C   UNL     1      33.606 -20.518 -20.445  0.00  0.00    +0.117 C 
ATOM     30  H   UNL     1      33.347 -19.459 -22.204  0.00  0.00    +0.144 HD
ATOM     31  H   UNL     1      34.972 -19.615 -21.711  0.00  0.00    +0.144 HD
ATOM     32  H   UNL     1      31.663 -20.397 -20.920  0.00  0.00    +0.188 HD
ENDBRANCH  26  29
ENDBRANCH  20  21
ENDBRANCH   2  20
TORSDOF 7
ENDMDL
MODEL 5
REMARK VINA RESULT:      -9.3      8.693     13.282
REMARK  Name = 25134248
REMARK  7 active torsions:
REMARK  status: ('A' for Active; 'I' for Inactive)
REMARK    1  A    between atoms: N_2  and  C_20
REMARK    2  A    between atoms: C_3  and  C_7
REMARK    3  A    between atoms: C_11  and  C_12
REMARK    4  A    between atoms: C_12  and  C_13
REMARK    5  A    between atoms: C_13  and  C_14
REMARK    6  A    between atoms: C_20  and  C_21
REMARK    7  A    between atoms: C_26  and  C_29
REMARK                            x       y       z     vdW  Elec       q    Type
REMARK                         _______ _______ _______ _____ _____    ______ ____
ROOT
ATOM      1  O   UNL     1      32.710 -13.928 -22.036  0.00  0.00    -0.273 OA
ATOM      2  N   UNL     1      32.822 -11.646 -22.481  0.00  0.00    -0.299 N 
ATOM      3  C   UNL     1      33.153 -12.976 -22.673  0.00  0.00    +0.241 C 
ATOM      4  H   UNL     1      33.247 -10.969 -23.058  0.00  0.00    +0.150 HD
ENDROOT
BRANCH   3   7
ATOM      5  O   UNL     1      33.601 -16.550 -25.119  0.00  0.00    -0.275 OA
ATOM      6  N   UNL     1      33.685 -14.300 -24.597  0.00  0.00    -0.273 N 
ATOM      7  C   UNL     1      34.128 -13.162 -23.797  0.00  0.00    +0.152 C 
ATOM      8  C   UNL     1      34.076 -11.977 -24.757  0.00  0.00    +0.031 C 
ATOM      9  C   UNL     1      33.109 -13.860 -25.861  0.00  0.00    +0.094 C 
ATOM     10  C   UNL     1      32.957 -12.353 -25.724  0.00  0.00    +0.024 C 
ATOM     11  C   UNL     1      33.886 -15.645 -24.331  0.00  0.00    +0.226 C 
BRANCH  11  12
ATOM     12  C   UNL     1      34.490 -15.973 -22.989  0.00  0.00    +0.085 C 
BRANCH  12  13
ATOM     13  C   UNL     1      35.366 -17.211 -23.090  0.00  0.00    +0.010 C 
BRANCH  13  14
ATOM     14  C   UNL     1      35.380 -18.033 -21.803  0.00  0.00    +0.000 C 
ATOM     15  C   UNL     1      34.335 -19.155 -21.865  0.00  0.00    +0.000 C 
ATOM     16  C   UNL     1      36.780 -18.605 -21.540  0.00  0.00    +0.000 C 
ATOM     17  C   UNL     1      34.367 -20.026 -20.611  0.00  0.00    +0.000 C 
ATOM     18  C   UNL     1      36.807 -19.475 -20.286  0.00  0.00    +0.000 C 
ATOM     19  C   UNL     1      35.761 -20.584 -20.348  0.00  0.00    +0.000 C 
ENDBRANCH  13  14
ENDBRANCH  12  13
ENDBRANCH  11  12
ENDBRANCH   3   7
BRANCH   2  20
ATOM     20  C   UNL     1      31.884 -11.202 -21.476  0.00  0.00    +0.116 C 
BRANCH  20  21
ATOM     21  C   UNL     1      31.725  -9.709 -21.476  0.00  0.00    -0.003 C 
ATOM     22  C   UNL     1      31.374  -9.045 -22.652  0.00  0.00    -0.003 C 
ATOM     23  C   UNL     1      31.926  -8.985 -20.301  0.00  0.00    -0.003 C 
ATOM     24  C   UNL     1      31.225  -7.659 -22.653  0.00  0.00    +0.002 C 
ATOM     25  C   UNL     1      31.777  -7.598 -20.301  0.00  0.00    +0.002 C 
ATOM     26  C   UNL     1      31.426  -6.935 -21.478  0.00  0.00    +0.031 C 
BRANCH  26  29
ATOM     27  N   UNL     1      32.161  -4.664 -22.162  0.00  0.00    -0.343 N 
ATOM     28  N   UNL     1      30.267  -4.935 -20.820  0.00  0.00    -0.285 NA
ATOM     29  C   UNL     1      31.270  -5.489 -21.479  0.00  0.00    +0.117 C 
ATOM     30  H   UNL     1      32.036  -3.688 -22.149  0.00  0.00    +0.144 HD
ATOM     31  H   UNL     1      32.917  -5.058 -22.655  0.00  0.00    +0.144 HD
ATOM     32  H   UNL     1      30.159  -3.956 -20.820  0.00  0.00    +0.188 HD
ENDBRANCH  26  29
ENDBRANCH  20  21
ENDBRANCH   2  20
TORSDOF 7
ENDMDL
MODEL 6
REMARK VINA RESULT:      -9.1      1.783      4.929
REMARK  Name = 25134248
REMARK  7 active torsions:
REMARK  status: ('A' for Active; 'I' for Inactive)
REMARK    1  A    between atoms: N_2  and  C_20
REMARK    2  A    between atoms: C_3  and  C_7
REMARK    3  A    between atoms: C_11  and  C_12
REMARK    4  A    between atoms: C_12  and  C_13
REMARK    5  A    between atoms: C_13  and  C_14
REMARK    6  A    between atoms: C_20  and  C_21
REMARK    7  A    between atoms: C_26  and  C_29
REMARK                            x       y       z     vdW  Elec       q    Type
REMARK                         _______ _______ _______ _____ _____    ______ ____
ROOT
ATOM      1  O   UNL     1      35.396 -22.140 -15.437  0.00  0.00    -0.273 OA
ATOM      2  N   UNL     1      35.438 -22.575 -17.723  0.00  0.00    -0.299 N 
ATOM      3  C   UNL     1      35.004 -22.760 -16.422  0.00  0.00    +0.241 C 
ATOM      4  H   UNL     1      35.048 -23.137 -18.432  0.00  0.00    +0.150 HD
ENDROOT
BRANCH   3   7
ATOM      5  O   UNL     1      33.378 -24.421 -12.742  0.00  0.00    -0.275 OA
ATOM      6  N   UNL     1      33.408 -23.792 -14.965  0.00  0.00    -0.273 N 
ATOM      7  C   UNL     1      33.948 -23.820 -16.321  0.00  0.00    +0.152 C 
ATOM      8  C   UNL     1      32.758 -23.480 -17.213  0.00  0.00    +0.031 C 
ATOM      9  C   UNL     1      32.078 -23.197 -14.942  0.00  0.00    +0.094 C 
ATOM     10  C   UNL     1      31.891 -22.592 -16.324  0.00  0.00    +0.024 C 
ATOM     11  C   UNL     1      33.955 -24.368 -13.829  0.00  0.00    +0.226 C 
BRANCH  11  12
ATOM     12  C   UNL     1      35.337 -24.951 -13.981  0.00  0.00    +0.085 C 
BRANCH  12  13
ATOM     13  C   UNL     1      36.237 -24.486 -12.849  0.00  0.00    +0.010 C 
BRANCH  13  14
ATOM     14  C   UNL     1      37.714 -24.464 -13.236  0.00  0.00    +0.000 C 
ATOM     15  C   UNL     1      38.398 -25.780 -12.842  0.00  0.00    +0.000 C 
ATOM     16  C   UNL     1      37.877 -24.191 -14.737  0.00  0.00    +0.000 C 
ATOM     17  C   UNL     1      39.864 -25.802 -13.267  0.00  0.00    +0.000 C 
ATOM     18  C   UNL     1      39.344 -24.217 -15.159  0.00  0.00    +0.000 C 
ATOM     19  C   UNL     1      40.023 -25.522 -14.758  0.00  0.00    +0.000 C 
ENDBRANCH  13  14
ENDBRANCH  12  13
ENDBRANCH  11  12
ENDBRANCH   3   7
BRANCH   2  20
ATOM     20  C   UNL     1      36.435 -21.596 -18.092  0.00  0.00    +0.116 C 
BRANCH  20  21
ATOM     21  C   UNL     1      36.019 -20.794 -19.292  0.00  0.00    -0.003 C 
ATOM     22  C   UNL     1      34.707 -20.871 -19.760  0.00  0.00    -0.003 C 
ATOM     23  C   UNL     1      36.941 -19.971 -19.937  0.00  0.00    -0.003 C 
ATOM     24  C   UNL     1      34.318 -20.126 -20.874  0.00  0.00    +0.002 C 
ATOM     25  C   UNL     1      36.554 -19.226 -21.050  0.00  0.00    +0.002 C 
ATOM     26  C   UNL     1      35.242 -19.303 -21.518  0.00  0.00    +0.031 C 
BRANCH  26  29
ATOM     27  N   UNL     1      35.462 -17.322 -22.999  0.00  0.00    -0.343 N 
ATOM     28  N   UNL     1      33.856 -18.958 -23.451  0.00  0.00    -0.285 NA
ATOM     29  C   UNL     1      34.837 -18.526 -22.679  0.00  0.00    +0.117 C 
ATOM     30  H   UNL     1      35.172 -16.812 -23.790  0.00  0.00    +0.144 HD
ATOM     31  H   UNL     1      36.193 -16.982 -22.435  0.00  0.00    +0.144 HD
ATOM     32  H   UNL     1      33.580 -18.434 -24.237  0.00  0.00    +0.188 HD
ENDBRANCH  26  29
ENDBRANCH  20  21
ENDBRANCH   2  20
TORSDOF 7
ENDMDL
MODEL 7
REMARK VINA RESULT:      -9.1     10.213     14.457
REMARK  Name = 25134248
REMARK  7 active torsions:
REMARK  status: ('A' for Active; 'I' for Inactive)
REMARK    1  A    between atoms: N_2  and  C_20
REMARK    2  A    between atoms: C_3  and  C_7
REMARK    3  A    between atoms: C_11  and  C_12
REMARK    4  A    between atoms: C_12  and  C_13
REMARK    5  A    between atoms: C_13  and  C_14
REMARK    6  A    between atoms: C_20  and  C_21
REMARK    7  A    between atoms: C_26  and  C_29
REMARK                            x       y       z     vdW  Elec       q    Type
REMARK                         _______ _______ _______ _____ _____    ______ ____
ROOT
ATOM      1  O   UNL     1      33.690 -11.330 -23.599  0.00  0.00    -0.273 OA
ATOM      2  N   UNL     1      32.635  -9.626 -22.415  0.00  0.00    -0.299 N 
ATOM      3  C   UNL     1      32.827 -10.936 -22.819  0.00  0.00    +0.241 C 
ATOM      4  H   UNL     1      31.905  -9.433 -21.782  0.00  0.00    +0.150 HD
ENDROOT
BRANCH   3   7
ATOM      5  O   UNL     1      33.844 -14.509 -20.550  0.00  0.00    -0.275 OA
ATOM      6  N   UNL     1      32.588 -12.680 -21.194  0.00  0.00    -0.273 N 
ATOM      7  C   UNL     1      31.857 -11.878 -22.171  0.00  0.00    +0.152 C 
ATOM      8  C   UNL     1      30.831 -11.109 -21.343  0.00  0.00    +0.031 C 
ATOM      9  C   UNL     1      32.284 -12.254 -19.834  0.00  0.00    +0.094 C 
ATOM     10  C   UNL     1      31.516 -10.951 -19.988  0.00  0.00    +0.024 C 
ATOM     11  C   UNL     1      33.363 -13.802 -21.438  0.00  0.00    +0.226 C 
BRANCH  11  12
ATOM     12  C   UNL     1      33.606 -14.139 -22.888  0.00  0.00    +0.085 C 
BRANCH  12  13
ATOM     13  C   UNL     1      34.776 -15.099 -23.021  0.00  0.00    +0.010 C 
BRANCH  13  14
ATOM     14  C   UNL     1      34.349 -16.565 -22.981  0.00  0.00    +0.000 C 
ATOM     15  C   UNL     1      34.307 -17.156 -24.396  0.00  0.00    +0.000 C 
ATOM     16  C   UNL     1      35.284 -17.378 -22.076  0.00  0.00    +0.000 C 
ATOM     17  C   UNL     1      33.934 -18.637 -24.378  0.00  0.00    +0.000 C 
ATOM     18  C   UNL     1      34.909 -18.858 -22.062  0.00  0.00    +0.000 C 
ATOM     19  C   UNL     1      34.860 -19.440 -23.471  0.00  0.00    +0.000 C 
ENDBRANCH  13  14
ENDBRANCH  12  13
ENDBRANCH  11  12
ENDBRANCH   3   7
BRANCH   2  20
ATOM     20  C   UNL     1      33.454  -8.529 -22.876  0.00  0.00    +0.116 C 
BRANCH  20  21
ATOM     21  C   UNL     1      32.692  -7.236 -22.913  0.00  0.00    -0.003 C 
ATOM     22  C   UNL     1      33.094  -6.214 -23.774  0.00  0.00    -0.003 C 
ATOM     23  C   UNL     1      31.581  -7.056 -22.089  0.00  0.00    -0.003 C 
ATOM     24  C   UNL     1      32.386  -5.013 -23.810  0.00  0.00    +0.002 C 
ATOM     25  C   UNL     1      30.873  -5.855 -22.124  0.00  0.00    +0.002 C 
ATOM     26  C   UNL     1      31.275  -4.833 -22.985  0.00  0.00    +0.031 C 
BRANCH  26  29
ATOM     27  N   UNL     1      30.244  -2.948 -24.230  0.00  0.00    -0.343 N 
ATOM     28  N   UNL     1      30.132  -3.021 -21.897  0.00  0.00    -0.285 NA
ATOM     29  C   UNL     1      30.537  -3.581 -23.023  0.00  0.00    +0.117 C 
ATOM     30  H   UNL     1      29.743  -2.101 -24.232  0.00  0.00    +0.144 HD
ATOM     31  H   UNL     1      30.540  -3.348 -25.079  0.00  0.00    +0.144 HD
ATOM     32  H   UNL     1      29.632  -2.173 -21.920  0.00  0.00    +0.188 HD
ENDBRANCH  26  29
ENDBRANCH  20  21
ENDBRANCH   2  20
TORSDOF 7
ENDMDL
MODEL 8
REMARK VINA RESULT:      -9.0      2.876      5.568
REMARK  Name = 25134248
REMARK  7 active torsions:
REMARK  status: ('A' for Active; 'I' for Inactive)
REMARK    1  A    between atoms: N_2  and  C_20
REMARK    2  A    between atoms: C_3  and  C_7
REMARK    3  A    between atoms: C_11  and  C_12
REMARK    4  A    between atoms: C_12  and  C_13
REMARK    5  A    between atoms: C_13  and  C_14
REMARK    6  A    between atoms: C_20  and  C_21
REMARK    7  A    between atoms: C_26  and  C_29
REMARK                            x       y       z     vdW  Elec       q    Type
REMARK                         _______ _______ _______ _____ _____    ______ ____
ROOT
ATOM      1  O   UNL     1      36.789 -20.971 -17.804  0.00  0.00    -0.273 OA
ATOM      2  N   UNL     1      35.791 -20.723 -19.892  0.00  0.00    -0.299 N 
ATOM      3  C   UNL     1      36.035 -21.365 -18.689  0.00  0.00    +0.241 C 
ATOM      4  H   UNL     1      35.162 -21.140 -20.526  0.00  0.00    +0.150 HD
ENDROOT
BRANCH   3   7
ATOM      5  O   UNL     1      34.191 -22.846 -15.035  0.00  0.00    -0.275 OA
ATOM      6  N   UNL     1      34.476 -22.548 -17.309  0.00  0.00    -0.273 N 
ATOM      7  C   UNL     1      35.242 -22.629 -18.549  0.00  0.00    +0.152 C 
ATOM      8  C   UNL     1      34.185 -22.726 -19.645  0.00  0.00    +0.031 C 
ATOM      9  C   UNL     1      33.065 -22.306 -17.579  0.00  0.00    +0.094 C 
ATOM     10  C   UNL     1      32.997 -21.967 -19.059  0.00  0.00    +0.024 C 
ATOM     11  C   UNL     1      34.927 -22.804 -16.023  0.00  0.00    +0.226 C 
BRANCH  11  12
ATOM     12  C   UNL     1      36.408 -23.039 -15.874  0.00  0.00    +0.085 C 
BRANCH  12  13
ATOM     13  C   UNL     1      36.901 -22.494 -14.544  0.00  0.00    +0.010 C 
BRANCH  13  14
ATOM     14  C   UNL     1      37.372 -23.591 -13.592  0.00  0.00    +0.000 C 
ATOM     15  C   UNL     1      36.266 -23.955 -12.593  0.00  0.00    +0.000 C 
ATOM     16  C   UNL     1      37.830 -24.830 -14.374  0.00  0.00    +0.000 C 
ATOM     17  C   UNL     1      36.694 -25.088 -11.663  0.00  0.00    +0.000 C 
ATOM     18  C   UNL     1      38.256 -25.960 -13.442  0.00  0.00    +0.000 C 
ATOM     19  C   UNL     1      37.157 -26.312 -12.445  0.00  0.00    +0.000 C 
ENDBRANCH  13  14
ENDBRANCH  12  13
ENDBRANCH  11  12
ENDBRANCH   3   7
BRANCH   2  20
ATOM     20  C   UNL     1      36.412 -19.472 -20.261  0.00  0.00    +0.116 C 
BRANCH  20  21
ATOM     21  C   UNL     1      35.742 -18.840 -21.447  0.00  0.00    -0.003 C 
ATOM     22  C   UNL     1      35.099 -19.640 -22.392  0.00  0.00    -0.003 C 
ATOM     23  C   UNL     1      35.760 -17.455 -21.603  0.00  0.00    -0.003 C 
ATOM     24  C   UNL     1      34.476 -19.054 -23.494  0.00  0.00    +0.002 C 
ATOM     25  C   UNL     1      35.137 -16.868 -22.704  0.00  0.00    +0.002 C 
ATOM     26  C   UNL     1      34.494 -17.668 -23.649  0.00  0.00    +0.031 C 
BRANCH  26  29
ATOM     27  N   UNL     1      32.513 -17.335 -25.109  0.00  0.00    -0.343 N 
ATOM     28  N   UNL     1      34.516 -16.223 -25.570  0.00  0.00    -0.285 NA
ATOM     29  C   UNL     1      33.843 -17.057 -24.797  0.00  0.00    +0.117 C 
ATOM     30  H   UNL     1      32.092 -16.910 -25.891  0.00  0.00    +0.144 HD
ATOM     31  H   UNL     1      31.996 -17.956 -24.548  0.00  0.00    +0.144 HD
ATOM     32  H   UNL     1      34.077 -15.808 -26.347  0.00  0.00    +0.188 HD
ENDBRANCH  26  29
ENDBRANCH  20  21
ENDBRANCH   2  20
TORSDOF 7
ENDMDL
MODEL 9
REMARK VINA RESULT:      -8.9     12.326     16.473
REMARK  Name = 25134248
REMARK  7 active torsions:
REMARK  status: ('A' for Active; 'I' for Inactive)
REMARK    1  A    between atoms: N_2  and  C_20
REMARK    2  A    between atoms: C_3  and  C_7
REMARK    3  A    between atoms: C_11  and  C_12
REMARK    4  A    between atoms: C_12  and  C_13
REMARK    5  A    between atoms: C_13  and  C_14
REMARK    6  A    between atoms: C_20  and  C_21
REMARK    7  A    between atoms: C_26  and  C_29
REMARK                            x       y       z     vdW  Elec       q    Type
REMARK                         _______ _______ _______ _____ _____    ______ ____
ROOT
ATOM      1  O   UNL     1      32.989  -9.355 -23.223  0.00  0.00    -0.273 OA
ATOM      2  N   UNL     1      33.396  -7.093 -22.853  0.00  0.00    -0.299 N 
ATOM      3  C   UNL     1      32.693  -8.277 -22.714  0.00  0.00    +0.241 C 
ATOM      4  H   UNL     1      33.057  -6.290 -22.394  0.00  0.00    +0.150 HD
ENDROOT
BRANCH   3   7
ATOM      5  O   UNL     1      32.187 -10.028 -18.761  0.00  0.00    -0.275 OA
ATOM      6  N   UNL     1      31.884  -8.504 -20.471  0.00  0.00    -0.273 N 
ATOM      7  C   UNL     1      31.494  -8.125 -21.826  0.00  0.00    +0.152 C 
ATOM      8  C   UNL     1      31.093  -6.657 -21.711  0.00  0.00    +0.031 C 
ATOM      9  C   UNL     1      32.019  -7.332 -19.616  0.00  0.00    +0.094 C 
ATOM     10  C   UNL     1      31.956  -6.143 -20.562  0.00  0.00    +0.024 C 
ATOM     11  C   UNL     1      31.982  -9.785 -19.952  0.00  0.00    +0.226 C 
BRANCH  11  12
ATOM     12  C   UNL     1      31.823 -10.915 -20.937  0.00  0.00    +0.085 C 
BRANCH  12  13
ATOM     13  C   UNL     1      31.923 -12.256 -20.229  0.00  0.00    +0.010 C 
BRANCH  13  14
ATOM     14  C   UNL     1      32.438 -13.370 -21.138  0.00  0.00    +0.000 C 
ATOM     15  C   UNL     1      32.643 -12.852 -22.568  0.00  0.00    +0.000 C 
ATOM     16  C   UNL     1      33.738 -13.966 -20.581  0.00  0.00    +0.000 C 
ATOM     17  C   UNL     1      33.209 -13.934 -23.484  0.00  0.00    +0.000 C 
ATOM     18  C   UNL     1      34.302 -15.046 -21.501  0.00  0.00    +0.000 C 
ATOM     19  C   UNL     1      34.496 -14.530 -22.923  0.00  0.00    +0.000 C 
ENDBRANCH  13  14
ENDBRANCH  12  13
ENDBRANCH  11  12
ENDBRANCH   3   7
BRANCH   2  20
ATOM     20  C   UNL     1      34.604  -6.979 -23.638  0.00  0.00    +0.116 C 
BRANCH  20  21
ATOM     21  C   UNL     1      34.479  -5.936 -24.712  0.00  0.00    -0.003 C 
ATOM     22  C   UNL     1      35.577  -5.628 -25.515  0.00  0.00    -0.003 C 
ATOM     23  C   UNL     1      33.266  -5.277 -24.908  0.00  0.00    -0.003 C 
ATOM     24  C   UNL     1      35.463  -4.661 -26.513  0.00  0.00    +0.002 C 
ATOM     25  C   UNL     1      33.150  -4.309 -25.905  0.00  0.00    +0.002 C 
ATOM     26  C   UNL     1      34.249  -4.002 -26.709  0.00  0.00    +0.031 C 
BRANCH  26  29
ATOM     27  N   UNL     1      35.252  -2.483 -28.398  0.00  0.00    -0.343 N 
ATOM     28  N   UNL     1      32.936  -2.542 -28.095  0.00  0.00    -0.285 NA
ATOM     29  C   UNL     1      34.129  -2.994 -27.750  0.00  0.00    +0.117 C 
ATOM     30  H   UNL     1      35.148  -1.802 -29.100  0.00  0.00    +0.144 HD
ATOM     31  H   UNL     1      36.150  -2.805 -28.152  0.00  0.00    +0.144 HD
ATOM     32  H   UNL     1      32.853  -1.860 -28.801  0.00  0.00    +0.188 HD
ENDBRANCH  26  29
ENDBRANCH  20  21
ENDBRANCH   2  20
TORSDOF 7
ENDMDL
