MODEL 1
REMARK VINA RESULT:     -11.9      0.000      0.000
REMARK  Name = 9969613
REMARK  5 active torsions:
REMARK  status: ('A' for Active; 'I' for Inactive)
REMARK    1  A    between atoms: C_3  and  O_7
REMARK    2  A    between atoms: C_4  and  O_17
REMARK    3  A    between atoms: O_7  and  C_13
REMARK    4  A    between atoms: O_17  and  C_21
REMARK    5  A    between atoms: C_18  and  N_24
REMARK                            x       y       z     vdW  Elec       q    Type
REMARK                         _______ _______ _______ _____ _____    ______ ____
ROOT
ATOM      1  N   UNL     1      34.555 -23.291 -16.226  0.00  0.00    -0.283 NA
ATOM      2  N   UNL     1      32.201 -23.261 -16.744  0.00  0.00    -0.151 NA
ATOM      3  C   UNL     1      34.220 -23.143 -14.934  0.00  0.00    +0.296 C 
ATOM      4  C   UNL     1      33.505 -23.342 -17.069  0.00  0.00    +0.260 C 
ATOM      5  C   UNL     1      32.935 -23.047 -14.461  0.00  0.00    +0.094 C 
ATOM      6  C   UNL     1      31.951 -23.114 -15.425  0.00  0.00    +0.119 C 
ENDROOT
BRANCH   3   7
ATOM      7  O   UNL     1      35.267 -23.085 -14.028  0.00  0.00    -0.427 OA
BRANCH   7  13
ATOM      8  O   UNL     1      39.827 -24.511 -14.677  0.00  0.00    -0.435 OA
ATOM      9  O   UNL     1      39.233 -26.829 -14.394  0.00  0.00    -0.435 OA
ATOM     10  C   UNL     1      38.498 -24.679 -14.442  0.00  0.00    +0.179 C 
ATOM     11  C   UNL     1      38.158 -26.003 -14.279  0.00  0.00    +0.177 C 
ATOM     12  C   UNL     1      37.556 -23.673 -14.364  0.00  0.00    +0.078 C 
ATOM     13  C   UNL     1      36.231 -24.042 -14.113  0.00  0.00    +0.151 C 
ATOM     14  C   UNL     1      36.857 -26.394 -14.032  0.00  0.00    +0.043 C 
ATOM     15  C   UNL     1      40.287 -25.877 -14.645  0.00  0.00    +0.429 C 
ATOM     16  C   UNL     1      35.885 -25.394 -13.949  0.00  0.00    +0.041 C 
ENDBRANCH   7  13
ENDBRANCH   3   7
BRANCH   4  17
ATOM     17  O   UNL     1      33.797 -23.494 -18.404  0.00  0.00    -0.383 OA
BRANCH  17  21
ATOM     18  C   UNL     1      34.519 -20.038 -20.589  0.00  0.00    +0.057 C 
ATOM     19  C   UNL     1      35.586 -20.820 -20.148  0.00  0.00    +0.018 C 
ATOM     20  C   UNL     1      33.208 -20.418 -20.296  0.00  0.00    +0.018 C 
ATOM     21  C   UNL     1      34.037 -22.346 -19.130  0.00  0.00    +0.160 C 
ATOM     22  C   UNL     1      35.343 -21.981 -19.414  0.00  0.00    +0.040 C 
ATOM     23  C   UNL     1      32.966 -21.579 -19.562  0.00  0.00    +0.040 C 
BRANCH  18  24
ATOM     24  N   UNL     1      34.759 -18.887 -21.317  0.00  0.00    -0.246 N 
ATOM     25  N   UNL     1      34.892 -17.509 -23.063  0.00  0.00    -0.224 NA
ATOM     26  C   UNL     1      35.219 -17.692 -20.827  0.00  0.00    +0.092 C 
ATOM     27  C   UNL     1      34.578 -18.722 -22.667  0.00  0.00    +0.172 C 
ATOM     28  C   UNL     1      35.293 -16.861 -21.921  0.00  0.00    +0.117 C 
ENDBRANCH  18  24
ENDBRANCH  17  21
ENDBRANCH   4  17
TORSDOF 5
ENDMDL
MODEL 2
REMARK VINA RESULT:     -11.9      0.372      1.148
REMARK  Name = 9969613
REMARK  5 active torsions:
REMARK  status: ('A' for Active; 'I' for Inactive)
REMARK    1  A    between atoms: C_3  and  O_7
REMARK    2  A    between atoms: C_4  and  O_17
REMARK    3  A    between atoms: O_7  and  C_13
REMARK    4  A    between atoms: O_17  and  C_21
REMARK    5  A    between atoms: C_18  and  N_24
REMARK                            x       y       z     vdW  Elec       q    Type
REMARK                         _______ _______ _______ _____ _____    ______ ____
ROOT
ATOM      1  N   UNL     1      34.544 -23.285 -16.234  0.00  0.00    -0.283 NA
ATOM      2  N   UNL     1      32.195 -23.246 -16.776  0.00  0.00    -0.151 NA
ATOM      3  C   UNL     1      34.197 -23.140 -14.945  0.00  0.00    +0.296 C 
ATOM      4  C   UNL     1      33.503 -23.330 -17.088  0.00  0.00    +0.260 C 
ATOM      5  C   UNL     1      32.908 -23.041 -14.485  0.00  0.00    +0.094 C 
ATOM      6  C   UNL     1      31.933 -23.101 -15.459  0.00  0.00    +0.119 C 
ENDROOT
BRANCH   3   7
ATOM      7  O   UNL     1      35.235 -23.088 -14.029  0.00  0.00    -0.427 OA
BRANCH   7  13
ATOM      8  O   UNL     1      39.800 -24.518 -14.633  0.00  0.00    -0.435 OA
ATOM      9  O   UNL     1      39.198 -26.837 -14.375  0.00  0.00    -0.435 OA
ATOM     10  C   UNL     1      38.468 -24.685 -14.415  0.00  0.00    +0.179 C 
ATOM     11  C   UNL     1      38.123 -26.009 -14.267  0.00  0.00    +0.177 C 
ATOM     12  C   UNL     1      37.527 -23.679 -14.342  0.00  0.00    +0.078 C 
ATOM     13  C   UNL     1      36.199 -24.047 -14.110  0.00  0.00    +0.151 C 
ATOM     14  C   UNL     1      36.820 -26.400 -14.039  0.00  0.00    +0.043 C 
ATOM     15  C   UNL     1      40.257 -25.885 -14.606  0.00  0.00    +0.429 C 
ATOM     16  C   UNL     1      35.847 -25.399 -13.961  0.00  0.00    +0.041 C 
ENDBRANCH   7  13
ENDBRANCH   3   7
BRANCH   4  17
ATOM     17  O   UNL     1      33.808 -23.478 -18.421  0.00  0.00    -0.383 OA
BRANCH  17  21
ATOM     18  C   UNL     1      34.528 -20.017 -20.597  0.00  0.00    +0.057 C 
ATOM     19  C   UNL     1      33.218 -20.404 -20.316  0.00  0.00    +0.018 C 
ATOM     20  C   UNL     1      35.597 -20.793 -20.146  0.00  0.00    +0.018 C 
ATOM     21  C   UNL     1      34.047 -22.329 -19.143  0.00  0.00    +0.160 C 
ATOM     22  C   UNL     1      32.976 -21.567 -19.584  0.00  0.00    +0.040 C 
ATOM     23  C   UNL     1      35.354 -21.956 -19.415  0.00  0.00    +0.040 C 
BRANCH  18  24
ATOM     24  N   UNL     1      34.769 -18.864 -21.321  0.00  0.00    -0.246 N 
ATOM     25  N   UNL     1      35.329 -16.753 -21.763  0.00  0.00    -0.224 NA
ATOM     26  C   UNL     1      34.639 -18.709 -22.677  0.00  0.00    +0.092 C 
ATOM     27  C   UNL     1      35.187 -17.658 -20.820  0.00  0.00    +0.172 C 
ATOM     28  C   UNL     1      34.988 -17.402 -22.924  0.00  0.00    +0.117 C 
ENDBRANCH  18  24
ENDBRANCH  17  21
ENDBRANCH   4  17
TORSDOF 5
ENDMDL
MODEL 3
REMARK VINA RESULT:     -11.5      2.725      5.568
REMARK  Name = 9969613
REMARK  5 active torsions:
REMARK  status: ('A' for Active; 'I' for Inactive)
REMARK    1  A    between atoms: C_3  and  O_7
REMARK    2  A    between atoms: C_4  and  O_17
REMARK    3  A    between atoms: O_7  and  C_13
REMARK    4  A    between atoms: O_17  and  C_21
REMARK    5  A    between atoms: C_18  and  N_24
REMARK                            x       y       z     vdW  Elec       q    Type
REMARK                         _______ _______ _______ _____ _____    ______ ____
ROOT
ATOM      1  N   UNL     1      33.303 -23.460 -16.095  0.00  0.00    -0.283 NA
ATOM      2  N   UNL     1      35.592 -22.783 -16.431  0.00  0.00    -0.151 NA
ATOM      3  C   UNL     1      33.495 -23.275 -14.779  0.00  0.00    +0.296 C 
ATOM      4  C   UNL     1      34.383 -23.198 -16.856  0.00  0.00    +0.260 C 
ATOM      5  C   UNL     1      34.671 -22.856 -14.208  0.00  0.00    +0.094 C 
ATOM      6  C   UNL     1      35.701 -22.622 -15.095  0.00  0.00    +0.119 C 
ENDROOT
BRANCH   3   7
ATOM      7  O   UNL     1      32.411 -23.533 -13.955  0.00  0.00    -0.427 OA
BRANCH   7  13
ATOM      8  O   UNL     1      28.669 -22.119 -16.647  0.00  0.00    -0.435 OA
ATOM      9  O   UNL     1      27.564 -24.244 -16.380  0.00  0.00    -0.435 OA
ATOM     10  C   UNL     1      29.389 -22.983 -15.882  0.00  0.00    +0.179 C 
ATOM     11  C   UNL     1      28.759 -24.197 -15.730  0.00  0.00    +0.177 C 
ATOM     12  C   UNL     1      30.614 -22.724 -15.302  0.00  0.00    +0.078 C 
ATOM     13  C   UNL     1      31.203 -23.742 -14.546  0.00  0.00    +0.151 C 
ATOM     14  C   UNL     1      29.318 -25.218 -14.989  0.00  0.00    +0.043 C 
ATOM     15  C   UNL     1      27.514 -22.924 -16.960  0.00  0.00    +0.429 C 
ATOM     16  C   UNL     1      30.558 -24.981 -14.390  0.00  0.00    +0.041 C 
ENDBRANCH   7  13
ENDBRANCH   3   7
BRANCH   4  17
ATOM     17  O   UNL     1      34.236 -23.373 -18.212  0.00  0.00    -0.383 OA
BRANCH  17  21
ATOM     18  C   UNL     1      34.640 -20.009 -20.611  0.00  0.00    +0.057 C 
ATOM     19  C   UNL     1      33.372 -20.435 -20.215  0.00  0.00    +0.018 C 
ATOM     20  C   UNL     1      35.773 -20.713 -20.200  0.00  0.00    +0.018 C 
ATOM     21  C   UNL     1      34.370 -22.256 -19.009  0.00  0.00    +0.160 C 
ATOM     22  C   UNL     1      33.237 -21.565 -19.409  0.00  0.00    +0.040 C 
ATOM     23  C   UNL     1      35.636 -21.844 -19.394  0.00  0.00    +0.040 C 
BRANCH  18  24
ATOM     24  N   UNL     1      34.776 -18.888 -21.409  0.00  0.00    -0.246 N 
ATOM     25  N   UNL     1      34.707 -17.593 -23.222  0.00  0.00    -0.224 NA
ATOM     26  C   UNL     1      35.238 -17.657 -21.019  0.00  0.00    +0.092 C 
ATOM     27  C   UNL     1      34.470 -18.794 -22.743  0.00  0.00    +0.172 C 
ATOM     28  C   UNL     1      35.186 -16.879 -22.152  0.00  0.00    +0.117 C 
ENDBRANCH  18  24
ENDBRANCH  17  21
ENDBRANCH   4  17
TORSDOF 5
ENDMDL
MODEL 4
REMARK VINA RESULT:     -11.1      4.335      8.357
REMARK  Name = 9969613
REMARK  5 active torsions:
REMARK  status: ('A' for Active; 'I' for Inactive)
REMARK    1  A    between atoms: C_3  and  O_7
REMARK    2  A    between atoms: C_4  and  O_17
REMARK    3  A    between atoms: O_7  and  C_13
REMARK    4  A    between atoms: O_17  and  C_21
REMARK    5  A    between atoms: C_18  and  N_24
REMARK                            x       y       z     vdW  Elec       q    Type
REMARK                         _______ _______ _______ _____ _____    ______ ____
ROOT
ATOM      1  N   UNL     1      35.606 -17.523 -22.567  0.00  0.00    -0.283 NA
ATOM      2  N   UNL     1      34.172 -17.418 -24.502  0.00  0.00    -0.151 NA
ATOM      3  C   UNL     1      35.248 -18.810 -22.435  0.00  0.00    +0.296 C 
ATOM      4  C   UNL     1      35.036 -16.892 -23.613  0.00  0.00    +0.260 C 
ATOM      5  C   UNL     1      34.380 -19.473 -23.266  0.00  0.00    +0.094 C 
ATOM      6  C   UNL     1      33.865 -18.717 -24.298  0.00  0.00    +0.119 C 
ENDROOT
BRANCH   3   7
ATOM      7  O   UNL     1      35.809 -19.501 -21.373  0.00  0.00    -0.427 OA
BRANCH   7  13
ATOM      8  O   UNL     1      34.936 -22.771 -17.938  0.00  0.00    -0.435 OA
ATOM      9  O   UNL     1      32.558 -22.409 -18.079  0.00  0.00    -0.435 OA
ATOM     10  C   UNL     1      34.610 -21.833 -18.868  0.00  0.00    +0.179 C 
ATOM     11  C   UNL     1      33.251 -21.625 -18.949  0.00  0.00    +0.177 C 
ATOM     12  C   UNL     1      35.498 -21.139 -19.665  0.00  0.00    +0.078 C 
ATOM     13  C   UNL     1      34.972 -20.209 -20.566  0.00  0.00    +0.151 C 
ATOM     14  C   UNL     1      32.706 -20.714 -19.830  0.00  0.00    +0.043 C 
ATOM     15  C   UNL     1      33.631 -23.131 -17.442  0.00  0.00    +0.429 C 
ATOM     16  C   UNL     1      33.585 -19.999 -20.649  0.00  0.00    +0.041 C 
ENDBRANCH   7  13
ENDBRANCH   3   7
BRANCH   4  17
ATOM     17  O   UNL     1      35.373 -15.571 -23.790  0.00  0.00    -0.383 OA
BRANCH  17  21
ATOM     18  C   UNL     1      32.988 -12.739 -21.913  0.00  0.00    +0.057 C 
ATOM     19  C   UNL     1      33.295 -12.605 -23.267  0.00  0.00    +0.018 C 
ATOM     20  C   UNL     1      33.483 -13.824 -21.189  0.00  0.00    +0.018 C 
ATOM     21  C   UNL     1      34.581 -14.631 -23.167  0.00  0.00    +0.160 C 
ATOM     22  C   UNL     1      34.096 -13.557 -23.898  0.00  0.00    +0.040 C 
ATOM     23  C   UNL     1      34.284 -14.776 -21.821  0.00  0.00    +0.040 C 
BRANCH  18  24
ATOM     24  N   UNL     1      32.194 -11.796 -21.287  0.00  0.00    -0.246 N 
ATOM     25  N   UNL     1      31.053  -9.909 -20.961  0.00  0.00    -0.224 NA
ATOM     26  C   UNL     1      31.634 -11.897 -20.039  0.00  0.00    +0.092 C 
ATOM     27  C   UNL     1      31.812 -10.581 -21.798  0.00  0.00    +0.172 C 
ATOM     28  C   UNL     1      30.938 -10.724 -19.862  0.00  0.00    +0.117 C 
ENDBRANCH  18  24
ENDBRANCH  17  21
ENDBRANCH   4  17
TORSDOF 5
ENDMDL
MODEL 5
REMARK VINA RESULT:     -11.0      0.588      1.242
REMARK  Name = 9969613
REMARK  5 active torsions:
REMARK  status: ('A' for Active; 'I' for Inactive)
REMARK    1  A    between atoms: C_3  and  O_7
REMARK    2  A    between atoms: C_4  and  O_17
REMARK    3  A    between atoms: O_7  and  C_13
REMARK    4  A    between atoms: O_17  and  C_21
REMARK    5  A    between atoms: C_18  and  N_24
REMARK                            x       y       z     vdW  Elec       q    Type
REMARK                         _______ _______ _______ _____ _____    ______ ____
ROOT
ATOM      1  N   UNL     1      34.062 -23.715 -16.101  0.00  0.00    -0.283 NA
ATOM      2  N   UNL     1      31.956 -22.940 -16.980  0.00  0.00    -0.151 NA
ATOM      3  C   UNL     1      33.553 -23.546 -14.870  0.00  0.00    +0.296 C 
ATOM      4  C   UNL     1      33.218 -23.396 -17.101  0.00  0.00    +0.260 C 
ATOM      5  C   UNL     1      32.287 -23.090 -14.600  0.00  0.00    +0.094 C 
ATOM      6  C   UNL     1      31.521 -22.798 -15.710  0.00  0.00    +0.119 C 
ENDROOT
BRANCH   3   7
ATOM      7  O   UNL     1      34.385 -23.861 -13.809  0.00  0.00    -0.427 OA
BRANCH   7  13
ATOM      8  O   UNL     1      38.480 -26.403 -13.644  0.00  0.00    -0.435 OA
ATOM      9  O   UNL     1      39.697 -24.680 -14.809  0.00  0.00    -0.435 OA
ATOM     10  C   UNL     1      37.694 -25.338 -13.958  0.00  0.00    +0.179 C 
ATOM     11  C   UNL     1      38.388 -24.354 -14.625  0.00  0.00    +0.177 C 
ATOM     12  C   UNL     1      36.352 -25.207 -13.667  0.00  0.00    +0.078 C 
ATOM     13  C   UNL     1      35.710 -24.034 -14.073  0.00  0.00    +0.151 C 
ATOM     14  C   UNL     1      37.779 -23.186 -15.036  0.00  0.00    +0.043 C 
ATOM     15  C   UNL     1      39.747 -25.980 -14.186  0.00  0.00    +0.429 C 
ATOM     16  C   UNL     1      36.420 -23.029 -14.753  0.00  0.00    +0.041 C 
ENDBRANCH   7  13
ENDBRANCH   3   7
BRANCH   4  17
ATOM     17  O   UNL     1      33.694 -23.554 -18.381  0.00  0.00    -0.383 OA
BRANCH  17  21
ATOM     18  C   UNL     1      34.501 -20.101 -20.540  0.00  0.00    +0.057 C 
ATOM     19  C   UNL     1      35.550 -20.865 -20.028  0.00  0.00    +0.018 C 
ATOM     20  C   UNL     1      33.180 -20.498 -20.326  0.00  0.00    +0.018 C 
ATOM     21  C   UNL     1      33.962 -22.407 -19.098  0.00  0.00    +0.160 C 
ATOM     22  C   UNL     1      35.278 -22.025 -19.303  0.00  0.00    +0.040 C 
ATOM     23  C   UNL     1      32.909 -21.658 -19.601  0.00  0.00    +0.040 C 
BRANCH  18  24
ATOM     24  N   UNL     1      34.769 -18.951 -21.259  0.00  0.00    -0.246 N 
ATOM     25  N   UNL     1      34.902 -17.551 -22.988  0.00  0.00    -0.224 NA
ATOM     26  C   UNL     1      35.306 -17.788 -20.770  0.00  0.00    +0.092 C 
ATOM     27  C   UNL     1      34.544 -18.754 -22.598  0.00  0.00    +0.172 C 
ATOM     28  C   UNL     1      35.379 -16.943 -21.853  0.00  0.00    +0.117 C 
ENDBRANCH  18  24
ENDBRANCH  17  21
ENDBRANCH   4  17
TORSDOF 5
ENDMDL
MODEL 6
REMARK VINA RESULT:     -11.0      1.392      2.080
REMARK  Name = 9969613
REMARK  5 active torsions:
REMARK  status: ('A' for Active; 'I' for Inactive)
REMARK    1  A    between atoms: C_3  and  O_7
REMARK    2  A    between atoms: C_4  and  O_17
REMARK    3  A    between atoms: O_7  and  C_13
REMARK    4  A    between atoms: O_17  and  C_21
REMARK    5  A    between atoms: C_18  and  N_24
REMARK                            x       y       z     vdW  Elec       q    Type
REMARK                         _______ _______ _______ _____ _____    ______ ____
ROOT
ATOM      1  N   UNL     1      35.771 -22.391 -17.131  0.00  0.00    -0.283 NA
ATOM      2  N   UNL     1      34.060 -22.274 -18.825  0.00  0.00    -0.151 NA
ATOM      3  C   UNL     1      34.822 -22.802 -16.274  0.00  0.00    +0.296 C 
ATOM      4  C   UNL     1      35.324 -22.147 -18.378  0.00  0.00    +0.260 C 
ATOM      5  C   UNL     1      33.498 -22.975 -16.592  0.00  0.00    +0.094 C 
ATOM      6  C   UNL     1      33.169 -22.692 -17.901  0.00  0.00    +0.119 C 
ENDROOT
BRANCH   3   7
ATOM      7  O   UNL     1      35.234 -23.065 -14.978  0.00  0.00    -0.427 OA
BRANCH   7  13
ATOM      8  O   UNL     1      39.752 -24.606 -14.296  0.00  0.00    -0.435 OA
ATOM      9  O   UNL     1      39.049 -26.910 -14.237  0.00  0.00    -0.435 OA
ATOM     10  C   UNL     1      38.408 -24.740 -14.461  0.00  0.00    +0.179 C 
ATOM     11  C   UNL     1      38.006 -26.056 -14.426  0.00  0.00    +0.177 C 
ATOM     12  C   UNL     1      37.508 -23.711 -14.643  0.00  0.00    +0.078 C 
ATOM     13  C   UNL     1      36.159 -24.047 -14.795  0.00  0.00    +0.151 C 
ATOM     14  C   UNL     1      36.681 -26.415 -14.574  0.00  0.00    +0.043 C 
ATOM     15  C   UNL     1      40.152 -25.983 -14.155  0.00  0.00    +0.429 C 
ATOM     16  C   UNL     1      35.749 -25.391 -14.761  0.00  0.00    +0.041 C 
ENDBRANCH   7  13
ENDBRANCH   3   7
BRANCH   4  17
ATOM     17  O   UNL     1      36.260 -21.723 -19.293  0.00  0.00    -0.383 OA
BRANCH  17  21
ATOM     18  C   UNL     1      35.302 -18.391 -21.576  0.00  0.00    +0.057 C 
ATOM     19  C   UNL     1      34.346 -19.382 -21.354  0.00  0.00    +0.018 C 
ATOM     20  C   UNL     1      36.580 -18.519 -21.031  0.00  0.00    +0.018 C 
ATOM     21  C   UNL     1      35.942 -20.616 -20.051  0.00  0.00    +0.160 C 
ATOM     22  C   UNL     1      34.668 -20.502 -20.586  0.00  0.00    +0.040 C 
ATOM     23  C   UNL     1      36.901 -19.639 -20.264  0.00  0.00    +0.040 C 
BRANCH  18  24
ATOM     24  N   UNL     1      34.983 -17.281 -22.336  0.00  0.00    -0.246 N 
ATOM     25  N   UNL     1      34.456 -16.049 -24.118  0.00  0.00    -0.224 NA
ATOM     26  C   UNL     1      34.853 -15.992 -21.886  0.00  0.00    +0.092 C 
ATOM     27  C   UNL     1      34.733 -17.259 -23.685  0.00  0.00    +0.172 C 
ATOM     28  C   UNL     1      34.529 -15.254 -23.001  0.00  0.00    +0.117 C 
ENDBRANCH  18  24
ENDBRANCH  17  21
ENDBRANCH   4  17
TORSDOF 5
ENDMDL
MODEL 7
REMARK VINA RESULT:     -10.8      3.757      7.382
REMARK  Name = 9969613
REMARK  5 active torsions:
REMARK  status: ('A' for Active; 'I' for Inactive)
REMARK    1  A    between atoms: C_3  and  O_7
REMARK    2  A    between atoms: C_4  and  O_17
REMARK    3  A    between atoms: O_7  and  C_13
REMARK    4  A    between atoms: O_17  and  C_21
REMARK    5  A    between atoms: C_18  and  N_24
REMARK                            x       y       z     vdW  Elec       q    Type
REMARK                         _______ _______ _______ _____ _____    ______ ____
ROOT
ATOM      1  N   UNL     1      33.990 -24.427 -14.363  0.00  0.00    -0.283 NA
ATOM      2  N   UNL     1      34.267 -24.082 -11.993  0.00  0.00    -0.151 NA
ATOM      3  C   UNL     1      35.199 -23.869 -14.534  0.00  0.00    +0.296 C 
ATOM      4  C   UNL     1      33.589 -24.502 -13.079  0.00  0.00    +0.260 C 
ATOM      5  C   UNL     1      35.997 -23.399 -13.521  0.00  0.00    +0.094 C 
ATOM      6  C   UNL     1      35.473 -23.533 -12.252  0.00  0.00    +0.119 C 
ENDROOT
BRANCH   3   7
ATOM      7  O   UNL     1      35.654 -23.770 -15.838  0.00  0.00    -0.427 OA
BRANCH   7  13
ATOM      8  O   UNL     1      34.981 -20.841 -19.609  0.00  0.00    -0.435 OA
ATOM      9  O   UNL     1      32.589 -21.114 -19.504  0.00  0.00    -0.435 OA
ATOM     10  C   UNL     1      34.600 -21.669 -18.600  0.00  0.00    +0.179 C 
ATOM     11  C   UNL     1      33.233 -21.827 -18.540  0.00  0.00    +0.177 C 
ATOM     12  C   UNL     1      35.442 -22.305 -17.711  0.00  0.00    +0.078 C 
ATOM     13  C   UNL     1      34.862 -23.122 -16.737  0.00  0.00    +0.151 C 
ATOM     14  C   UNL     1      32.635 -22.627 -17.588  0.00  0.00    +0.043 C 
ATOM     15  C   UNL     1      33.703 -20.493 -20.178  0.00  0.00    +0.429 C 
ATOM     16  C   UNL     1      33.467 -23.281 -16.675  0.00  0.00    +0.041 C 
ENDBRANCH   7  13
ENDBRANCH   3   7
BRANCH   4  17
ATOM     17  O   UNL     1      32.356 -25.068 -12.852  0.00  0.00    -0.383 OA
BRANCH  17  21
ATOM     18  C   UNL     1      29.142 -23.518 -14.973  0.00  0.00    +0.057 C 
ATOM     19  C   UNL     1      29.274 -24.898 -14.817  0.00  0.00    +0.018 C 
ATOM     20  C   UNL     1      30.090 -22.659 -14.417  0.00  0.00    +0.018 C 
ATOM     21  C   UNL     1      31.289 -24.553 -13.556  0.00  0.00    +0.160 C 
ATOM     22  C   UNL     1      30.354 -25.418 -14.104  0.00  0.00    +0.040 C 
ATOM     23  C   UNL     1      31.170 -23.180 -13.704  0.00  0.00    +0.040 C 
BRANCH  18  24
ATOM     24  N   UNL     1      28.071 -23.001 -15.680  0.00  0.00    -0.246 N 
ATOM     25  N   UNL     1      26.130 -21.984 -16.084  0.00  0.00    -0.224 NA
ATOM     26  C   UNL     1      27.901 -23.026 -17.041  0.00  0.00    +0.092 C 
ATOM     27  C   UNL     1      26.978 -22.362 -15.153  0.00  0.00    +0.172 C 
ATOM     28  C   UNL     1      26.700 -22.395 -17.263  0.00  0.00    +0.117 C 
ENDBRANCH  18  24
ENDBRANCH  17  21
ENDBRANCH   4  17
TORSDOF 5
ENDMDL
MODEL 8
REMARK VINA RESULT:     -10.3      3.536      9.814
REMARK  Name = 9969613
REMARK  5 active torsions:
REMARK  status: ('A' for Active; 'I' for Inactive)
REMARK    1  A    between atoms: C_3  and  O_7
REMARK    2  A    between atoms: C_4  and  O_17
REMARK    3  A    between atoms: O_7  and  C_13
REMARK    4  A    between atoms: O_17  and  C_21
REMARK    5  A    between atoms: C_18  and  N_24
REMARK                            x       y       z     vdW  Elec       q    Type
REMARK                         _______ _______ _______ _____ _____    ______ ____
ROOT
ATOM      1  N   UNL     1      35.663 -20.644 -19.901  0.00  0.00    -0.283 NA
ATOM      2  N   UNL     1      33.441 -21.447 -19.424  0.00  0.00    -0.151 NA
ATOM      3  C   UNL     1      35.109 -19.774 -20.761  0.00  0.00    +0.296 C 
ATOM      4  C   UNL     1      34.779 -21.443 -19.273  0.00  0.00    +0.260 C 
ATOM      5  C   UNL     1      33.764 -19.668 -21.013  0.00  0.00    +0.094 C 
ATOM      6  C   UNL     1      32.965 -20.542 -20.306  0.00  0.00    +0.119 C 
ENDROOT
BRANCH   3   7
ATOM      7  O   UNL     1      35.979 -18.931 -21.432  0.00  0.00    -0.427 OA
BRANCH   7  13
ATOM      8  O   UNL     1      34.250 -16.832 -25.415  0.00  0.00    -0.435 OA
ATOM      9  O   UNL     1      33.827 -14.768 -24.247  0.00  0.00    -0.435 OA
ATOM     10  C   UNL     1      34.603 -16.899 -24.103  0.00  0.00    +0.179 C 
ATOM     11  C   UNL     1      34.361 -15.721 -23.434  0.00  0.00    +0.177 C 
ATOM     12  C   UNL     1      35.145 -17.996 -23.464  0.00  0.00    +0.078 C 
ATOM     13  C   UNL     1      35.443 -17.874 -22.104  0.00  0.00    +0.151 C 
ATOM     14  C   UNL     1      34.647 -15.574 -22.092  0.00  0.00    +0.043 C 
ATOM     15  C   UNL     1      33.759 -15.480 -25.499  0.00  0.00    +0.429 C 
ATOM     16  C   UNL     1      35.197 -16.670 -21.423  0.00  0.00    +0.041 C 
ENDBRANCH   7  13
ENDBRANCH   3   7
BRANCH   4  17
ATOM     17  O   UNL     1      35.299 -22.352 -18.381  0.00  0.00    -0.383 OA
BRANCH  17  21
ATOM     18  C   UNL     1      32.877 -23.490 -15.207  0.00  0.00    +0.057 C 
ATOM     19  C   UNL     1      34.237 -23.257 -14.999  0.00  0.00    +0.018 C 
ATOM     20  C   UNL     1      32.331 -23.340 -16.482  0.00  0.00    +0.018 C 
ATOM     21  C   UNL     1      34.494 -22.730 -17.327  0.00  0.00    +0.160 C 
ATOM     22  C   UNL     1      35.050 -22.875 -16.066  0.00  0.00    +0.040 C 
ATOM     23  C   UNL     1      33.145 -22.957 -17.549  0.00  0.00    +0.040 C 
BRANCH  18  24
ATOM     24  N   UNL     1      32.070 -23.869 -14.150  0.00  0.00    -0.246 N 
ATOM     25  N   UNL     1      30.884 -23.721 -12.269  0.00  0.00    -0.224 NA
ATOM     26  C   UNL     1      31.539 -25.115 -13.933  0.00  0.00    +0.092 C 
ATOM     27  C   UNL     1      31.644 -23.069 -13.120  0.00  0.00    +0.172 C 
ATOM     28  C   UNL     1      30.815 -24.998 -12.770  0.00  0.00    +0.117 C 
ENDBRANCH  18  24
ENDBRANCH  17  21
ENDBRANCH   4  17
TORSDOF 5
ENDMDL
MODEL 9
REMARK VINA RESULT:     -10.3      6.238     12.412
REMARK  Name = 9969613
REMARK  5 active torsions:
REMARK  status: ('A' for Active; 'I' for Inactive)
REMARK    1  A    between atoms: C_3  and  O_7
REMARK    2  A    between atoms: C_4  and  O_17
REMARK    3  A    between atoms: O_7  and  C_13
REMARK    4  A    between atoms: O_17  and  C_21
REMARK    5  A    between atoms: C_18  and  N_24
REMARK                            x       y       z     vdW  Elec       q    Type
REMARK                         _______ _______ _______ _____ _____    ______ ____
ROOT
ATOM      1  N   UNL     1      34.417 -15.437 -22.991  0.00  0.00    -0.283 NA
ATOM      2  N   UNL     1      34.446 -16.120 -25.303  0.00  0.00    -0.151 NA
ATOM      3  C   UNL     1      33.520 -14.498 -23.332  0.00  0.00    +0.296 C 
ATOM      4  C   UNL     1      34.834 -16.206 -24.016  0.00  0.00    +0.260 C 
ATOM      5  C   UNL     1      33.037 -14.298 -24.601  0.00  0.00    +0.094 C 
ATOM      6  C   UNL     1      33.542 -15.150 -25.561  0.00  0.00    +0.119 C 
ENDROOT
BRANCH   3   7
ATOM      7  O   UNL     1      33.062 -13.682 -22.311  0.00  0.00    -0.427 OA
BRANCH   7  13
ATOM      8  O   UNL     1      31.269  -9.271 -21.550  0.00  0.00    -0.435 OA
ATOM      9  O   UNL     1      32.771  -8.290 -23.158  0.00  0.00    -0.435 OA
ATOM     10  C   UNL     1      32.087 -10.195 -22.124  0.00  0.00    +0.179 C 
ATOM     11  C   UNL     1      32.946  -9.634 -23.042  0.00  0.00    +0.177 C 
ATOM     12  C   UNL     1      32.097 -11.547 -21.853  0.00  0.00    +0.078 C 
ATOM     13  C   UNL     1      33.015 -12.342 -22.545  0.00  0.00    +0.151 C 
ATOM     14  C   UNL     1      33.861 -10.396 -23.740  0.00  0.00    +0.043 C 
ATOM     15  C   UNL     1      31.708  -8.067 -22.210  0.00  0.00    +0.429 C 
ATOM     16  C   UNL     1      33.891 -11.769 -23.484  0.00  0.00    +0.041 C 
ENDBRANCH   7  13
ENDBRANCH   3   7
BRANCH   4  17
ATOM     17  O   UNL     1      35.754 -17.184 -23.716  0.00  0.00    -0.383 OA
BRANCH  17  21
ATOM     18  C   UNL     1      34.689 -19.964 -20.824  0.00  0.00    +0.057 C 
ATOM     19  C   UNL     1      35.867 -19.232 -20.686  0.00  0.00    +0.018 C 
ATOM     20  C   UNL     1      33.867 -19.762 -21.934  0.00  0.00    +0.018 C 
ATOM     21  C   UNL     1      35.400 -18.107 -22.756  0.00  0.00    +0.160 C 
ATOM     22  C   UNL     1      36.225 -18.297 -21.658  0.00  0.00    +0.040 C 
ATOM     23  C   UNL     1      34.225 -18.828 -22.905  0.00  0.00    +0.040 C 
BRANCH  18  24
ATOM     24  N   UNL     1      34.333 -20.891 -19.861  0.00  0.00    -0.246 N 
ATOM     25  N   UNL     1      33.047 -22.149 -18.546  0.00  0.00    -0.224 NA
ATOM     26  C   UNL     1      35.187 -21.644 -19.096  0.00  0.00    +0.092 C 
ATOM     27  C   UNL     1      33.058 -21.235 -19.490  0.00  0.00    +0.172 C 
ATOM     28  C   UNL     1      34.371 -22.409 -18.296  0.00  0.00    +0.117 C 
ENDBRANCH  18  24
ENDBRANCH  17  21
ENDBRANCH   4  17
TORSDOF 5
ENDMDL
