MODEL 1
REMARK VINA RESULT:     -11.9      0.000      0.000
REMARK  Name = 24748573
REMARK  3 active torsions:
REMARK  status: ('A' for Active; 'I' for Inactive)
REMARK    1  A    between atoms: N_2  and  C_18
REMARK    2  A    between atoms: C_13  and  C_25
REMARK    3  A    between atoms: C_25  and  O_26
REMARK                            x       y       z     vdW  Elec       q    Type
REMARK                         _______ _______ _______ _____ _____    ______ ____
ROOT
ATOM      1  N   UNL     1      34.353 -23.220 -16.552  0.00  0.00    -0.391 NA
ATOM      2  N   UNL     1      32.687 -22.494 -18.040  0.00  0.00    -0.288 N 
ATOM      3  N   UNL     1      30.062 -23.757 -13.916  0.00  0.00    -0.243 NA
ATOM      4  C   UNL     1      33.821 -23.993 -14.324  0.00  0.00    +0.098 C 
ATOM      5  C   UNL     1      32.431 -23.755 -14.578  0.00  0.00    +0.011 C 
ATOM      6  C   UNL     1      32.040 -23.249 -15.830  0.00  0.00    +0.044 C 
ATOM      7  C   UNL     1      34.738 -23.703 -15.361  0.00  0.00    +0.119 C 
ATOM      8  C   UNL     1      33.037 -23.005 -16.764  0.00  0.00    +0.183 C 
ATOM      9  C   UNL     1      34.330 -24.500 -13.103  0.00  0.00    -0.015 C 
ATOM     10  C   UNL     1      36.096 -23.924 -15.147  0.00  0.00    +0.035 C 
ATOM     11  C   UNL     1      30.690 -23.003 -16.115  0.00  0.00    +0.024 C 
ATOM     12  C   UNL     1      31.376 -23.983 -13.672  0.00  0.00    +0.095 C 
ATOM     13  C   UNL     1      36.579 -24.423 -13.939  0.00  0.00    +0.077 C 
ATOM     14  C   UNL     1      35.694 -24.712 -12.914  0.00  0.00    +0.003 C 
ATOM     15  C   UNL     1      29.754 -23.272 -15.135  0.00  0.00    +0.099 C 
ATOM     16  H   UNL     1      31.792 -22.769 -18.346  0.00  0.00    +0.155 HD
ENDROOT
BRANCH   2  18
ATOM     17 CL   UNL     1      37.161 -20.812 -19.884  0.00  0.00    -0.082 Cl
ATOM     18  C   UNL     1      33.368 -21.672 -18.949  0.00  0.00    +0.051 C 
ATOM     19  C   UNL     1      34.763 -21.651 -18.961  0.00  0.00    +0.026 C 
ATOM     20  C   UNL     1      32.651 -20.877 -19.845  0.00  0.00    +0.015 C 
ATOM     21  C   UNL     1      35.441 -20.837 -19.868  0.00  0.00    +0.059 C 
ATOM     22  C   UNL     1      33.330 -20.063 -20.752  0.00  0.00    +0.002 C 
ATOM     23  C   UNL     1      34.724 -20.043 -20.764  0.00  0.00    +0.011 C 
ENDBRANCH   2  18
BRANCH  13  25
ATOM     24  O   UNL     1      38.659 -24.300 -12.764  0.00  0.00    -0.245 OA
ATOM     25  C   UNL     1      38.005 -24.638 -13.756  0.00  0.00    +0.338 C 
BRANCH  25  26
ATOM     26  O   UNL     1      38.577 -25.271 -14.817  0.00  0.00    -0.477 OA
ATOM     27  H   UNL     1      39.381 -24.950 -15.176  0.00  0.00    +0.295 HD
ENDBRANCH  25  26
ENDBRANCH  13  25
TORSDOF 3
ENDMDL
MODEL 2
REMARK VINA RESULT:     -11.8      1.149      1.717
REMARK  Name = 24748573
REMARK  3 active torsions:
REMARK  status: ('A' for Active; 'I' for Inactive)
REMARK    1  A    between atoms: N_2  and  C_18
REMARK    2  A    between atoms: C_13  and  C_25
REMARK    3  A    between atoms: C_25  and  O_26
REMARK                            x       y       z     vdW  Elec       q    Type
REMARK                         _______ _______ _______ _____ _____    ______ ____
ROOT
ATOM      1  N   UNL     1      34.826 -23.335 -15.880  0.00  0.00    -0.391 NA
ATOM      2  N   UNL     1      33.475 -22.744 -17.708  0.00  0.00    -0.288 N 
ATOM      3  N   UNL     1      30.113 -23.706 -14.066  0.00  0.00    -0.243 NA
ATOM      4  C   UNL     1      33.880 -23.936 -13.739  0.00  0.00    +0.098 C 
ATOM      5  C   UNL     1      32.564 -23.733 -14.268  0.00  0.00    +0.011 C 
ATOM      6  C   UNL     1      32.419 -23.330 -15.608  0.00  0.00    +0.044 C 
ATOM      7  C   UNL     1      34.977 -23.719 -14.604  0.00  0.00    +0.119 C 
ATOM      8  C   UNL     1      33.575 -23.150 -16.353  0.00  0.00    +0.183 C 
ATOM      9  C   UNL     1      34.147 -24.341 -12.408  0.00  0.00    -0.015 C 
ATOM     10  C   UNL     1      36.270 -23.909 -14.121  0.00  0.00    +0.035 C 
ATOM     11  C   UNL     1      31.148 -23.120 -16.160  0.00  0.00    +0.024 C 
ATOM     12  C   UNL     1      31.356 -23.899 -13.562  0.00  0.00    +0.095 C 
ATOM     13  C   UNL     1      36.514 -24.308 -12.808  0.00  0.00    +0.077 C 
ATOM     14  C   UNL     1      35.450 -24.524 -11.948  0.00  0.00    +0.003 C 
ATOM     15  C   UNL     1      30.043 -23.321 -15.355  0.00  0.00    +0.099 C 
ATOM     16  H   UNL     1      32.653 -23.051 -18.155  0.00  0.00    +0.155 HD
ENDROOT
BRANCH   2  18
ATOM     17 CL   UNL     1      33.960 -19.540 -21.677  0.00  0.00    -0.082 Cl
ATOM     18  C   UNL     1      34.320 -21.988 -18.535  0.00  0.00    +0.051 C 
ATOM     19  C   UNL     1      33.783 -21.230 -19.575  0.00  0.00    +0.026 C 
ATOM     20  C   UNL     1      35.698 -21.993 -18.314  0.00  0.00    +0.015 C 
ATOM     21  C   UNL     1      34.622 -20.476 -20.395  0.00  0.00    +0.059 C 
ATOM     22  C   UNL     1      36.537 -21.239 -19.134  0.00  0.00    +0.002 C 
ATOM     23  C   UNL     1      35.999 -20.481 -20.174  0.00  0.00    +0.011 C 
ENDBRANCH   2  18
BRANCH  13  25
ATOM     24  O   UNL     1      38.868 -24.640 -13.068  0.00  0.00    -0.245 OA
ATOM     25  C   UNL     1      37.878 -24.493 -12.343  0.00  0.00    +0.338 C 
BRANCH  25  26
ATOM     26  O   UNL     1      37.972 -24.488 -10.985  0.00  0.00    -0.477 OA
ATOM     27  H   UNL     1      37.723 -25.248 -10.496  0.00  0.00    +0.295 HD
ENDBRANCH  25  26
ENDBRANCH  13  25
TORSDOF 3
ENDMDL
MODEL 3
REMARK VINA RESULT:     -10.4      3.744      7.034
REMARK  Name = 24748573
REMARK  3 active torsions:
REMARK  status: ('A' for Active; 'I' for Inactive)
REMARK    1  A    between atoms: N_2  and  C_18
REMARK    2  A    between atoms: C_13  and  C_25
REMARK    3  A    between atoms: C_25  and  O_26
REMARK                            x       y       z     vdW  Elec       q    Type
REMARK                         _______ _______ _______ _____ _____    ______ ____
ROOT
ATOM      1  N   UNL     1      33.643 -22.953 -16.948  0.00  0.00    -0.391 NA
ATOM      2  N   UNL     1      33.488 -24.293 -15.025  0.00  0.00    -0.288 N 
ATOM      3  N   UNL     1      38.396 -23.126 -15.209  0.00  0.00    -0.243 NA
ATOM      4  C   UNL     1      35.747 -22.010 -17.676  0.00  0.00    +0.098 C 
ATOM      5  C   UNL     1      36.404 -22.628 -16.563  0.00  0.00    +0.011 C 
ATOM      6  C   UNL     1      35.648 -23.401 -15.663  0.00  0.00    +0.044 C 
ATOM      7  C   UNL     1      34.354 -22.214 -17.813  0.00  0.00    +0.119 C 
ATOM      8  C   UNL     1      34.288 -23.524 -15.908  0.00  0.00    +0.183 C 
ATOM      9  C   UNL     1      36.404 -21.212 -18.644  0.00  0.00    -0.015 C 
ATOM     10  C   UNL     1      33.685 -21.629 -18.885  0.00  0.00    +0.035 C 
ATOM     11  C   UNL     1      36.256 -24.020 -14.563  0.00  0.00    +0.024 C 
ATOM     12  C   UNL     1      37.777 -22.540 -16.263  0.00  0.00    +0.095 C 
ATOM     13  C   UNL     1      34.348 -20.846 -19.828  0.00  0.00    +0.077 C 
ATOM     14  C   UNL     1      35.712 -20.637 -19.708  0.00  0.00    +0.003 C 
ATOM     15  C   UNL     1      37.616 -23.852 -14.385  0.00  0.00    +0.099 C 
ATOM     16  H   UNL     1      33.972 -25.035 -14.595  0.00  0.00    +0.155 HD
ENDROOT
BRANCH   2  18
ATOM     17 CL   UNL     1      28.779 -22.561 -16.065  0.00  0.00    -0.082 Cl
ATOM     18  C   UNL     1      32.140 -24.202 -14.647  0.00  0.00    +0.051 C 
ATOM     19  C   UNL     1      31.236 -23.505 -15.449  0.00  0.00    +0.026 C 
ATOM     20  C   UNL     1      31.703 -24.811 -13.470  0.00  0.00    +0.015 C 
ATOM     21  C   UNL     1      29.895 -23.419 -15.075  0.00  0.00    +0.059 C 
ATOM     22  C   UNL     1      30.362 -24.724 -13.096  0.00  0.00    +0.002 C 
ATOM     23  C   UNL     1      29.458 -24.028 -13.899  0.00  0.00    +0.011 C 
ENDBRANCH   2  18
BRANCH  13  25
ATOM     24  O   UNL     1      34.116 -19.665 -21.895  0.00  0.00    -0.245 OA
ATOM     25  C   UNL     1      33.612 -20.251 -20.931  0.00  0.00    +0.338 C 
BRANCH  25  26
ATOM     26  O   UNL     1      32.265 -20.406 -20.803  0.00  0.00    -0.477 OA
ATOM     27  H   UNL     1      31.858 -21.205 -21.076  0.00  0.00    +0.295 HD
ENDBRANCH  25  26
ENDBRANCH  13  25
TORSDOF 3
ENDMDL
MODEL 4
REMARK VINA RESULT:     -10.4      2.806      6.118
REMARK  Name = 24748573
REMARK  3 active torsions:
REMARK  status: ('A' for Active; 'I' for Inactive)
REMARK    1  A    between atoms: N_2  and  C_18
REMARK    2  A    between atoms: C_13  and  C_25
REMARK    3  A    between atoms: C_25  and  O_26
REMARK                            x       y       z     vdW  Elec       q    Type
REMARK                         _______ _______ _______ _____ _____    ______ ____
ROOT
ATOM      1  N   UNL     1      35.049 -23.252 -15.429  0.00  0.00    -0.391 NA
ATOM      2  N   UNL     1      34.935 -24.253 -13.308  0.00  0.00    -0.288 N 
ATOM      3  N   UNL     1      30.101 -24.090 -14.752  0.00  0.00    -0.243 NA
ATOM      4  C   UNL     1      33.067 -22.846 -16.752  0.00  0.00    +0.098 C 
ATOM      5  C   UNL     1      32.261 -23.415 -15.713  0.00  0.00    +0.011 C 
ATOM      6  C   UNL     1      32.885 -23.892 -14.546  0.00  0.00    +0.044 C 
ATOM      7  C   UNL     1      34.465 -22.794 -16.547  0.00  0.00    +0.119 C 
ATOM      8  C   UNL     1      34.266 -23.783 -14.466  0.00  0.00    +0.183 C 
ATOM      9  C   UNL     1      32.550 -22.334 -17.968  0.00  0.00    -0.015 C 
ATOM     10  C   UNL     1      35.277 -22.245 -17.536  0.00  0.00    +0.035 C 
ATOM     11  C   UNL     1      32.130 -24.456 -13.509  0.00  0.00    +0.024 C 
ATOM     12  C   UNL     1      30.860 -23.551 -15.737  0.00  0.00    +0.095 C 
ATOM     13  C   UNL     1      34.751 -21.746 -18.727  0.00  0.00    +0.077 C 
ATOM     14  C   UNL     1      33.383 -21.790 -18.944  0.00  0.00    +0.003 C 
ATOM     15  C   UNL     1      30.759 -24.529 -13.661  0.00  0.00    +0.099 C 
ATOM     16  H   UNL     1      34.396 -24.195 -12.486  0.00  0.00    +0.155 HD
ENDROOT
BRANCH   2  18
ATOM     17 CL   UNL     1      39.728 -24.838 -15.024  0.00  0.00    -0.082 Cl
ATOM     18  C   UNL     1      36.218 -24.785 -13.106  0.00  0.00    +0.051 C 
ATOM     19  C   UNL     1      37.218 -24.574 -14.056  0.00  0.00    +0.026 C 
ATOM     20  C   UNL     1      36.495 -25.522 -11.953  0.00  0.00    +0.015 C 
ATOM     21  C   UNL     1      38.494 -25.099 -13.853  0.00  0.00    +0.059 C 
ATOM     22  C   UNL     1      37.771 -26.047 -11.752  0.00  0.00    +0.002 C 
ATOM     23  C   UNL     1      38.770 -25.835 -12.701  0.00  0.00    +0.011 C 
ENDBRANCH   2  18
BRANCH  13  25
ATOM     24  O   UNL     1      36.855 -21.356 -19.794  0.00  0.00    -0.245 OA
ATOM     25  C   UNL     1      35.633 -21.184 -19.736  0.00  0.00    +0.338 C 
BRANCH  25  26
ATOM     26  O   UNL     1      34.965 -20.423 -20.646  0.00  0.00    -0.477 OA
ATOM     27  H   UNL     1      34.059 -20.223 -20.515  0.00  0.00    +0.295 HD
ENDBRANCH  25  26
ENDBRANCH  13  25
TORSDOF 3
ENDMDL
MODEL 5
REMARK VINA RESULT:     -10.4      3.283      6.129
REMARK  Name = 24748573
REMARK  3 active torsions:
REMARK  status: ('A' for Active; 'I' for Inactive)
REMARK    1  A    between atoms: N_2  and  C_18
REMARK    2  A    between atoms: C_13  and  C_25
REMARK    3  A    between atoms: C_25  and  O_26
REMARK                            x       y       z     vdW  Elec       q    Type
REMARK                         _______ _______ _______ _____ _____    ______ ____
ROOT
ATOM      1  N   UNL     1      33.922 -23.685 -15.383  0.00  0.00    -0.391 NA
ATOM      2  N   UNL     1      32.726 -24.833 -13.720  0.00  0.00    -0.288 N 
ATOM      3  N   UNL     1      37.048 -23.640 -11.400  0.00  0.00    -0.243 NA
ATOM      4  C   UNL     1      36.133 -22.796 -14.977  0.00  0.00    +0.098 C 
ATOM      5  C   UNL     1      36.083 -23.296 -13.635  0.00  0.00    +0.011 C 
ATOM      6  C   UNL     1      34.935 -23.985 -13.203  0.00  0.00    +0.044 C 
ATOM      7  C   UNL     1      35.011 -23.026 -15.806  0.00  0.00    +0.119 C 
ATOM      8  C   UNL     1      33.901 -24.145 -14.114  0.00  0.00    +0.183 C 
ATOM      9  C   UNL     1      37.233 -22.089 -15.521  0.00  0.00    -0.015 C 
ATOM     10  C   UNL     1      35.027 -22.554 -17.117  0.00  0.00    +0.035 C 
ATOM     11  C   UNL     1      34.850 -24.489 -11.898  0.00  0.00    +0.024 C 
ATOM     12  C   UNL     1      37.098 -23.165 -12.668  0.00  0.00    +0.095 C 
ATOM     13  C   UNL     1      36.119 -21.860 -17.635  0.00  0.00    +0.077 C 
ATOM     14  C   UNL     1      37.225 -21.627 -16.835  0.00  0.00    +0.003 C 
ATOM     15  C   UNL     1      35.922 -24.291 -11.048  0.00  0.00    +0.099 C 
ATOM     16  H   UNL     1      32.881 -25.525 -13.036  0.00  0.00    +0.155 HD
ENDROOT
BRANCH   2  18
ATOM     17 CL   UNL     1      29.188 -22.330 -16.453  0.00  0.00    -0.082 Cl
ATOM     18  C   UNL     1      31.384 -24.719 -14.115  0.00  0.00    +0.051 C 
ATOM     19  C   UNL     1      30.998 -23.698 -14.984  0.00  0.00    +0.026 C 
ATOM     20  C   UNL     1      30.438 -25.629 -13.643  0.00  0.00    +0.015 C 
ATOM     21  C   UNL     1      29.665 -23.588 -15.381  0.00  0.00    +0.059 C 
ATOM     22  C   UNL     1      29.105 -25.517 -14.039  0.00  0.00    +0.002 C 
ATOM     23  C   UNL     1      28.719 -24.497 -14.909  0.00  0.00    +0.011 C 
ENDBRANCH   2  18
BRANCH  13  25
ATOM     24  O   UNL     1      36.631 -20.346 -19.415  0.00  0.00    -0.245 OA
ATOM     25  C   UNL     1      36.096 -21.383 -19.008  0.00  0.00    +0.338 C 
BRANCH  25  26
ATOM     26  O   UNL     1      35.405 -22.213 -19.837  0.00  0.00    -0.477 OA
ATOM     27  H   UNL     1      35.866 -22.824 -20.378  0.00  0.00    +0.295 HD
ENDBRANCH  25  26
ENDBRANCH  13  25
TORSDOF 3
ENDMDL
MODEL 6
REMARK VINA RESULT:      -9.9      2.889      5.405
REMARK  Name = 24748573
REMARK  3 active torsions:
REMARK  status: ('A' for Active; 'I' for Inactive)
REMARK    1  A    between atoms: N_2  and  C_18
REMARK    2  A    between atoms: C_13  and  C_25
REMARK    3  A    between atoms: C_25  and  O_26
REMARK                            x       y       z     vdW  Elec       q    Type
REMARK                         _______ _______ _______ _____ _____    ______ ____
ROOT
ATOM      1  N   UNL     1      33.623 -23.350 -14.762  0.00  0.00    -0.391 NA
ATOM      2  N   UNL     1      31.942 -22.676 -16.257  0.00  0.00    -0.288 N 
ATOM      3  N   UNL     1      36.187 -21.828 -18.855  0.00  0.00    -0.243 NA
ATOM      4  C   UNL     1      35.967 -23.225 -15.341  0.00  0.00    +0.098 C 
ATOM      5  C   UNL     1      35.617 -22.695 -16.625  0.00  0.00    +0.011 C 
ATOM      6  C   UNL     1      34.260 -22.507 -16.942  0.00  0.00    +0.044 C 
ATOM      7  C   UNL     1      34.914 -23.535 -14.449  0.00  0.00    +0.119 C 
ATOM      8  C   UNL     1      33.322 -22.849 -15.979  0.00  0.00    +0.183 C 
ATOM      9  C   UNL     1      37.297 -23.457 -14.912  0.00  0.00    -0.015 C 
ATOM     10  C   UNL     1      35.220 -24.050 -13.192  0.00  0.00    +0.035 C 
ATOM     11  C   UNL     1      33.879 -21.991 -18.188  0.00  0.00    +0.024 C 
ATOM     12  C   UNL     1      36.522 -22.329 -17.641  0.00  0.00    +0.095 C 
ATOM     13  C   UNL     1      36.535 -24.272 -12.787  0.00  0.00    +0.077 C 
ATOM     14  C   UNL     1      37.577 -23.975 -13.650  0.00  0.00    +0.003 C 
ATOM     15  C   UNL     1      34.871 -21.671 -19.096  0.00  0.00    +0.099 C 
ATOM     16  H   UNL     1      31.752 -21.935 -16.877  0.00  0.00    +0.155 HD
ENDROOT
BRANCH   2  18
ATOM     17 CL   UNL     1      26.888 -22.603 -15.420  0.00  0.00    -0.082 Cl
ATOM     18  C   UNL     1      30.795 -23.357 -15.821  0.00  0.00    +0.051 C 
ATOM     19  C   UNL     1      29.556 -22.715 -15.833  0.00  0.00    +0.026 C 
ATOM     20  C   UNL     1      30.894 -24.676 -15.377  0.00  0.00    +0.015 C 
ATOM     21  C   UNL     1      28.416 -23.393 -15.403  0.00  0.00    +0.059 C 
ATOM     22  C   UNL     1      29.753 -25.353 -14.946  0.00  0.00    +0.002 C 
ATOM     23  C   UNL     1      28.514 -24.712 -14.960  0.00  0.00    +0.011 C 
ENDBRANCH   2  18
BRANCH  13  25
ATOM     24  O   UNL     1      37.302 -24.186 -10.523  0.00  0.00    -0.245 OA
ATOM     25  C   UNL     1      36.811 -24.814 -11.467  0.00  0.00    +0.338 C 
BRANCH  25  26
ATOM     26  O   UNL     1      36.465 -26.126 -11.359  0.00  0.00    -0.477 OA
ATOM     27  H   UNL     1      36.426 -26.665 -12.125  0.00  0.00    +0.295 HD
ENDBRANCH  25  26
ENDBRANCH  13  25
TORSDOF 3
ENDMDL
MODEL 7
REMARK VINA RESULT:      -9.8      3.428      6.616
REMARK  Name = 24748573
REMARK  3 active torsions:
REMARK  status: ('A' for Active; 'I' for Inactive)
REMARK    1  A    between atoms: N_2  and  C_18
REMARK    2  A    between atoms: C_13  and  C_25
REMARK    3  A    between atoms: C_25  and  O_26
REMARK                            x       y       z     vdW  Elec       q    Type
REMARK                         _______ _______ _______ _____ _____    ______ ____
ROOT
ATOM      1  N   UNL     1      34.143 -24.004 -15.159  0.00  0.00    -0.391 NA
ATOM      2  N   UNL     1      36.396 -23.703 -15.749  0.00  0.00    -0.288 N 
ATOM      3  N   UNL     1      33.923 -21.214 -19.380  0.00  0.00    -0.243 NA
ATOM      4  C   UNL     1      32.346 -23.065 -16.475  0.00  0.00    +0.098 C 
ATOM      5  C   UNL     1      33.306 -22.507 -17.381  0.00  0.00    +0.011 C 
ATOM      6  C   UNL     1      34.676 -22.718 -17.142  0.00  0.00    +0.044 C 
ATOM      7  C   UNL     1      32.833 -23.809 -15.376  0.00  0.00    +0.119 C 
ATOM      8  C   UNL     1      35.026 -23.467 -16.028  0.00  0.00    +0.183 C 
ATOM      9  C   UNL     1      30.944 -22.918 -16.615  0.00  0.00    -0.015 C 
ATOM     10  C   UNL     1      31.927 -24.366 -14.478  0.00  0.00    +0.035 C 
ATOM     11  C   UNL     1      35.644 -22.187 -18.005  0.00  0.00    +0.024 C 
ATOM     12  C   UNL     1      33.012 -21.741 -18.525  0.00  0.00    +0.095 C 
ATOM     13  C   UNL     1      30.550 -24.211 -14.631  0.00  0.00    +0.077 C 
ATOM     14  C   UNL     1      30.057 -23.485 -15.702  0.00  0.00    +0.003 C 
ATOM     15  C   UNL     1      35.219 -21.453 -19.096  0.00  0.00    +0.099 C 
ATOM     16  H   UNL     1      36.965 -23.735 -16.553  0.00  0.00    +0.155 HD
ENDROOT
BRANCH   2  18
ATOM     17 CL   UNL     1      40.270 -25.991 -13.298  0.00  0.00    -0.082 Cl
ATOM     18  C   UNL     1      37.098 -23.901 -14.551  0.00  0.00    +0.051 C 
ATOM     19  C   UNL     1      38.205 -24.751 -14.523  0.00  0.00    +0.026 C 
ATOM     20  C   UNL     1      36.693 -23.245 -13.388  0.00  0.00    +0.015 C 
ATOM     21  C   UNL     1      38.905 -24.944 -13.333  0.00  0.00    +0.059 C 
ATOM     22  C   UNL     1      37.394 -23.439 -12.198  0.00  0.00    +0.002 C 
ATOM     23  C   UNL     1      38.500 -24.288 -12.171  0.00  0.00    +0.011 C 
ENDBRANCH   2  18
BRANCH  13  25
ATOM     24  O   UNL     1      28.497 -25.214 -13.920  0.00  0.00    -0.245 OA
ATOM     25  C   UNL     1      29.637 -24.807 -13.669  0.00  0.00    +0.338 C 
BRANCH  25  26
ATOM     26  O   UNL     1      30.173 -24.883 -12.420  0.00  0.00    -0.477 OA
ATOM     27  H   UNL     1      30.184 -25.702 -11.964  0.00  0.00    +0.295 HD
ENDBRANCH  25  26
ENDBRANCH  13  25
TORSDOF 3
ENDMDL
MODEL 8
REMARK VINA RESULT:      -9.5      3.109      4.912
REMARK  Name = 24748573
REMARK  3 active torsions:
REMARK  status: ('A' for Active; 'I' for Inactive)
REMARK    1  A    between atoms: N_2  and  C_18
REMARK    2  A    between atoms: C_13  and  C_25
REMARK    3  A    between atoms: C_25  and  O_26
REMARK                            x       y       z     vdW  Elec       q    Type
REMARK                         _______ _______ _______ _____ _____    ______ ____
ROOT
ATOM      1  N   UNL     1      34.026 -22.838 -15.925  0.00  0.00    -0.391 NA
ATOM      2  N   UNL     1      36.070 -22.111 -16.825  0.00  0.00    -0.288 N 
ATOM      3  N   UNL     1      37.492 -25.429 -13.296  0.00  0.00    -0.243 NA
ATOM      4  C   UNL     1      33.927 -24.472 -14.146  0.00  0.00    +0.098 C 
ATOM      5  C   UNL     1      35.358 -24.546 -14.141  0.00  0.00    +0.011 C 
ATOM      6  C   UNL     1      36.089 -23.752 -15.043  0.00  0.00    +0.044 C 
ATOM      7  C   UNL     1      33.318 -23.591 -15.070  0.00  0.00    +0.119 C 
ATOM      8  C   UNL     1      35.372 -22.928 -15.899  0.00  0.00    +0.183 C 
ATOM      9  C   UNL     1      33.089 -25.222 -13.285  0.00  0.00    -0.015 C 
ATOM     10  C   UNL     1      31.929 -23.494 -15.100  0.00  0.00    +0.035 C 
ATOM     11  C   UNL     1      37.489 -23.798 -15.068  0.00  0.00    +0.024 C 
ATOM     12  C   UNL     1      36.138 -25.361 -13.298  0.00  0.00    +0.095 C 
ATOM     13  C   UNL     1      31.120 -24.240 -14.245  0.00  0.00    +0.077 C 
ATOM     14  C   UNL     1      31.701 -25.108 -13.335  0.00  0.00    +0.003 C 
ATOM     15  C   UNL     1      38.133 -24.643 -14.183  0.00  0.00    +0.099 C 
ATOM     16  H   UNL     1      36.960 -21.830 -16.514  0.00  0.00    +0.155 HD
ENDROOT
BRANCH   2  18
ATOM     17 CL   UNL     1      37.369 -19.260 -20.879  0.00  0.00    -0.082 Cl
ATOM     18  C   UNL     1      35.735 -21.626 -18.098  0.00  0.00    +0.051 C 
ATOM     19  C   UNL     1      36.615 -20.781 -18.776  0.00  0.00    +0.026 C 
ATOM     20  C   UNL     1      34.525 -21.991 -18.689  0.00  0.00    +0.015 C 
ATOM     21  C   UNL     1      36.285 -20.302 -20.043  0.00  0.00    +0.059 C 
ATOM     22  C   UNL     1      34.195 -21.511 -19.956  0.00  0.00    +0.002 C 
ATOM     23  C   UNL     1      35.075 -20.667 -20.633  0.00  0.00    +0.011 C 
ENDBRANCH   2  18
BRANCH  13  25
ATOM     24  O   UNL     1      29.061 -23.103 -14.680  0.00  0.00    -0.245 OA
ATOM     25  C   UNL     1      29.674 -24.111 -14.310  0.00  0.00    +0.338 C 
BRANCH  25  26
ATOM     26  O   UNL     1      29.031 -25.243 -13.913  0.00  0.00    -0.477 OA
ATOM     27  H   UNL     1      28.950 -25.967 -14.503  0.00  0.00    +0.295 HD
ENDBRANCH  25  26
ENDBRANCH  13  25
TORSDOF 3
ENDMDL
MODEL 9
REMARK VINA RESULT:      -9.2      2.985      4.944
REMARK  Name = 24748573
REMARK  3 active torsions:
REMARK  status: ('A' for Active; 'I' for Inactive)
REMARK    1  A    between atoms: N_2  and  C_18
REMARK    2  A    between atoms: C_13  and  C_25
REMARK    3  A    between atoms: C_25  and  O_26
REMARK                            x       y       z     vdW  Elec       q    Type
REMARK                         _______ _______ _______ _____ _____    ______ ____
ROOT
ATOM      1  N   UNL     1      34.861 -22.609 -15.754  0.00  0.00    -0.391 NA
ATOM      2  N   UNL     1      36.726 -21.939 -17.016  0.00  0.00    -0.288 N 
ATOM      3  N   UNL     1      38.694 -25.226 -13.728  0.00  0.00    -0.243 NA
ATOM      4  C   UNL     1      35.051 -24.210 -13.953  0.00  0.00    +0.098 C 
ATOM      5  C   UNL     1      36.459 -24.314 -14.200  0.00  0.00    +0.011 C 
ATOM      6  C   UNL     1      37.032 -23.550 -15.232  0.00  0.00    +0.044 C 
ATOM      7  C   UNL     1      34.304 -23.333 -14.772  0.00  0.00    +0.119 C 
ATOM      8  C   UNL     1      36.190 -22.726 -15.965  0.00  0.00    +0.183 C 
ATOM      9  C   UNL     1      34.367 -24.929 -12.943  0.00  0.00    -0.015 C 
ATOM     10  C   UNL     1      32.933 -23.207 -14.558  0.00  0.00    +0.035 C 
ATOM     11  C   UNL     1      38.405 -23.626 -15.503  0.00  0.00    +0.024 C 
ATOM     12  C   UNL     1      37.362 -25.130 -13.491  0.00  0.00    +0.095 C 
ATOM     13  C   UNL     1      32.276 -23.923 -13.559  0.00  0.00    +0.077 C 
ATOM     14  C   UNL     1      32.994 -24.787 -12.749  0.00  0.00    +0.003 C 
ATOM     15  C   UNL     1      39.180 -24.469 -14.730  0.00  0.00    +0.099 C 
ATOM     16  H   UNL     1      37.662 -21.671 -16.873  0.00  0.00    +0.155 HD
ENDROOT
BRANCH   2  18
ATOM     17 CL   UNL     1      37.239 -18.985 -21.170  0.00  0.00    -0.082 Cl
ATOM     18  C   UNL     1      36.180 -21.469 -18.219  0.00  0.00    +0.051 C 
ATOM     19  C   UNL     1      36.896 -20.564 -19.003  0.00  0.00    +0.026 C 
ATOM     20  C   UNL     1      34.922 -21.907 -18.633  0.00  0.00    +0.015 C 
ATOM     21  C   UNL     1      36.355 -20.099 -20.202  0.00  0.00    +0.059 C 
ATOM     22  C   UNL     1      34.381 -21.442 -19.832  0.00  0.00    +0.002 C 
ATOM     23  C   UNL     1      35.098 -20.539 -20.616  0.00  0.00    +0.011 C 
ENDBRANCH   2  18
BRANCH  13  25
ATOM     24  O   UNL     1      30.118 -22.991 -14.004  0.00  0.00    -0.245 OA
ATOM     25  C   UNL     1      30.843 -23.765 -13.370  0.00  0.00    +0.338 C 
BRANCH  25  26
ATOM     26  O   UNL     1      30.353 -24.579 -12.395  0.00  0.00    -0.477 OA
ATOM     27  H   UNL     1      30.726 -24.557 -11.535  0.00  0.00    +0.295 HD
ENDBRANCH  25  26
ENDBRANCH  13  25
TORSDOF 3
ENDMDL
