MODEL 1
REMARK VINA RESULT:     -11.8      0.000      0.000
REMARK  Name = 9889200
REMARK  5 active torsions:
REMARK  status: ('A' for Active; 'I' for Inactive)
REMARK    1  A    between atoms: C_1  and  C_21
REMARK    2  A    between atoms: C_4  and  O_7
REMARK    3  A    between atoms: O_7  and  C_8
REMARK    4  A    between atoms: C_8  and  C_12
REMARK    5  A    between atoms: C_21  and  C_26
REMARK                            x       y       z     vdW  Elec       q    Type
REMARK                         _______ _______ _______ _____ _____    ______ ____
ROOT
ATOM      1  C   UNL     1      35.420 -19.918 -20.650  0.00  0.00    -0.021 C 
ATOM      2  C   UNL     1      36.377 -20.641 -19.939  0.00  0.00    -0.001 C 
ATOM      3  C   UNL     1      34.065 -20.201 -20.482  0.00  0.00    -0.001 C 
ATOM      4  C   UNL     1      34.629 -21.924 -18.901  0.00  0.00    +0.139 C 
ATOM      5  C   UNL     1      35.980 -21.649 -19.060  0.00  0.00    +0.037 C 
ATOM      6  C   UNL     1      33.667 -21.209 -19.603  0.00  0.00    +0.037 C 
ENDROOT
BRANCH   4   7
ATOM      7  O   UNL     1      34.237 -22.916 -18.034  0.00  0.00    -0.466 OA
BRANCH   7   8
ATOM      8  C   UNL     1      34.601 -22.769 -16.678  0.00  0.00    +0.279 C 
BRANCH   8  12
ATOM      9  O   UNL     1      33.064 -24.730 -12.538  0.00  0.00    -0.274 OA
ATOM     10  N   UNL     1      33.831 -23.781 -14.536  0.00  0.00    -0.232 N 
ATOM     11  N   UNL     1      32.289 -23.295 -16.280  0.00  0.00    -0.391 NA
ATOM     12  C   UNL     1      33.495 -23.306 -15.802  0.00  0.00    +0.210 C 
ATOM     13  C   UNL     1      31.475 -24.289 -14.195  0.00  0.00    +0.151 C 
ATOM     14  C   UNL     1      31.251 -23.789 -15.481  0.00  0.00    +0.123 C 
ATOM     15  C   UNL     1      32.856 -24.293 -13.667  0.00  0.00    +0.241 C 
ATOM     16  C   UNL     1      35.217 -23.759 -14.071  0.00  0.00    +0.122 C 
ATOM     17  C   UNL     1      30.416 -24.775 -13.422  0.00  0.00    -0.010 C 
ATOM     18  C   UNL     1      29.946 -23.783 -15.985  0.00  0.00    +0.028 C 
ATOM     19  C   UNL     1      29.121 -24.762 -13.937  0.00  0.00    -0.004 C 
ATOM     20  C   UNL     1      28.885 -24.266 -15.218  0.00  0.00    +0.002 C 
ENDBRANCH   8  12
ENDBRANCH   7   8
ENDBRANCH   4   7
BRANCH   1  21
ATOM     21  C   UNL     1      35.845 -18.841 -21.590  0.00  0.00    +0.047 C 
BRANCH  21  26
ATOM     22  S   UNL     1      34.519 -18.468 -23.983  0.00  0.00    -0.048 S 
ATOM     23  O   UNL     1      34.979 -16.016 -21.039  0.00  0.00    -0.274 OA
ATOM     24  O   UNL     1      34.521 -16.409 -25.618  0.00  0.00    -0.263 OA
ATOM     25  N   UNL     1      34.751 -16.007 -23.341  0.00  0.00    -0.246 N 
ATOM     26  C   UNL     1      34.655 -18.108 -22.205  0.00  0.00    +0.137 C 
ATOM     27  C   UNL     1      34.816 -16.607 -22.100  0.00  0.00    +0.239 C 
ATOM     28  C   UNL     1      34.595 -16.785 -24.457  0.00  0.00    +0.279 C 
ATOM     29  H   UNL     1      34.815 -15.028 -23.421  0.00  0.00    +0.158 HD
ENDBRANCH  21  26
ENDBRANCH   1  21
TORSDOF 5
ENDMDL
MODEL 2
REMARK VINA RESULT:     -11.8      1.157      3.283
REMARK  Name = 9889200
REMARK  5 active torsions:
REMARK  status: ('A' for Active; 'I' for Inactive)
REMARK    1  A    between atoms: C_1  and  C_21
REMARK    2  A    between atoms: C_4  and  O_7
REMARK    3  A    between atoms: O_7  and  C_8
REMARK    4  A    between atoms: C_8  and  C_12
REMARK    5  A    between atoms: C_21  and  C_26
REMARK                            x       y       z     vdW  Elec       q    Type
REMARK                         _______ _______ _______ _____ _____    ______ ____
ROOT
ATOM      1  C   UNL     1      35.392 -19.820 -20.612  0.00  0.00    -0.021 C 
ATOM      2  C   UNL     1      34.038 -20.139 -20.519  0.00  0.00    -0.001 C 
ATOM      3  C   UNL     1      36.338 -20.590 -19.936  0.00  0.00    -0.001 C 
ATOM      4  C   UNL     1      34.578 -21.989 -19.081  0.00  0.00    +0.139 C 
ATOM      5  C   UNL     1      33.628 -21.229 -19.750  0.00  0.00    +0.037 C 
ATOM      6  C   UNL     1      35.930 -21.680 -19.168  0.00  0.00    +0.037 C 
ENDROOT
BRANCH   4   7
ATOM      7  O   UNL     1      34.175 -23.063 -18.324  0.00  0.00    -0.466 OA
BRANCH   7   8
ATOM      8  C   UNL     1      33.260 -22.811 -17.281  0.00  0.00    +0.279 C 
BRANCH   8  12
ATOM      9  O   UNL     1      32.729 -24.141 -12.666  0.00  0.00    -0.274 OA
ATOM     10  N   UNL     1      32.963 -23.491 -14.902  0.00  0.00    -0.232 N 
ATOM     11  N   UNL     1      35.102 -23.579 -15.939  0.00  0.00    -0.391 NA
ATOM     12  C   UNL     1      33.831 -23.323 -15.980  0.00  0.00    +0.210 C 
ATOM     13  C   UNL     1      34.869 -24.260 -13.599  0.00  0.00    +0.151 C 
ATOM     14  C   UNL     1      35.647 -24.054 -14.740  0.00  0.00    +0.123 C 
ATOM     15  C   UNL     1      33.422 -23.964 -13.663  0.00  0.00    +0.241 C 
ATOM     16  C   UNL     1      31.540 -23.179 -15.030  0.00  0.00    +0.122 C 
ATOM     17  C   UNL     1      35.445 -24.737 -12.416  0.00  0.00    -0.010 C 
ATOM     18  C   UNL     1      37.017 -24.334 -14.683  0.00  0.00    +0.028 C 
ATOM     19  C   UNL     1      36.811 -25.012 -12.374  0.00  0.00    -0.004 C 
ATOM     20  C   UNL     1      37.597 -24.810 -13.507  0.00  0.00    +0.002 C 
ENDBRANCH   8  12
ENDBRANCH   7   8
ENDBRANCH   4   7
BRANCH   1  21
ATOM     21  C   UNL     1      35.828 -18.655 -21.433  0.00  0.00    +0.047 C 
BRANCH  21  26
ATOM     22  S   UNL     1      34.597 -18.386 -23.890  0.00  0.00    -0.048 S 
ATOM     23  O   UNL     1      34.902 -15.825 -21.020  0.00  0.00    -0.274 OA
ATOM     24  O   UNL     1      34.640 -16.387 -25.597  0.00  0.00    -0.263 OA
ATOM     25  N   UNL     1      34.770 -15.900 -23.328  0.00  0.00    -0.246 N 
ATOM     26  C   UNL     1      34.655 -17.962 -22.123  0.00  0.00    +0.137 C 
ATOM     27  C   UNL     1      34.791 -16.456 -22.066  0.00  0.00    +0.239 C 
ATOM     28  C   UNL     1      34.671 -16.720 -24.422  0.00  0.00    +0.279 C 
ATOM     29  H   UNL     1      34.824 -14.924 -23.441  0.00  0.00    +0.158 HD
ENDBRANCH  21  26
ENDBRANCH   1  21
TORSDOF 5
ENDMDL
MODEL 3
REMARK VINA RESULT:     -11.8      1.967      4.052
REMARK  Name = 9889200
REMARK  5 active torsions:
REMARK  status: ('A' for Active; 'I' for Inactive)
REMARK    1  A    between atoms: C_1  and  C_21
REMARK    2  A    between atoms: C_4  and  O_7
REMARK    3  A    between atoms: O_7  and  C_8
REMARK    4  A    between atoms: C_8  and  C_12
REMARK    5  A    between atoms: C_21  and  C_26
REMARK                            x       y       z     vdW  Elec       q    Type
REMARK                         _______ _______ _______ _____ _____    ______ ____
ROOT
ATOM      1  C   UNL     1      34.052 -20.422 -20.478  0.00  0.00    -0.021 C 
ATOM      2  C   UNL     1      35.407 -20.631 -20.223  0.00  0.00    -0.001 C 
ATOM      3  C   UNL     1      33.089 -21.032 -19.675  0.00  0.00    -0.001 C 
ATOM      4  C   UNL     1      34.833 -22.056 -18.373  0.00  0.00    +0.139 C 
ATOM      5  C   UNL     1      35.799 -21.453 -19.166  0.00  0.00    +0.037 C 
ATOM      6  C   UNL     1      33.481 -21.853 -18.617  0.00  0.00    +0.037 C 
ENDROOT
BRANCH   4   7
ATOM      7  O   UNL     1      35.220 -22.863 -17.330  0.00  0.00    -0.466 OA
BRANCH   7   8
ATOM      8  C   UNL     1      34.232 -23.214 -16.386  0.00  0.00    +0.279 C 
BRANCH   8  12
ATOM      9  O   UNL     1      34.094 -24.633 -11.769  0.00  0.00    -0.274 OA
ATOM     10  N   UNL     1      34.139 -23.938 -14.004  0.00  0.00    -0.232 N 
ATOM     11  N   UNL     1      36.137 -24.168 -15.272  0.00  0.00    -0.391 NA
ATOM     12  C   UNL     1      34.895 -23.810 -15.166  0.00  0.00    +0.210 C 
ATOM     13  C   UNL     1      36.103 -24.897 -12.934  0.00  0.00    +0.151 C 
ATOM     14  C   UNL     1      36.768 -24.722 -14.150  0.00  0.00    +0.123 C 
ATOM     15  C   UNL     1      34.687 -24.483 -12.832  0.00  0.00    +0.241 C 
ATOM     16  C   UNL     1      32.741 -23.508 -13.967  0.00  0.00    +0.122 C 
ATOM     17  C   UNL     1      36.761 -25.454 -11.832  0.00  0.00    -0.010 C 
ATOM     18  C   UNL     1      38.107 -25.113 -14.250  0.00  0.00    +0.028 C 
ATOM     19  C   UNL     1      38.096 -25.840 -11.947  0.00  0.00    -0.004 C 
ATOM     20  C   UNL     1      38.769 -25.669 -13.155  0.00  0.00    +0.002 C 
ENDBRANCH   8  12
ENDBRANCH   7   8
ENDBRANCH   4   7
BRANCH   1  21
ATOM     21  C   UNL     1      33.633 -19.545 -21.608  0.00  0.00    +0.047 C 
BRANCH  21  26
ATOM     22  S   UNL     1      35.180 -17.265 -21.426  0.00  0.00    -0.048 S 
ATOM     23  O   UNL     1      34.194 -19.303 -24.552  0.00  0.00    -0.274 OA
ATOM     24  O   UNL     1      35.187 -15.099 -22.916  0.00  0.00    -0.263 OA
ATOM     25  N   UNL     1      34.674 -17.128 -23.926  0.00  0.00    -0.246 N 
ATOM     26  C   UNL     1      34.818 -18.839 -22.263  0.00  0.00    +0.137 C 
ATOM     27  C   UNL     1      34.523 -18.481 -23.703  0.00  0.00    +0.239 C 
ATOM     28  C   UNL     1      35.017 -16.309 -22.883  0.00  0.00    +0.279 C 
ATOM     29  H   UNL     1      34.539 -16.756 -24.828  0.00  0.00    +0.158 HD
ENDBRANCH  21  26
ENDBRANCH   1  21
TORSDOF 5
ENDMDL
MODEL 4
REMARK VINA RESULT:     -11.4      2.690     10.329
REMARK  Name = 9889200
REMARK  5 active torsions:
REMARK  status: ('A' for Active; 'I' for Inactive)
REMARK    1  A    between atoms: C_1  and  C_21
REMARK    2  A    between atoms: C_4  and  O_7
REMARK    3  A    between atoms: O_7  and  C_8
REMARK    4  A    between atoms: C_8  and  C_12
REMARK    5  A    between atoms: C_21  and  C_26
REMARK                            x       y       z     vdW  Elec       q    Type
REMARK                         _______ _______ _______ _____ _____    ______ ____
ROOT
ATOM      1  C   UNL     1      33.970 -22.205 -18.656  0.00  0.00    -0.021 C 
ATOM      2  C   UNL     1      35.347 -21.997 -18.717  0.00  0.00    -0.001 C 
ATOM      3  C   UNL     1      33.109 -21.404 -19.406  0.00  0.00    -0.001 C 
ATOM      4  C   UNL     1      35.000 -20.194 -20.269  0.00  0.00    +0.139 C 
ATOM      5  C   UNL     1      35.865 -20.985 -19.527  0.00  0.00    +0.037 C 
ATOM      6  C   UNL     1      33.627 -20.393 -20.217  0.00  0.00    +0.037 C 
ENDROOT
BRANCH   4   7
ATOM      7  O   UNL     1      35.510 -19.199 -21.068  0.00  0.00    -0.466 OA
BRANCH   7   8
ATOM      8  C   UNL     1      35.275 -19.301 -22.456  0.00  0.00    +0.279 C 
BRANCH   8  12
ATOM      9  O   UNL     1      33.038 -16.674 -25.839  0.00  0.00    -0.274 OA
ATOM     10  N   UNL     1      34.120 -17.966 -24.214  0.00  0.00    -0.232 N 
ATOM     11  N   UNL     1      34.935 -16.931 -22.234  0.00  0.00    -0.391 NA
ATOM     12  C   UNL     1      34.756 -17.981 -22.975  0.00  0.00    +0.210 C 
ATOM     13  C   UNL     1      33.807 -15.569 -23.928  0.00  0.00    +0.151 C 
ATOM     14  C   UNL     1      34.461 -15.699 -22.700  0.00  0.00    +0.123 C 
ATOM     15  C   UNL     1      33.612 -16.776 -24.758  0.00  0.00    +0.241 C 
ATOM     16  C   UNL     1      33.958 -19.195 -24.989  0.00  0.00    +0.122 C 
ATOM     17  C   UNL     1      33.345 -14.323 -24.364  0.00  0.00    -0.010 C 
ATOM     18  C   UNL     1      34.648 -14.559 -21.910  0.00  0.00    +0.028 C 
ATOM     19  C   UNL     1      33.537 -13.196 -23.567  0.00  0.00    -0.004 C 
ATOM     20  C   UNL     1      34.189 -13.313 -22.341  0.00  0.00    +0.002 C 
ENDBRANCH   8  12
ENDBRANCH   7   8
ENDBRANCH   4   7
BRANCH   1  21
ATOM     21  C   UNL     1      33.417 -23.285 -17.790  0.00  0.00    +0.047 C 
BRANCH  21  26
ATOM     22  S   UNL     1      34.009 -23.657 -15.118  0.00  0.00    -0.048 S 
ATOM     23  O   UNL     1      30.671 -22.623 -16.757  0.00  0.00    -0.274 OA
ATOM     24  O   UNL     1      32.636 -24.869 -13.231  0.00  0.00    -0.263 OA
ATOM     25  N   UNL     1      31.465 -23.780 -14.918  0.00  0.00    -0.246 N 
ATOM     26  C   UNL     1      33.056 -22.779 -16.395  0.00  0.00    +0.137 C 
ATOM     27  C   UNL     1      31.601 -23.035 -16.072  0.00  0.00    +0.239 C 
ATOM     28  C   UNL     1      32.587 -24.206 -14.257  0.00  0.00    +0.279 C 
ATOM     29  H   UNL     1      30.570 -24.001 -14.573  0.00  0.00    +0.158 HD
ENDBRANCH  21  26
ENDBRANCH   1  21
TORSDOF 5
ENDMDL
MODEL 5
REMARK VINA RESULT:     -11.3      2.769      4.413
REMARK  Name = 9889200
REMARK  5 active torsions:
REMARK  status: ('A' for Active; 'I' for Inactive)
REMARK    1  A    between atoms: C_1  and  C_21
REMARK    2  A    between atoms: C_4  and  O_7
REMARK    3  A    between atoms: O_7  and  C_8
REMARK    4  A    between atoms: C_8  and  C_12
REMARK    5  A    between atoms: C_21  and  C_26
REMARK                            x       y       z     vdW  Elec       q    Type
REMARK                         _______ _______ _______ _____ _____    ______ ____
ROOT
ATOM      1  C   UNL     1      34.937 -18.246 -22.925  0.00  0.00    -0.021 C 
ATOM      2  C   UNL     1      34.104 -19.184 -22.315  0.00  0.00    -0.001 C 
ATOM      3  C   UNL     1      36.198 -17.981 -22.391  0.00  0.00    -0.001 C 
ATOM      4  C   UNL     1      35.789 -19.584 -20.646  0.00  0.00    +0.139 C 
ATOM      5  C   UNL     1      34.532 -19.856 -21.169  0.00  0.00    +0.037 C 
ATOM      6  C   UNL     1      36.626 -18.653 -21.247  0.00  0.00    +0.037 C 
ENDROOT
BRANCH   4   7
ATOM      7  O   UNL     1      36.211 -20.248 -19.519  0.00  0.00    -0.466 OA
BRANCH   7   8
ATOM      8  C   UNL     1      36.119 -21.655 -19.526  0.00  0.00    +0.279 C 
BRANCH   8  12
ATOM      9  O   UNL     1      32.767 -23.180 -16.398  0.00  0.00    -0.274 OA
ATOM     10  N   UNL     1      34.374 -22.438 -17.930  0.00  0.00    -0.232 N 
ATOM     11  N   UNL     1      36.646 -22.245 -17.256  0.00  0.00    -0.391 NA
ATOM     12  C   UNL     1      35.716 -22.138 -18.153  0.00  0.00    +0.210 C 
ATOM     13  C   UNL     1      34.974 -23.020 -15.644  0.00  0.00    +0.151 C 
ATOM     14  C   UNL     1      36.290 -22.690 -15.977  0.00  0.00    +0.123 C 
ATOM     15  C   UNL     1      33.926 -22.893 -16.679  0.00  0.00    +0.241 C 
ATOM     16  C   UNL     1      33.385 -22.291 -18.996  0.00  0.00    +0.122 C 
ATOM     17  C   UNL     1      34.651 -23.463 -14.357  0.00  0.00    -0.010 C 
ATOM     18  C   UNL     1      37.284 -22.810 -14.999  0.00  0.00    +0.028 C 
ATOM     19  C   UNL     1      35.652 -23.578 -13.394  0.00  0.00    -0.004 C 
ATOM     20  C   UNL     1      36.968 -23.251 -13.714  0.00  0.00    +0.002 C 
ENDBRANCH   8  12
ENDBRANCH   7   8
ENDBRANCH   4   7
BRANCH   1  21
ATOM     21  C   UNL     1      34.479 -17.527 -24.148  0.00  0.00    +0.047 C 
BRANCH  21  26
ATOM     22  S   UNL     1      34.462 -15.379 -22.413  0.00  0.00    -0.048 S 
ATOM     23  O   UNL     1      33.782 -15.454 -26.211  0.00  0.00    -0.274 OA
ATOM     24  O   UNL     1      32.769 -13.377 -22.212  0.00  0.00    -0.263 OA
ATOM     25  N   UNL     1      33.158 -14.283 -24.317  0.00  0.00    -0.246 N 
ATOM     26  C   UNL     1      34.773 -16.030 -24.083  0.00  0.00    +0.137 C 
ATOM     27  C   UNL     1      33.865 -15.247 -25.005  0.00  0.00    +0.239 C 
ATOM     28  C   UNL     1      33.319 -14.172 -22.961  0.00  0.00    +0.279 C 
ATOM     29  H   UNL     1      32.546 -13.680 -24.797  0.00  0.00    +0.158 HD
ENDBRANCH  21  26
ENDBRANCH   1  21
TORSDOF 5
ENDMDL
MODEL 6
REMARK VINA RESULT:     -11.2      2.111      3.327
REMARK  Name = 9889200
REMARK  5 active torsions:
REMARK  status: ('A' for Active; 'I' for Inactive)
REMARK    1  A    between atoms: C_1  and  C_21
REMARK    2  A    between atoms: C_4  and  O_7
REMARK    3  A    between atoms: O_7  and  C_8
REMARK    4  A    between atoms: C_8  and  C_12
REMARK    5  A    between atoms: C_21  and  C_26
REMARK                            x       y       z     vdW  Elec       q    Type
REMARK                         _______ _______ _______ _____ _____    ______ ____
ROOT
ATOM      1  C   UNL     1      35.038 -18.536 -22.567  0.00  0.00    -0.021 C 
ATOM      2  C   UNL     1      34.195 -19.383 -21.849  0.00  0.00    -0.001 C 
ATOM      3  C   UNL     1      36.346 -18.320 -22.133  0.00  0.00    -0.001 C 
ATOM      4  C   UNL     1      35.962 -19.793 -20.271  0.00  0.00    +0.139 C 
ATOM      5  C   UNL     1      34.659 -20.014 -20.695  0.00  0.00    +0.037 C 
ATOM      6  C   UNL     1      36.810 -18.952 -20.979  0.00  0.00    +0.037 C 
ENDROOT
BRANCH   4   7
ATOM      7  O   UNL     1      36.420 -20.416 -19.135  0.00  0.00    -0.466 OA
BRANCH   7   8
ATOM      8  C   UNL     1      36.327 -21.823 -19.089  0.00  0.00    +0.279 C 
BRANCH   8  12
ATOM      9  O   UNL     1      36.196 -22.771 -14.352  0.00  0.00    -0.274 OA
ATOM     10  N   UNL     1      36.283 -22.308 -16.645  0.00  0.00    -0.232 N 
ATOM     11  N   UNL     1      34.313 -22.500 -17.964  0.00  0.00    -0.391 NA
ATOM     12  C   UNL     1      35.577 -22.235 -17.844  0.00  0.00    +0.210 C 
ATOM     13  C   UNL     1      34.210 -22.988 -15.566  0.00  0.00    +0.151 C 
ATOM     14  C   UNL     1      33.602 -22.884 -16.819  0.00  0.00    +0.123 C 
ATOM     15  C   UNL     1      35.652 -22.683 -15.449  0.00  0.00    +0.241 C 
ATOM     16  C   UNL     1      37.710 -21.994 -16.595  0.00  0.00    +0.122 C 
ATOM     17  C   UNL     1      33.472 -23.374 -14.442  0.00  0.00    -0.010 C 
ATOM     18  C   UNL     1      32.238 -23.172 -16.935  0.00  0.00    +0.028 C 
ATOM     19  C   UNL     1      32.113 -23.657 -14.572  0.00  0.00    -0.004 C 
ATOM     20  C   UNL     1      31.496 -23.556 -15.817  0.00  0.00    +0.002 C 
ENDBRANCH   8  12
ENDBRANCH   7   8
ENDBRANCH   4   7
BRANCH   1  21
ATOM     21  C   UNL     1      34.542 -17.860 -23.800  0.00  0.00    +0.047 C 
BRANCH  21  26
ATOM     22  S   UNL     1      34.533 -15.608 -22.203  0.00  0.00    -0.048 S 
ATOM     23  O   UNL     1      33.971 -15.902 -26.010  0.00  0.00    -0.274 OA
ATOM     24  O   UNL     1      32.894 -13.552 -22.182  0.00  0.00    -0.263 OA
ATOM     25  N   UNL     1      33.322 -14.598 -24.213  0.00  0.00    -0.246 N 
ATOM     26  C   UNL     1      34.877 -16.370 -23.818  0.00  0.00    +0.137 C 
ATOM     27  C   UNL     1      34.021 -15.622 -24.817  0.00  0.00    +0.239 C 
ATOM     28  C   UNL     1      33.443 -14.406 -22.861  0.00  0.00    +0.279 C 
ATOM     29  H   UNL     1      32.743 -14.009 -24.749  0.00  0.00    +0.158 HD
ENDBRANCH  21  26
ENDBRANCH   1  21
TORSDOF 5
ENDMDL
MODEL 7
REMARK VINA RESULT:     -11.0      3.256     10.310
REMARK  Name = 9889200
REMARK  5 active torsions:
REMARK  status: ('A' for Active; 'I' for Inactive)
REMARK    1  A    between atoms: C_1  and  C_21
REMARK    2  A    between atoms: C_4  and  O_7
REMARK    3  A    between atoms: O_7  and  C_8
REMARK    4  A    between atoms: C_8  and  C_12
REMARK    5  A    between atoms: C_21  and  C_26
REMARK                            x       y       z     vdW  Elec       q    Type
REMARK                         _______ _______ _______ _____ _____    ______ ____
ROOT
ATOM      1  C   UNL     1      34.387 -22.468 -17.890  0.00  0.00    -0.021 C 
ATOM      2  C   UNL     1      35.570 -21.989 -18.451  0.00  0.00    -0.001 C 
ATOM      3  C   UNL     1      33.156 -22.059 -18.403  0.00  0.00    -0.001 C 
ATOM      4  C   UNL     1      34.293 -20.699 -20.028  0.00  0.00    +0.139 C 
ATOM      5  C   UNL     1      35.523 -21.099 -19.525  0.00  0.00    +0.037 C 
ATOM      6  C   UNL     1      33.108 -21.171 -19.477  0.00  0.00    +0.037 C 
ENDROOT
BRANCH   4   7
ATOM      7  O   UNL     1      34.246 -19.824 -21.087  0.00  0.00    -0.466 OA
BRANCH   7   8
ATOM      8  C   UNL     1      35.351 -18.964 -21.263  0.00  0.00    +0.279 C 
BRANCH   8  12
ATOM      9  O   UNL     1      34.034 -17.110 -25.527  0.00  0.00    -0.274 OA
ATOM     10  N   UNL     1      34.675 -18.029 -23.471  0.00  0.00    -0.232 N 
ATOM     11  N   UNL     1      34.864 -16.628 -21.559  0.00  0.00    -0.391 NA
ATOM     12  C   UNL     1      34.942 -17.793 -22.124  0.00  0.00    +0.210 C 
ATOM     13  C   UNL     1      34.194 -15.655 -23.704  0.00  0.00    +0.151 C 
ATOM     14  C   UNL     1      34.486 -15.531 -22.344  0.00  0.00    +0.123 C 
ATOM     15  C   UNL     1      34.289 -16.990 -24.332  0.00  0.00    +0.241 C 
ATOM     16  C   UNL     1      34.787 -19.375 -24.033  0.00  0.00    +0.122 C 
ATOM     17  C   UNL     1      33.819 -14.539 -24.460  0.00  0.00    -0.010 C 
ATOM     18  C   UNL     1      34.398 -14.269 -21.746  0.00  0.00    +0.028 C 
ATOM     19  C   UNL     1      33.735 -13.288 -23.851  0.00  0.00    -0.004 C 
ATOM     20  C   UNL     1      34.024 -13.153 -22.494  0.00  0.00    +0.002 C 
ENDBRANCH   8  12
ENDBRANCH   7   8
ENDBRANCH   4   7
BRANCH   1  21
ATOM     21  C   UNL     1      34.438 -23.417 -16.742  0.00  0.00    +0.047 C 
BRANCH  21  26
ATOM     22  S   UNL     1      36.750 -22.729 -15.398  0.00  0.00    -0.048 S 
ATOM     23  O   UNL     1      33.313 -23.754 -13.974  0.00  0.00    -0.274 OA
ATOM     24  O   UNL     1      37.882 -23.834 -13.297  0.00  0.00    -0.263 OA
ATOM     25  N   UNL     1      35.563 -23.883 -13.453  0.00  0.00    -0.246 N 
ATOM     26  C   UNL     1      34.933 -22.749 -15.461  0.00  0.00    +0.137 C 
ATOM     27  C   UNL     1      34.487 -23.510 -14.232  0.00  0.00    +0.239 C 
ATOM     28  C   UNL     1      36.832 -23.575 -13.868  0.00  0.00    +0.279 C 
ATOM     29  H   UNL     1      35.419 -24.364 -12.606  0.00  0.00    +0.158 HD
ENDBRANCH  21  26
ENDBRANCH   1  21
TORSDOF 5
ENDMDL
MODEL 8
REMARK VINA RESULT:     -10.9      4.443     11.202
REMARK  Name = 9889200
REMARK  5 active torsions:
REMARK  status: ('A' for Active; 'I' for Inactive)
REMARK    1  A    between atoms: C_1  and  C_21
REMARK    2  A    between atoms: C_4  and  O_7
REMARK    3  A    between atoms: O_7  and  C_8
REMARK    4  A    between atoms: C_8  and  C_12
REMARK    5  A    between atoms: C_21  and  C_26
REMARK                            x       y       z     vdW  Elec       q    Type
REMARK                         _______ _______ _______ _____ _____    ______ ____
ROOT
ATOM      1  C   UNL     1      34.851 -18.643 -22.077  0.00  0.00    -0.021 C 
ATOM      2  C   UNL     1      34.595 -18.331 -23.411  0.00  0.00    -0.001 C 
ATOM      3  C   UNL     1      35.082 -17.624 -21.153  0.00  0.00    -0.001 C 
ATOM      4  C   UNL     1      34.803 -15.991 -22.897  0.00  0.00    +0.139 C 
ATOM      5  C   UNL     1      34.572 -16.997 -23.824  0.00  0.00    +0.037 C 
ATOM      6  C   UNL     1      35.058 -16.291 -21.565  0.00  0.00    +0.037 C 
ENDROOT
BRANCH   4   7
ATOM      7  O   UNL     1      34.778 -14.678 -23.302  0.00  0.00    -0.466 OA
BRANCH   7   8
ATOM      8  C   UNL     1      33.564 -14.188 -23.828  0.00  0.00    +0.279 C 
BRANCH   8  12
ATOM      9  O   UNL     1      33.551  -9.360 -23.629  0.00  0.00    -0.274 OA
ATOM     10  N   UNL     1      33.570 -11.698 -23.745  0.00  0.00    -0.232 N 
ATOM     11  N   UNL     1      32.572 -12.974 -22.004  0.00  0.00    -0.391 NA
ATOM     12  C   UNL     1      33.204 -12.896 -23.135  0.00  0.00    +0.210 C 
ATOM     13  C   UNL     1      32.548 -10.529 -21.871  0.00  0.00    +0.151 C 
ATOM     14  C   UNL     1      32.231 -11.785 -21.348  0.00  0.00    +0.123 C 
ATOM     15  C   UNL     1      33.267 -10.459 -23.160  0.00  0.00    +0.241 C 
ATOM     16  C   UNL     1      34.282 -11.695 -25.023  0.00  0.00    +0.122 C 
ATOM     17  C   UNL     1      32.192  -9.360 -21.191  0.00  0.00    -0.010 C 
ATOM     18  C   UNL     1      31.549 -11.857 -20.128  0.00  0.00    +0.028 C 
ATOM     19  C   UNL     1      31.513  -9.446 -19.976  0.00  0.00    -0.004 C 
ATOM     20  C   UNL     1      31.192 -10.694 -19.445  0.00  0.00    +0.002 C 
ENDBRANCH   8  12
ENDBRANCH   7   8
ENDBRANCH   4   7
BRANCH   1  21
ATOM     21  C   UNL     1      34.878 -20.067 -21.637  0.00  0.00    +0.047 C 
BRANCH  21  26
ATOM     22  S   UNL     1      35.419 -21.480 -19.327  0.00  0.00    -0.048 S 
ATOM     23  O   UNL     1      32.041 -20.159 -20.644  0.00  0.00    -0.274 OA
ATOM     24  O   UNL     1      34.134 -23.497 -18.233  0.00  0.00    -0.263 OA
ATOM     25  N   UNL     1      32.902 -21.908 -19.399  0.00  0.00    -0.246 N 
ATOM     26  C   UNL     1      34.414 -20.235 -20.191  0.00  0.00    +0.137 C 
ATOM     27  C   UNL     1      32.989 -20.736 -20.122  0.00  0.00    +0.239 C 
ATOM     28  C   UNL     1      34.043 -22.469 -18.889  0.00  0.00    +0.279 C 
ATOM     29  H   UNL     1      32.027 -22.335 -19.250  0.00  0.00    +0.158 HD
ENDBRANCH  21  26
ENDBRANCH   1  21
TORSDOF 5
ENDMDL
MODEL 9
REMARK VINA RESULT:     -10.5      8.148     12.685
REMARK  Name = 9889200
REMARK  5 active torsions:
REMARK  status: ('A' for Active; 'I' for Inactive)
REMARK    1  A    between atoms: C_1  and  C_21
REMARK    2  A    between atoms: C_4  and  O_7
REMARK    3  A    between atoms: O_7  and  C_8
REMARK    4  A    between atoms: C_8  and  C_12
REMARK    5  A    between atoms: C_21  and  C_26
REMARK                            x       y       z     vdW  Elec       q    Type
REMARK                         _______ _______ _______ _____ _____    ______ ____
ROOT
ATOM      1  C   UNL     1      33.769  -7.740 -23.134  0.00  0.00    -0.021 C 
ATOM      2  C   UNL     1      32.765  -8.621 -22.734  0.00  0.00    -0.001 C 
ATOM      3  C   UNL     1      34.919  -8.228 -23.754  0.00  0.00    -0.001 C 
ATOM      4  C   UNL     1      34.060 -10.467 -23.570  0.00  0.00    +0.139 C 
ATOM      5  C   UNL     1      32.911  -9.992 -22.953  0.00  0.00    +0.037 C 
ATOM      6  C   UNL     1      35.065  -9.598 -23.974  0.00  0.00    +0.037 C 
ENDROOT
BRANCH   4   7
ATOM      7  O   UNL     1      34.203 -11.816 -23.788  0.00  0.00    -0.466 OA
BRANCH   7   8
ATOM      8  C   UNL     1      33.233 -12.668 -23.218  0.00  0.00    +0.279 C 
BRANCH   8  12
ATOM      9  O   UNL     1      34.160 -16.729 -25.667  0.00  0.00    -0.274 OA
ATOM     10  N   UNL     1      33.702 -14.752 -24.500  0.00  0.00    -0.232 N 
ATOM     11  N   UNL     1      34.144 -14.629 -22.166  0.00  0.00    -0.391 NA
ATOM     12  C   UNL     1      33.726 -14.094 -23.272  0.00  0.00    +0.210 C 
ATOM     13  C   UNL     1      34.626 -16.703 -23.376  0.00  0.00    +0.151 C 
ATOM     14  C   UNL     1      34.604 -15.952 -22.199  0.00  0.00    +0.123 C 
ATOM     15  C   UNL     1      34.145 -16.078 -24.626  0.00  0.00    +0.241 C 
ATOM     16  C   UNL     1      33.214 -14.078 -25.702  0.00  0.00    +0.122 C 
ATOM     17  C   UNL     1      35.092 -18.022 -23.375  0.00  0.00    -0.010 C 
ATOM     18  C   UNL     1      35.058 -16.540 -21.013  0.00  0.00    +0.028 C 
ATOM     19  C   UNL     1      35.541 -18.595 -22.186  0.00  0.00    -0.004 C 
ATOM     20  C   UNL     1      35.525 -17.855 -21.006  0.00  0.00    +0.002 C 
ENDBRANCH   8  12
ENDBRANCH   7   8
ENDBRANCH   4   7
BRANCH   1  21
ATOM     21  C   UNL     1      33.614  -6.276 -22.899  0.00  0.00    +0.047 C 
BRANCH  21  26
ATOM     22  S   UNL     1      32.322  -4.383 -24.438  0.00  0.00    -0.048 S 
ATOM     23  O   UNL     1      31.266  -5.913 -21.056  0.00  0.00    -0.274 OA
ATOM     24  O   UNL     1      31.131  -2.148 -23.729  0.00  0.00    -0.263 OA
ATOM     25  N   UNL     1      31.079  -3.941 -22.250  0.00  0.00    -0.246 N 
ATOM     26  C   UNL     1      32.220  -5.775 -23.273  0.00  0.00    +0.137 C 
ATOM     27  C   UNL     1      31.479  -5.248 -22.064  0.00  0.00    +0.239 C 
ATOM     28  C   UNL     1      31.407  -3.297 -23.415  0.00  0.00    +0.279 C 
ATOM     29  H   UNL     1      30.562  -3.476 -21.553  0.00  0.00    +0.158 HD
ENDBRANCH  21  26
ENDBRANCH   1  21
TORSDOF 5
ENDMDL
