MODEL 1
REMARK VINA RESULT:     -12.7      0.000      0.000
REMARK  Name = 16750097
REMARK  3 active torsions:
REMARK  status: ('A' for Active; 'I' for Inactive)
REMARK    1  A    between atoms: N_3  and  C_10
REMARK    2  A    between atoms: N_3  and  C_23
REMARK    3  A    between atoms: C_23  and  C_24
REMARK                            x       y       z     vdW  Elec       q    Type
REMARK                         _______ _______ _______ _____ _____    ______ ____
ROOT
ATOM      1  O   UNL     1      33.458 -15.665 -26.182  0.00  0.00    -0.209 OA
ATOM      2  N   UNL     1      34.826 -19.278 -22.620  0.00  0.00    -0.305 N 
ATOM      3  N   UNL     1      35.360 -18.210 -20.746  0.00  0.00    -0.305 N 
ATOM      4  N   UNL     1      34.433 -13.793 -22.778  0.00  0.00    -0.275 N 
ATOM      5  N   UNL     1      33.702 -13.695 -25.041  0.00  0.00    -0.302 NA
ATOM      6  N   UNL     1      33.997 -11.762 -23.750  0.00  0.00    -0.320 N 
ATOM      7  C   UNL     1      34.655 -17.945 -22.896  0.00  0.00    +0.061 C 
ATOM      8  C   UNL     1      34.993 -17.300 -21.711  0.00  0.00    +0.061 C 
ATOM      9  C   UNL     1      35.248 -19.385 -21.324  0.00  0.00    +0.208 C 
ATOM     10  C   UNL     1      34.517 -15.188 -22.789  0.00  0.00    +0.064 C 
ATOM     11  C   UNL     1      34.182 -15.875 -23.966  0.00  0.00    +0.110 C 
ATOM     12  C   UNL     1      34.243 -17.274 -24.049  0.00  0.00    +0.030 C 
ATOM     13  C   UNL     1      34.926 -15.898 -21.648  0.00  0.00    +0.031 C 
ATOM     14  C   UNL     1      33.754 -15.073 -25.148  0.00  0.00    +0.208 C 
ATOM     15  C   UNL     1      34.029 -13.124 -23.910  0.00  0.00    +0.248 C 
ATOM     16  H   UNL     1      34.673 -20.024 -23.242  0.00  0.00    +0.150 HD
ATOM     17  H   UNL     1      35.645 -18.021 -19.823  0.00  0.00    +0.150 HD
ATOM     18  H   UNL     1      34.663 -13.291 -21.963  0.00  0.00    +0.156 HD
ATOM     19  H   UNL     1      34.249 -11.362 -22.886  0.00  0.00    +0.146 HD
ATOM     20  H   UNL     1      33.722 -11.184 -24.498  0.00  0.00    +0.146 HD
ENDROOT
BRANCH   9  21
ATOM     21  N   UNL     1      35.486 -20.618 -20.827  0.00  0.00    -0.263 NA
ATOM     22  H   UNL     1      35.150 -21.390 -21.338  0.00  0.00    +0.127 HD
BRANCH  21  23
ATOM     23  C   UNL     1      36.202 -20.884 -19.592  0.00  0.00    +0.098 C 
BRANCH  23  24
ATOM     24  C   UNL     1      35.336 -21.658 -18.637  0.00  0.00    -0.006 C 
ATOM     25  C   UNL     1      35.817 -22.115 -17.400  0.00  0.00    -0.003 C 
ATOM     26  C   UNL     1      34.951 -22.839 -16.545  0.00  0.00    -0.000 C 
ATOM     27  C   UNL     1      34.020 -21.912 -19.027  0.00  0.00    -0.003 C 
ATOM     28  C   UNL     1      37.138 -21.871 -16.991  0.00  0.00    -0.000 C 
ATOM     29  C   UNL     1      33.630 -23.085 -16.954  0.00  0.00    -0.000 C 
ATOM     30  C   UNL     1      33.169 -22.623 -18.187  0.00  0.00    -0.000 C 
ATOM     31  C   UNL     1      35.432 -23.297 -15.308  0.00  0.00    -0.000 C 
ATOM     32  C   UNL     1      37.599 -22.333 -15.757  0.00  0.00    -0.000 C 
ATOM     33  C   UNL     1      36.747 -23.044 -14.917  0.00  0.00    -0.000 C 
ENDBRANCH  23  24
ENDBRANCH  21  23
ENDBRANCH   9  21
TORSDOF 3
ENDMDL
MODEL 2
REMARK VINA RESULT:     -12.6      0.714      1.967
REMARK  Name = 16750097
REMARK  3 active torsions:
REMARK  status: ('A' for Active; 'I' for Inactive)
REMARK    1  A    between atoms: N_3  and  C_10
REMARK    2  A    between atoms: N_3  and  C_23
REMARK    3  A    between atoms: C_23  and  C_24
REMARK                            x       y       z     vdW  Elec       q    Type
REMARK                         _______ _______ _______ _____ _____    ______ ____
ROOT
ATOM      1  O   UNL     1      33.297 -16.042 -26.133  0.00  0.00    -0.209 OA
ATOM      2  N   UNL     1      34.891 -19.358 -22.381  0.00  0.00    -0.305 N 
ATOM      3  N   UNL     1      35.456 -18.147 -20.606  0.00  0.00    -0.305 N 
ATOM      4  N   UNL     1      34.329 -13.910 -22.903  0.00  0.00    -0.275 N 
ATOM      5  N   UNL     1      33.520 -13.991 -25.140  0.00  0.00    -0.302 NA
ATOM      6  N   UNL     1      33.799 -11.965 -23.996  0.00  0.00    -0.320 N 
ATOM      7  C   UNL     1      34.671 -18.053 -22.743  0.00  0.00    +0.061 C 
ATOM      8  C   UNL     1      35.030 -17.317 -21.618  0.00  0.00    +0.061 C 
ATOM      9  C   UNL     1      35.360 -19.362 -21.097  0.00  0.00    +0.208 C 
ATOM     10  C   UNL     1      34.454 -15.300 -22.821  0.00  0.00    +0.064 C 
ATOM     11  C   UNL     1      34.100 -16.077 -23.935  0.00  0.00    +0.110 C 
ATOM     12  C   UNL     1      34.201 -17.476 -23.924  0.00  0.00    +0.030 C 
ATOM     13  C   UNL     1      34.923 -15.917 -21.649  0.00  0.00    +0.031 C 
ATOM     14  C   UNL     1      33.609 -15.371 -25.153  0.00  0.00    +0.208 C 
ATOM     15  C   UNL     1      33.867 -13.334 -24.064  0.00  0.00    +0.248 C 
ATOM     16  H   UNL     1      34.740 -20.150 -22.945  0.00  0.00    +0.150 HD
ATOM     17  H   UNL     1      35.766 -17.886 -19.709  0.00  0.00    +0.150 HD
ATOM     18  H   UNL     1      34.571 -13.346 -22.134  0.00  0.00    +0.156 HD
ATOM     19  H   UNL     1      34.068 -11.499 -23.172  0.00  0.00    +0.146 HD
ATOM     20  H   UNL     1      33.483 -11.449 -24.773  0.00  0.00    +0.146 HD
ENDROOT
BRANCH   9  21
ATOM     21  N   UNL     1      35.651 -20.551 -20.525  0.00  0.00    -0.263 NA
ATOM     22  H   UNL     1      36.577 -20.879 -20.596  0.00  0.00    +0.127 HD
BRANCH  21  23
ATOM     23  C   UNL     1      34.694 -21.378 -19.812  0.00  0.00    +0.098 C 
BRANCH  23  24
ATOM     24  C   UNL     1      35.246 -21.792 -18.476  0.00  0.00    -0.006 C 
ATOM     25  C   UNL     1      34.443 -22.386 -17.490  0.00  0.00    -0.003 C 
ATOM     26  C   UNL     1      35.023 -22.753 -16.252  0.00  0.00    -0.000 C 
ATOM     27  C   UNL     1      36.603 -21.561 -18.245  0.00  0.00    -0.003 C 
ATOM     28  C   UNL     1      33.075 -22.625 -17.705  0.00  0.00    -0.000 C 
ATOM     29  C   UNL     1      36.390 -22.513 -16.037  0.00  0.00    -0.000 C 
ATOM     30  C   UNL     1      37.174 -21.922 -17.029  0.00  0.00    -0.000 C 
ATOM     31  C   UNL     1      34.220 -23.347 -15.266  0.00  0.00    -0.000 C 
ATOM     32  C   UNL     1      32.292 -23.216 -16.713  0.00  0.00    -0.000 C 
ATOM     33  C   UNL     1      32.863 -23.577 -15.496  0.00  0.00    -0.000 C 
ENDBRANCH  23  24
ENDBRANCH  21  23
ENDBRANCH   9  21
TORSDOF 3
ENDMDL
MODEL 3
REMARK VINA RESULT:     -12.4      3.173      9.074
REMARK  Name = 16750097
REMARK  3 active torsions:
REMARK  status: ('A' for Active; 'I' for Inactive)
REMARK    1  A    between atoms: N_3  and  C_10
REMARK    2  A    between atoms: N_3  and  C_23
REMARK    3  A    between atoms: C_23  and  C_24
REMARK                            x       y       z     vdW  Elec       q    Type
REMARK                         _______ _______ _______ _____ _____    ______ ____
ROOT
ATOM      1  O   UNL     1      36.631 -22.456 -17.271  0.00  0.00    -0.209 OA
ATOM      2  N   UNL     1      35.722 -19.506 -21.523  0.00  0.00    -0.305 N 
ATOM      3  N   UNL     1      33.530 -19.502 -21.885  0.00  0.00    -0.305 N 
ATOM      4  N   UNL     1      32.688 -22.413 -17.972  0.00  0.00    -0.275 N 
ATOM      5  N   UNL     1      34.534 -23.142 -16.659  0.00  0.00    -0.302 NA
ATOM      6  N   UNL     1      32.332 -23.764 -16.154  0.00  0.00    -0.320 N 
ATOM      7  C   UNL     1      35.185 -20.284 -20.529  0.00  0.00    +0.061 C 
ATOM      8  C   UNL     1      33.816 -20.265 -20.777  0.00  0.00    +0.061 C 
ATOM      9  C   UNL     1      34.694 -19.063 -22.308  0.00  0.00    +0.208 C 
ATOM     10  C   UNL     1      33.503 -21.689 -18.847  0.00  0.00    +0.064 C 
ATOM     11  C   UNL     1      34.889 -21.683 -18.629  0.00  0.00    +0.110 C 
ATOM     12  C   UNL     1      35.767 -20.979 -19.467  0.00  0.00    +0.030 C 
ATOM     13  C   UNL     1      32.954 -20.977 -19.926  0.00  0.00    +0.031 C 
ATOM     14  C   UNL     1      35.420 -22.456 -17.470  0.00  0.00    +0.208 C 
ATOM     15  C   UNL     1      33.254 -23.101 -16.924  0.00  0.00    +0.248 C 
ATOM     16  H   UNL     1      36.676 -19.303 -21.650  0.00  0.00    +0.150 HD
ATOM     17  H   UNL     1      32.645 -19.324 -22.277  0.00  0.00    +0.150 HD
ATOM     18  H   UNL     1      31.713 -22.431 -18.106  0.00  0.00    +0.156 HD
ATOM     19  H   UNL     1      31.375 -23.714 -16.379  0.00  0.00    +0.146 HD
ATOM     20  H   UNL     1      32.628 -24.290 -15.376  0.00  0.00    +0.146 HD
ENDROOT
BRANCH   9  21
ATOM     21  N   UNL     1      34.988 -18.272 -23.362  0.00  0.00    -0.263 NA
ATOM     22  H   UNL     1      34.762 -18.603 -24.262  0.00  0.00    +0.127 HD
BRANCH  21  23
ATOM     23  C   UNL     1      35.615 -16.965 -23.263  0.00  0.00    +0.098 C 
BRANCH  23  24
ATOM     24  C   UNL     1      34.665 -15.889 -23.711  0.00  0.00    -0.006 C 
ATOM     25  C   UNL     1      34.081 -14.988 -22.807  0.00  0.00    -0.003 C 
ATOM     26  C   UNL     1      33.193 -13.997 -23.292  0.00  0.00    -0.000 C 
ATOM     27  C   UNL     1      34.378 -15.815 -25.074  0.00  0.00    -0.003 C 
ATOM     28  C   UNL     1      34.356 -15.047 -21.431  0.00  0.00    -0.000 C 
ATOM     29  C   UNL     1      32.917 -13.938 -24.668  0.00  0.00    -0.000 C 
ATOM     30  C   UNL     1      33.507 -14.842 -25.552  0.00  0.00    -0.000 C 
ATOM     31  C   UNL     1      32.609 -13.096 -22.388  0.00  0.00    -0.000 C 
ATOM     32  C   UNL     1      33.766 -14.144 -20.546  0.00  0.00    -0.000 C 
ATOM     33  C   UNL     1      32.894 -13.169 -21.025  0.00  0.00    -0.000 C 
ENDBRANCH  23  24
ENDBRANCH  21  23
ENDBRANCH   9  21
TORSDOF 3
ENDMDL
MODEL 4
REMARK VINA RESULT:     -12.3      1.302      2.699
REMARK  Name = 16750097
REMARK  3 active torsions:
REMARK  status: ('A' for Active; 'I' for Inactive)
REMARK    1  A    between atoms: N_3  and  C_10
REMARK    2  A    between atoms: N_3  and  C_23
REMARK    3  A    between atoms: C_23  and  C_24
REMARK                            x       y       z     vdW  Elec       q    Type
REMARK                         _______ _______ _______ _____ _____    ______ ____
ROOT
ATOM      1  O   UNL     1      33.955 -13.084 -22.166  0.00  0.00    -0.209 OA
ATOM      2  N   UNL     1      35.376 -17.891 -20.593  0.00  0.00    -0.305 N 
ATOM      3  N   UNL     1      35.319 -19.226 -22.368  0.00  0.00    -0.305 N 
ATOM      4  N   UNL     1      33.871 -15.537 -25.331  0.00  0.00    -0.275 N 
ATOM      5  N   UNL     1      33.562 -13.367 -24.405  0.00  0.00    -0.302 NA
ATOM      6  N   UNL     1      33.198 -13.806 -26.677  0.00  0.00    -0.320 N 
ATOM      7  C   UNL     1      34.980 -17.095 -21.637  0.00  0.00    +0.061 C 
ATOM      8  C   UNL     1      34.953 -17.951 -22.734  0.00  0.00    +0.061 C 
ATOM      9  C   UNL     1      35.565 -19.155 -21.079  0.00  0.00    +0.208 C 
ATOM     10  C   UNL     1      34.247 -16.087 -24.103  0.00  0.00    +0.064 C 
ATOM     11  C   UNL     1      34.287 -15.255 -22.974  0.00  0.00    +0.110 C 
ATOM     12  C   UNL     1      34.655 -15.739 -21.710  0.00  0.00    +0.030 C 
ATOM     13  C   UNL     1      34.582 -17.447 -23.991  0.00  0.00    +0.031 C 
ATOM     14  C   UNL     1      33.922 -13.820 -23.148  0.00  0.00    +0.208 C 
ATOM     15  C   UNL     1      33.548 -14.201 -25.411  0.00  0.00    +0.248 C 
ATOM     16  H   UNL     1      35.501 -17.605 -19.660  0.00  0.00    +0.150 HD
ATOM     17  H   UNL     1      35.382 -20.020 -22.946  0.00  0.00    +0.150 HD
ATOM     18  H   UNL     1      33.836 -16.102 -26.136  0.00  0.00    +0.156 HD
ATOM     19  H   UNL     1      33.197 -14.458 -27.414  0.00  0.00    +0.146 HD
ATOM     20  H   UNL     1      32.948 -12.869 -26.848  0.00  0.00    +0.146 HD
ENDROOT
BRANCH   9  21
ATOM     21  N   UNL     1      35.960 -20.119 -20.220  0.00  0.00    -0.263 NA
ATOM     22  H   UNL     1      36.860 -20.044 -19.828  0.00  0.00    +0.127 HD
BRANCH  21  23
ATOM     23  C   UNL     1      35.149 -21.260 -19.833  0.00  0.00    +0.098 C 
BRANCH  23  24
ATOM     24  C   UNL     1      35.518 -21.726 -18.452  0.00  0.00    -0.006 C 
ATOM     25  C   UNL     1      34.577 -22.300 -17.583  0.00  0.00    -0.003 C 
ATOM     26  C   UNL     1      34.987 -22.718 -16.294  0.00  0.00    -0.000 C 
ATOM     27  C   UNL     1      36.847 -21.567 -18.056  0.00  0.00    -0.003 C 
ATOM     28  C   UNL     1      33.235 -22.467 -17.963  0.00  0.00    -0.000 C 
ATOM     29  C   UNL     1      36.329 -22.549 -15.913  0.00  0.00    -0.000 C 
ATOM     30  C   UNL     1      37.252 -21.978 -16.790  0.00  0.00    -0.000 C 
ATOM     31  C   UNL     1      34.046 -23.291 -15.426  0.00  0.00    -0.000 C 
ATOM     32  C   UNL     1      32.312 -23.039 -17.086  0.00  0.00    -0.000 C 
ATOM     33  C   UNL     1      32.717 -23.451 -15.820  0.00  0.00    -0.000 C 
ENDBRANCH  23  24
ENDBRANCH  21  23
ENDBRANCH   9  21
TORSDOF 3
ENDMDL
MODEL 5
REMARK VINA RESULT:     -12.1      3.214      9.176
REMARK  Name = 16750097
REMARK  3 active torsions:
REMARK  status: ('A' for Active; 'I' for Inactive)
REMARK    1  A    between atoms: N_3  and  C_10
REMARK    2  A    between atoms: N_3  and  C_23
REMARK    3  A    between atoms: C_23  and  C_24
REMARK                            x       y       z     vdW  Elec       q    Type
REMARK                         _______ _______ _______ _____ _____    ______ ____
ROOT
ATOM      1  O   UNL     1      31.578 -22.780 -17.363  0.00  0.00    -0.209 OA
ATOM      2  N   UNL     1      33.729 -19.904 -21.199  0.00  0.00    -0.305 N 
ATOM      3  N   UNL     1      35.931 -19.933 -20.910  0.00  0.00    -0.305 N 
ATOM      4  N   UNL     1      35.555 -22.798 -16.891  0.00  0.00    -0.275 N 
ATOM      5  N   UNL     1      33.396 -23.483 -16.161  0.00  0.00    -0.302 NA
ATOM      6  N   UNL     1      35.346 -24.124 -15.032  0.00  0.00    -0.320 N 
ATOM      7  C   UNL     1      33.941 -20.674 -20.083  0.00  0.00    +0.061 C 
ATOM      8  C   UNL     1      35.324 -20.677 -19.924  0.00  0.00    +0.061 C 
ATOM      9  C   UNL     1      34.947 -19.485 -21.656  0.00  0.00    +0.208 C 
ATOM     10  C   UNL     1      35.040 -22.076 -17.972  0.00  0.00    +0.064 C 
ATOM     11  C   UNL     1      33.651 -22.050 -18.166  0.00  0.00    +0.110 C 
ATOM     12  C   UNL     1      33.065 -21.346 -19.229  0.00  0.00    +0.030 C 
ATOM     13  C   UNL     1      35.891 -21.388 -18.853  0.00  0.00    +0.031 C 
ATOM     14  C   UNL     1      32.794 -22.797 -17.201  0.00  0.00    +0.208 C 
ATOM     15  C   UNL     1      34.698 -23.463 -16.044  0.00  0.00    +0.248 C 
ATOM     16  H   UNL     1      32.855 -19.691 -21.599  0.00  0.00    +0.150 HD
ATOM     17  H   UNL     1      36.895 -19.772 -21.029  0.00  0.00    +0.150 HD
ATOM     18  H   UNL     1      36.526 -22.831 -16.736  0.00  0.00    +0.156 HD
ATOM     19  H   UNL     1      36.328 -24.089 -14.971  0.00  0.00    +0.146 HD
ATOM     20  H   UNL     1      34.828 -24.633 -14.366  0.00  0.00    +0.146 HD
ENDROOT
BRANCH   9  21
ATOM     21  N   UNL     1      34.984 -18.704 -22.757  0.00  0.00    -0.263 NA
ATOM     22  H   UNL     1      34.492 -19.011 -23.553  0.00  0.00    +0.127 HD
BRANCH  21  23
ATOM     23  C   UNL     1      35.697 -17.442 -22.848  0.00  0.00    +0.098 C 
BRANCH  23  24
ATOM     24  C   UNL     1      34.831 -16.391 -23.485  0.00  0.00    -0.006 C 
ATOM     25  C   UNL     1      34.250 -15.353 -22.739  0.00  0.00    -0.003 C 
ATOM     26  C   UNL     1      33.444 -14.394 -23.398  0.00  0.00    -0.000 C 
ATOM     27  C   UNL     1      34.620 -16.483 -24.861  0.00  0.00    -0.003 C 
ATOM     28  C   UNL     1      34.450 -15.245 -21.354  0.00  0.00    -0.000 C 
ATOM     29  C   UNL     1      33.242 -14.503 -24.784  0.00  0.00    -0.000 C 
ATOM     30  C   UNL     1      33.828 -15.541 -25.510  0.00  0.00    -0.000 C 
ATOM     31  C   UNL     1      32.862 -13.357 -22.653  0.00  0.00    -0.000 C 
ATOM     32  C   UNL     1      33.864 -14.207 -20.628  0.00  0.00    -0.000 C 
ATOM     33  C   UNL     1      33.072 -13.264 -21.277  0.00  0.00    -0.000 C 
ENDBRANCH  23  24
ENDBRANCH  21  23
ENDBRANCH   9  21
TORSDOF 3
ENDMDL
MODEL 6
REMARK VINA RESULT:     -12.0      3.283      9.527
REMARK  Name = 16750097
REMARK  3 active torsions:
REMARK  status: ('A' for Active; 'I' for Inactive)
REMARK    1  A    between atoms: N_3  and  C_10
REMARK    2  A    between atoms: N_3  and  C_23
REMARK    3  A    between atoms: C_23  and  C_24
REMARK                            x       y       z     vdW  Elec       q    Type
REMARK                         _______ _______ _______ _____ _____    ______ ____
ROOT
ATOM      1  O   UNL     1      32.726 -23.559 -16.686  0.00  0.00    -0.209 OA
ATOM      2  N   UNL     1      33.720 -20.348 -20.724  0.00  0.00    -0.305 N 
ATOM      3  N   UNL     1      35.878 -19.828 -20.657  0.00  0.00    -0.305 N 
ATOM      4  N   UNL     1      36.610 -22.588 -16.615  0.00  0.00    -0.275 N 
ATOM      5  N   UNL     1      34.768 -23.762 -15.670  0.00  0.00    -0.302 NA
ATOM      6  N   UNL     1      36.916 -23.874 -14.740  0.00  0.00    -0.320 N 
ATOM      7  C   UNL     1      34.222 -21.011 -19.634  0.00  0.00    +0.061 C 
ATOM      8  C   UNL     1      35.571 -20.671 -19.614  0.00  0.00    +0.061 C 
ATOM      9  C   UNL     1      34.746 -19.655 -21.302  0.00  0.00    +0.208 C 
ATOM     10  C   UNL     1      35.832 -22.044 -17.640  0.00  0.00    +0.064 C 
ATOM     11  C   UNL     1      34.467 -22.365 -17.694  0.00  0.00    +0.110 C 
ATOM     12  C   UNL     1      33.626 -21.855 -18.695  0.00  0.00    +0.030 C 
ATOM     13  C   UNL     1      36.397 -21.192 -18.604  0.00  0.00    +0.031 C 
ATOM     14  C   UNL     1      33.919 -23.273 -16.646  0.00  0.00    +0.208 C 
ATOM     15  C   UNL     1      36.030 -23.419 -15.685  0.00  0.00    +0.248 C 
ATOM     16  H   UNL     1      32.786 -20.366 -21.035  0.00  0.00    +0.150 HD
ATOM     17  H   UNL     1      36.756 -19.438 -20.873  0.00  0.00    +0.150 HD
ATOM     18  H   UNL     1      37.570 -22.377 -16.558  0.00  0.00    +0.156 HD
ATOM     19  H   UNL     1      37.860 -23.598 -14.778  0.00  0.00    +0.146 HD
ATOM     20  H   UNL     1      36.607 -24.476 -14.025  0.00  0.00    +0.146 HD
ENDROOT
BRANCH   9  21
ATOM     21  N   UNL     1      34.483 -18.918 -22.403  0.00  0.00    -0.263 NA
ATOM     22  H   UNL     1      33.643 -19.098 -22.885  0.00  0.00    +0.127 HD
BRANCH  21  23
ATOM     23  C   UNL     1      35.352 -17.879 -22.926  0.00  0.00    +0.098 C 
BRANCH  23  24
ATOM     24  C   UNL     1      34.810 -16.518 -22.587  0.00  0.00    -0.006 C 
ATOM     25  C   UNL     1      34.262 -15.671 -23.563  0.00  0.00    -0.003 C 
ATOM     26  C   UNL     1      33.768 -14.401 -23.179  0.00  0.00    -0.000 C 
ATOM     27  C   UNL     1      34.872 -16.119 -21.251  0.00  0.00    -0.003 C 
ATOM     28  C   UNL     1      34.192 -16.055 -24.912  0.00  0.00    -0.000 C 
ATOM     29  C   UNL     1      33.839 -14.016 -21.830  0.00  0.00    -0.000 C 
ATOM     30  C   UNL     1      34.386 -14.872 -20.873  0.00  0.00    -0.000 C 
ATOM     31  C   UNL     1      33.220 -13.553 -24.155  0.00  0.00    -0.000 C 
ATOM     32  C   UNL     1      33.645 -15.199 -25.868  0.00  0.00    -0.000 C 
ATOM     33  C   UNL     1      33.159 -13.951 -25.490  0.00  0.00    -0.000 C 
ENDBRANCH  23  24
ENDBRANCH  21  23
ENDBRANCH   9  21
TORSDOF 3
ENDMDL
MODEL 7
REMARK VINA RESULT:     -11.9      4.025      9.864
REMARK  Name = 16750097
REMARK  3 active torsions:
REMARK  status: ('A' for Active; 'I' for Inactive)
REMARK    1  A    between atoms: N_3  and  C_10
REMARK    2  A    between atoms: N_3  and  C_23
REMARK    3  A    between atoms: C_23  and  C_24
REMARK                            x       y       z     vdW  Elec       q    Type
REMARK                         _______ _______ _______ _____ _____    ______ ____
ROOT
ATOM      1  O   UNL     1      37.553 -22.897 -14.125  0.00  0.00    -0.209 OA
ATOM      2  N   UNL     1      36.468 -20.982 -18.896  0.00  0.00    -0.305 N 
ATOM      3  N   UNL     1      34.385 -21.567 -19.399  0.00  0.00    -0.305 N 
ATOM      4  N   UNL     1      33.804 -23.924 -15.086  0.00  0.00    -0.275 N 
ATOM      5  N   UNL     1      35.612 -23.963 -13.540  0.00  0.00    -0.302 NA
ATOM      6  N   UNL     1      33.567 -25.008 -13.079  0.00  0.00    -0.320 N 
ATOM      7  C   UNL     1      36.016 -21.696 -17.815  0.00  0.00    +0.061 C 
ATOM      8  C   UNL     1      34.714 -22.049 -18.153  0.00  0.00    +0.061 C 
ATOM      9  C   UNL     1      35.458 -20.934 -19.816  0.00  0.00    +0.208 C 
ATOM     10  C   UNL     1      34.524 -23.175 -16.021  0.00  0.00    +0.064 C 
ATOM     11  C   UNL     1      35.840 -22.799 -15.716  0.00  0.00    +0.110 C 
ATOM     12  C   UNL     1      36.622 -22.048 -16.607  0.00  0.00    +0.030 C 
ATOM     13  C   UNL     1      33.948 -22.801 -17.247  0.00  0.00    +0.031 C 
ATOM     14  C   UNL     1      36.403 -23.223 -14.401  0.00  0.00    +0.208 C 
ATOM     15  C   UNL     1      34.393 -24.276 -13.894  0.00  0.00    +0.248 C 
ATOM     16  H   UNL     1      37.360 -20.578 -18.993  0.00  0.00    +0.150 HD
ATOM     17  H   UNL     1      33.530 -21.675 -19.876  0.00  0.00    +0.150 HD
ATOM     18  H   UNL     1      32.879 -24.198 -15.279  0.00  0.00    +0.156 HD
ATOM     19  H   UNL     1      32.654 -25.228 -13.374  0.00  0.00    +0.146 HD
ATOM     20  H   UNL     1      33.888 -25.315 -12.200  0.00  0.00    +0.146 HD
ENDROOT
BRANCH   9  21
ATOM     21  N   UNL     1      35.678 -20.276 -20.975  0.00  0.00    -0.263 NA
ATOM     22  H   UNL     1      35.850 -20.814 -21.782  0.00  0.00    +0.127 HD
BRANCH  21  23
ATOM     23  C   UNL     1      35.678 -18.831 -21.114  0.00  0.00    +0.098 C 
BRANCH  23  24
ATOM     24  C   UNL     1      35.028 -18.425 -22.408  0.00  0.00    -0.006 C 
ATOM     25  C   UNL     1      34.689 -17.092 -22.685  0.00  0.00    -0.003 C 
ATOM     26  C   UNL     1      34.078 -16.775 -23.922  0.00  0.00    -0.000 C 
ATOM     27  C   UNL     1      34.768 -19.433 -23.337  0.00  0.00    -0.003 C 
ATOM     28  C   UNL     1      34.942 -16.064 -21.762  0.00  0.00    -0.000 C 
ATOM     29  C   UNL     1      33.824 -17.803 -24.845  0.00  0.00    -0.000 C 
ATOM     30  C   UNL     1      34.168 -19.123 -24.553  0.00  0.00    -0.000 C 
ATOM     31  C   UNL     1      33.739 -15.441 -24.199  0.00  0.00    -0.000 C 
ATOM     32  C   UNL     1      34.597 -14.744 -22.054  0.00  0.00    -0.000 C 
ATOM     33  C   UNL     1      33.998 -14.433 -23.271  0.00  0.00    -0.000 C 
ENDBRANCH  23  24
ENDBRANCH  21  23
ENDBRANCH   9  21
TORSDOF 3
ENDMDL
MODEL 8
REMARK VINA RESULT:     -11.8      1.209      1.895
REMARK  Name = 16750097
REMARK  3 active torsions:
REMARK  status: ('A' for Active; 'I' for Inactive)
REMARK    1  A    between atoms: N_3  and  C_10
REMARK    2  A    between atoms: N_3  and  C_23
REMARK    3  A    between atoms: C_23  and  C_24
REMARK                            x       y       z     vdW  Elec       q    Type
REMARK                         _______ _______ _______ _____ _____    ______ ____
ROOT
ATOM      1  O   UNL     1      33.793 -12.868 -22.454  0.00  0.00    -0.209 OA
ATOM      2  N   UNL     1      35.361 -17.507 -20.548  0.00  0.00    -0.305 N 
ATOM      3  N   UNL     1      35.400 -18.951 -22.236  0.00  0.00    -0.305 N 
ATOM      4  N   UNL     1      33.882 -15.515 -25.458  0.00  0.00    -0.275 N 
ATOM      5  N   UNL     1      33.467 -13.306 -24.678  0.00  0.00    -0.302 NA
ATOM      6  N   UNL     1      33.176 -13.900 -26.925  0.00  0.00    -0.320 N 
ATOM      7  C   UNL     1      34.960 -16.794 -21.649  0.00  0.00    +0.061 C 
ATOM      8  C   UNL     1      34.994 -17.717 -22.690  0.00  0.00    +0.061 C 
ATOM      9  C   UNL     1      35.611 -18.790 -20.949  0.00  0.00    +0.208 C 
ATOM     10  C   UNL     1      34.249 -15.972 -24.189  0.00  0.00    +0.064 C 
ATOM     11  C   UNL     1      34.229 -15.070 -23.115  0.00  0.00    +0.110 C 
ATOM     12  C   UNL     1      34.585 -15.460 -21.815  0.00  0.00    +0.030 C 
ATOM     13  C   UNL     1      34.634 -17.307 -23.984  0.00  0.00    +0.031 C 
ATOM     14  C   UNL     1      33.813 -13.664 -23.388  0.00  0.00    +0.208 C 
ATOM     15  C   UNL     1      33.510 -14.201 -25.629  0.00  0.00    +0.248 C 
ATOM     16  H   UNL     1      35.451 -17.158 -19.632  0.00  0.00    +0.150 HD
ATOM     17  H   UNL     1      35.508 -19.776 -22.761  0.00  0.00    +0.150 HD
ATOM     18  H   UNL     1      33.890 -16.130 -26.226  0.00  0.00    +0.156 HD
ATOM     19  H   UNL     1      33.219 -14.597 -27.619  0.00  0.00    +0.146 HD
ATOM     20  H   UNL     1      32.894 -12.987 -27.161  0.00  0.00    +0.146 HD
ENDROOT
BRANCH   9  21
ATOM     21  N   UNL     1      36.022 -19.682 -20.022  0.00  0.00    -0.263 NA
ATOM     22  H   UNL     1      36.419 -19.331 -19.192  0.00  0.00    +0.127 HD
BRANCH  21  23
ATOM     23  C   UNL     1      35.919 -21.123 -20.164  0.00  0.00    +0.098 C 
BRANCH  23  24
ATOM     24  C   UNL     1      35.101 -21.706 -19.045  0.00  0.00    -0.006 C 
ATOM     25  C   UNL     1      35.663 -22.022 -17.798  0.00  0.00    -0.003 C 
ATOM     26  C   UNL     1      34.839 -22.569 -16.785  0.00  0.00    -0.000 C 
ATOM     27  C   UNL     1      33.745 -21.927 -19.290  0.00  0.00    -0.003 C 
ATOM     28  C   UNL     1      37.026 -21.808 -17.533  0.00  0.00    -0.000 C 
ATOM     29  C   UNL     1      33.477 -22.785 -17.050  0.00  0.00    -0.000 C 
ATOM     30  C   UNL     1      32.935 -22.464 -18.296  0.00  0.00    -0.000 C 
ATOM     31  C   UNL     1      35.401 -22.885 -15.538  0.00  0.00    -0.000 C 
ATOM     32  C   UNL     1      37.568 -22.128 -16.287  0.00  0.00    -0.000 C 
ATOM     33  C   UNL     1      36.757 -22.665 -15.292  0.00  0.00    -0.000 C 
ENDBRANCH  23  24
ENDBRANCH  21  23
ENDBRANCH   9  21
TORSDOF 3
ENDMDL
MODEL 9
REMARK VINA RESULT:     -11.8      3.294      9.373
REMARK  Name = 16750097
REMARK  3 active torsions:
REMARK  status: ('A' for Active; 'I' for Inactive)
REMARK    1  A    between atoms: N_3  and  C_10
REMARK    2  A    between atoms: N_3  and  C_23
REMARK    3  A    between atoms: C_23  and  C_24
REMARK                            x       y       z     vdW  Elec       q    Type
REMARK                         _______ _______ _______ _____ _____    ______ ____
ROOT
ATOM      1  O   UNL     1      36.301 -22.829 -16.822  0.00  0.00    -0.209 OA
ATOM      2  N   UNL     1      35.407 -19.922 -21.108  0.00  0.00    -0.305 N 
ATOM      3  N   UNL     1      33.209 -19.843 -21.423  0.00  0.00    -0.305 N 
ATOM      4  N   UNL     1      32.348 -22.651 -17.439  0.00  0.00    -0.275 N 
ATOM      5  N   UNL     1      34.194 -23.426 -16.153  0.00  0.00    -0.302 NA
ATOM      6  N   UNL     1      31.983 -23.956 -15.589  0.00  0.00    -0.320 N 
ATOM      7  C   UNL     1      34.864 -20.662 -20.088  0.00  0.00    +0.061 C 
ATOM      8  C   UNL     1      33.492 -20.596 -20.306  0.00  0.00    +0.061 C 
ATOM      9  C   UNL     1      34.379 -19.455 -21.878  0.00  0.00    +0.208 C 
ATOM     10  C   UNL     1      33.169 -21.974 -18.345  0.00  0.00    +0.064 C 
ATOM     11  C   UNL     1      34.559 -22.015 -18.157  0.00  0.00    +0.110 C 
ATOM     12  C   UNL     1      35.444 -21.359 -19.026  0.00  0.00    +0.030 C 
ATOM     13  C   UNL     1      32.623 -21.260 -19.424  0.00  0.00    +0.031 C 
ATOM     14  C   UNL     1      35.086 -22.787 -16.995  0.00  0.00    +0.208 C 
ATOM     15  C   UNL     1      32.911 -23.341 -16.391  0.00  0.00    +0.248 C 
ATOM     16  H   UNL     1      36.365 -19.757 -21.259  0.00  0.00    +0.150 HD
ATOM     17  H   UNL     1      32.323 -19.639 -21.799  0.00  0.00    +0.150 HD
ATOM     18  H   UNL     1      31.370 -22.635 -17.552  0.00  0.00    +0.156 HD
ATOM     19  H   UNL     1      31.023 -23.874 -15.795  0.00  0.00    +0.146 HD
ATOM     20  H   UNL     1      32.276 -24.479 -14.808  0.00  0.00    +0.146 HD
ENDROOT
BRANCH   9  21
ATOM     21  N   UNL     1      34.679 -18.694 -22.953  0.00  0.00    -0.263 NA
ATOM     22  H   UNL     1      34.231 -18.906 -23.804  0.00  0.00    +0.127 HD
BRANCH  21  23
ATOM     23  C   UNL     1      35.616 -17.584 -22.941  0.00  0.00    +0.098 C 
BRANCH  23  24
ATOM     24  C   UNL     1      34.910 -16.301 -22.601  0.00  0.00    -0.006 C 
ATOM     25  C   UNL     1      34.304 -15.501 -23.582  0.00  0.00    -0.003 C 
ATOM     26  C   UNL     1      33.655 -14.304 -23.197  0.00  0.00    -0.000 C 
ATOM     27  C   UNL     1      34.876 -15.926 -21.257  0.00  0.00    -0.003 C 
ATOM     28  C   UNL     1      34.329 -15.862 -24.940  0.00  0.00    -0.000 C 
ATOM     29  C   UNL     1      33.631 -13.942 -21.839  0.00  0.00    -0.000 C 
ATOM     30  C   UNL     1      34.237 -14.750 -20.877  0.00  0.00    -0.000 C 
ATOM     31  C   UNL     1      33.050 -13.503 -24.178  0.00  0.00    -0.000 C 
ATOM     32  C   UNL     1      33.722 -15.054 -25.902  0.00  0.00    -0.000 C 
ATOM     33  C   UNL     1      33.083 -13.877 -25.522  0.00  0.00    -0.000 C 
ENDBRANCH  23  24
ENDBRANCH  21  23
ENDBRANCH   9  21
TORSDOF 3
ENDMDL
