MODEL 1
REMARK VINA RESULT:     -13.4      0.000      0.000
REMARK  Name = 4887
REMARK  9 active torsions:
REMARK  status: ('A' for Active; 'I' for Inactive)
REMARK    1  A    between atoms: N_2  and  C_8
REMARK    2  A    between atoms: C_3  and  C_23
REMARK    3  A    between atoms: C_14  and  C_20
REMARK    4  A    between atoms: C_22  and  O_28
REMARK    5  A    between atoms: O_28  and  C_29
REMARK    6  A    between atoms: C_29  and  C_30
REMARK    7  A    between atoms: C_30  and  C_31
REMARK    8  A    between atoms: C_31  and  C_32
REMARK    9  A    between atoms: C_32  and  C_33
REMARK                            x       y       z     vdW  Elec       q    Type
REMARK                         _______ _______ _______ _____ _____    ______ ____
ROOT
ATOM      1  O   UNL     1      33.708 -24.068 -18.409  0.00  0.00    -0.270 OA
ATOM      2  N   UNL     1      33.686 -22.463 -16.691  0.00  0.00    -0.278 N 
ATOM      3  C   UNL     1      33.739 -22.906 -18.019  0.00  0.00    +0.250 C 
ATOM      4  H   UNL     1      33.722 -21.489 -16.559  0.00  0.00    +0.155 HD
ENDROOT
BRANCH   2   8
ATOM      5  O   UNL     1      31.236 -23.227 -15.724  0.00  0.00    -0.442 OA
ATOM      6  O   UNL     1      30.822 -25.483 -12.359  0.00  0.00    -0.286 OA
ATOM      7  C   UNL     1      32.348 -23.632 -15.031  0.00  0.00    +0.163 C 
ATOM      8  C   UNL     1      33.589 -23.237 -15.531  0.00  0.00    +0.086 C 
ATOM      9  C   UNL     1      32.279 -24.403 -13.873  0.00  0.00    +0.075 C 
ATOM     10  C   UNL     1      34.757 -23.617 -14.870  0.00  0.00    +0.018 C 
ATOM     11  C   UNL     1      33.446 -24.787 -13.208  0.00  0.00    +0.006 C 
ATOM     12  C   UNL     1      30.959 -24.805 -13.368  0.00  0.00    +0.202 C 
ATOM     13  C   UNL     1      34.686 -24.390 -13.711  0.00  0.00    +0.002 C 
ATOM     14  C   UNL     1      29.981 -23.601 -15.254  0.00  0.00    +0.213 C 
ATOM     15  C   UNL     1      29.794 -24.343 -14.150  0.00  0.00    +0.090 C 
BRANCH  14  20
ATOM     16  N   UNL     1      28.491 -23.618 -17.240  0.00  0.00    -0.107 NA
ATOM     17  N   UNL     1      28.203 -22.006 -15.675  0.00  0.00    -0.084 NA
ATOM     18  N   UNL     1      27.498 -22.760 -17.515  0.00  0.00    -0.140 N 
ATOM     19  N   UNL     1      27.292 -21.789 -16.615  0.00  0.00    -0.022 NA
ATOM     20  C   UNL     1      28.903 -23.106 -16.078  0.00  0.00    +0.109 C 
ATOM     21  H   UNL     1      26.952 -22.839 -18.330  0.00  0.00    +0.197 HD
ENDBRANCH  14  20
ENDBRANCH   2   8
BRANCH   3  23
ATOM     22  C   UNL     1      34.113 -19.824 -20.960  0.00  0.00    +0.139 C 
ATOM     23  C   UNL     1      33.869 -21.834 -19.041  0.00  0.00    +0.054 C 
ATOM     24  C   UNL     1      32.848 -20.249 -20.551  0.00  0.00    +0.037 C 
ATOM     25  C   UNL     1      35.255 -20.405 -20.409  0.00  0.00    +0.037 C 
ATOM     26  C   UNL     1      32.726 -21.254 -19.592  0.00  0.00    +0.008 C 
ATOM     27  C   UNL     1      35.134 -21.410 -19.450  0.00  0.00    +0.008 C 
BRANCH  22  28
ATOM     28  O   UNL     1      34.232 -18.842 -21.894  0.00  0.00    -0.475 OA
BRANCH  28  29
ATOM     29  C   UNL     1      35.006 -19.140 -23.055  0.00  0.00    +0.205 C 
BRANCH  29  30
ATOM     30  C   UNL     1      34.110 -19.041 -24.281  0.00  0.00    +0.048 C 
BRANCH  30  31
ATOM     31  C   UNL     1      33.874 -17.588 -24.690  0.00  0.00    +0.009 C 
BRANCH  31  32
ATOM     32  C   UNL     1      34.955 -16.669 -24.117  0.00  0.00    +0.026 C 
BRANCH  32  33
ATOM     33  C   UNL     1      34.359 -15.555 -23.292  0.00  0.00    -0.022 C 
ATOM     34  C   UNL     1      33.508 -14.625 -23.888  0.00  0.00    -0.004 C 
ATOM     35  C   UNL     1      34.659 -15.456 -21.935  0.00  0.00    -0.004 C 
ATOM     36  C   UNL     1      32.958 -13.594 -23.127  0.00  0.00    -0.000 C 
ATOM     37  C   UNL     1      34.108 -14.426 -21.172  0.00  0.00    -0.000 C 
ATOM     38  C   UNL     1      33.258 -13.495 -21.768  0.00  0.00    -0.000 C 
ENDBRANCH  32  33
ENDBRANCH  31  32
ENDBRANCH  30  31
ENDBRANCH  29  30
ENDBRANCH  28  29
ENDBRANCH  22  28
ENDBRANCH   3  23
TORSDOF 9
ENDMDL
MODEL 2
REMARK VINA RESULT:     -13.1      1.767      3.958
REMARK  Name = 4887
REMARK  9 active torsions:
REMARK  status: ('A' for Active; 'I' for Inactive)
REMARK    1  A    between atoms: N_2  and  C_8
REMARK    2  A    between atoms: C_3  and  C_23
REMARK    3  A    between atoms: C_14  and  C_20
REMARK    4  A    between atoms: C_22  and  O_28
REMARK    5  A    between atoms: O_28  and  C_29
REMARK    6  A    between atoms: C_29  and  C_30
REMARK    7  A    between atoms: C_30  and  C_31
REMARK    8  A    between atoms: C_31  and  C_32
REMARK    9  A    between atoms: C_32  and  C_33
REMARK                            x       y       z     vdW  Elec       q    Type
REMARK                         _______ _______ _______ _____ _____    ______ ____
ROOT
ATOM      1  O   UNL     1      33.499 -23.892 -18.309  0.00  0.00    -0.270 OA
ATOM      2  N   UNL     1      32.171 -22.212 -17.339  0.00  0.00    -0.278 N 
ATOM      3  C   UNL     1      33.121 -22.728 -18.229  0.00  0.00    +0.250 C 
ATOM      4  H   UNL     1      31.987 -21.248 -17.416  0.00  0.00    +0.155 HD
ENDROOT
BRANCH   2   8
ATOM      5  O   UNL     1      33.470 -23.378 -15.223  0.00  0.00    -0.442 OA
ATOM      6  O   UNL     1      31.493 -25.399 -12.293  0.00  0.00    -0.286 OA
ATOM      7  C   UNL     1      32.104 -23.495 -15.275  0.00  0.00    +0.163 C 
ATOM      8  C   UNL     1      31.454 -22.898 -16.356  0.00  0.00    +0.086 C 
ATOM      9  C   UNL     1      31.365 -24.172 -14.307  0.00  0.00    +0.075 C 
ATOM     10  C   UNL     1      30.066 -22.982 -16.463  0.00  0.00    +0.018 C 
ATOM     11  C   UNL     1      29.975 -24.259 -14.411  0.00  0.00    +0.006 C 
ATOM     12  C   UNL     1      32.076 -24.790 -13.180  0.00  0.00    +0.202 C 
ATOM     13  C   UNL     1      29.328 -23.661 -15.493  0.00  0.00    +0.002 C 
ATOM     14  C   UNL     1      34.152 -23.961 -14.161  0.00  0.00    +0.213 C 
ATOM     15  C   UNL     1      33.545 -24.637 -13.172  0.00  0.00    +0.090 C 
BRANCH  14  20
ATOM     16  N   UNL     1      36.334 -23.804 -15.338  0.00  0.00    -0.107 NA
ATOM     17  N   UNL     1      36.281 -23.505 -13.093  0.00  0.00    -0.084 NA
ATOM     18  N   UNL     1      37.532 -23.555 -14.792  0.00  0.00    -0.140 N 
ATOM     19  N   UNL     1      37.548 -23.372 -13.464  0.00  0.00    -0.022 NA
ATOM     20  C   UNL     1      35.581 -23.763 -14.235  0.00  0.00    +0.109 C 
ATOM     21  H   UNL     1      38.352 -23.510 -15.334  0.00  0.00    +0.197 HD
ENDBRANCH  14  20
ENDBRANCH   2   8
BRANCH   3  23
ATOM     22  C   UNL     1      34.893 -19.872 -20.873  0.00  0.00    +0.139 C 
ATOM     23  C   UNL     1      33.737 -21.735 -19.148  0.00  0.00    +0.054 C 
ATOM     24  C   UNL     1      33.505 -19.935 -20.741  0.00  0.00    +0.037 C 
ATOM     25  C   UNL     1      35.702 -20.741 -20.142  0.00  0.00    +0.037 C 
ATOM     26  C   UNL     1      32.927 -20.867 -19.879  0.00  0.00    +0.008 C 
ATOM     27  C   UNL     1      35.125 -21.673 -19.279  0.00  0.00    +0.008 C 
BRANCH  22  28
ATOM     28  O   UNL     1      35.456 -18.961 -21.712  0.00  0.00    -0.475 OA
BRANCH  28  29
ATOM     29  C   UNL     1      35.144 -19.077 -23.099  0.00  0.00    +0.205 C 
BRANCH  29  30
ATOM     30  C   UNL     1      34.630 -17.735 -23.601  0.00  0.00    +0.048 C 
BRANCH  30  31
ATOM     31  C   UNL     1      35.217 -16.573 -22.803  0.00  0.00    +0.009 C 
BRANCH  31  32
ATOM     32  C   UNL     1      34.795 -15.226 -23.393  0.00  0.00    +0.026 C 
BRANCH  32  33
ATOM     33  C   UNL     1      33.909 -14.456 -22.446  0.00  0.00    -0.022 C 
ATOM     34  C   UNL     1      32.968 -13.557 -22.947  0.00  0.00    -0.004 C 
ATOM     35  C   UNL     1      34.032 -14.641 -21.070  0.00  0.00    -0.004 C 
ATOM     36  C   UNL     1      32.149 -12.844 -22.072  0.00  0.00    -0.000 C 
ATOM     37  C   UNL     1      33.213 -13.929 -20.194  0.00  0.00    -0.000 C 
ATOM     38  C   UNL     1      32.272 -13.030 -20.695  0.00  0.00    -0.000 C 
ENDBRANCH  32  33
ENDBRANCH  31  32
ENDBRANCH  30  31
ENDBRANCH  29  30
ENDBRANCH  28  29
ENDBRANCH  22  28
ENDBRANCH   3  23
TORSDOF 9
ENDMDL
MODEL 3
REMARK VINA RESULT:     -12.7      0.933      1.878
REMARK  Name = 4887
REMARK  9 active torsions:
REMARK  status: ('A' for Active; 'I' for Inactive)
REMARK    1  A    between atoms: N_2  and  C_8
REMARK    2  A    between atoms: C_3  and  C_23
REMARK    3  A    between atoms: C_14  and  C_20
REMARK    4  A    between atoms: C_22  and  O_28
REMARK    5  A    between atoms: O_28  and  C_29
REMARK    6  A    between atoms: C_29  and  C_30
REMARK    7  A    between atoms: C_30  and  C_31
REMARK    8  A    between atoms: C_31  and  C_32
REMARK    9  A    between atoms: C_32  and  C_33
REMARK                            x       y       z     vdW  Elec       q    Type
REMARK                         _______ _______ _______ _____ _____    ______ ____
ROOT
ATOM      1  O   UNL     1      33.555 -24.120 -18.147  0.00  0.00    -0.270 OA
ATOM      2  N   UNL     1      33.770 -22.458 -16.499  0.00  0.00    -0.278 N 
ATOM      3  C   UNL     1      33.708 -22.952 -17.807  0.00  0.00    +0.250 C 
ATOM      4  H   UNL     1      33.897 -21.486 -16.409  0.00  0.00    +0.155 HD
ENDROOT
BRANCH   2   8
ATOM      5  O   UNL     1      31.341 -23.362 -15.602  0.00  0.00    -0.442 OA
ATOM      6  O   UNL     1      30.936 -25.469 -12.142  0.00  0.00    -0.286 OA
ATOM      7  C   UNL     1      32.445 -23.642 -14.838  0.00  0.00    +0.163 C 
ATOM      8  C   UNL     1      33.676 -23.177 -15.304  0.00  0.00    +0.086 C 
ATOM      9  C   UNL     1      32.379 -24.357 -13.645  0.00  0.00    +0.075 C 
ATOM     10  C   UNL     1      34.836 -23.430 -14.571  0.00  0.00    +0.018 C 
ATOM     11  C   UNL     1      33.538 -24.613 -12.908  0.00  0.00    +0.006 C 
ATOM     12  C   UNL     1      31.070 -24.834 -13.179  0.00  0.00    +0.202 C 
ATOM     13  C   UNL     1      34.767 -24.147 -13.376  0.00  0.00    +0.002 C 
ATOM     14  C   UNL     1      30.097 -23.808 -15.169  0.00  0.00    +0.213 C 
ATOM     15  C   UNL     1      29.913 -24.506 -14.036  0.00  0.00    +0.090 C 
BRANCH  14  20
ATOM     16  N   UNL     1      28.700 -22.205 -16.452  0.00  0.00    -0.107 NA
ATOM     17  N   UNL     1      28.236 -24.417 -16.599  0.00  0.00    -0.084 NA
ATOM     18  N   UNL     1      27.664 -22.494 -17.253  0.00  0.00    -0.140 N 
ATOM     19  N   UNL     1      27.354 -23.792 -17.369  0.00  0.00    -0.022 NA
ATOM     20  C   UNL     1      29.026 -23.441 -16.066  0.00  0.00    +0.109 C 
ATOM     21  H   UNL     1      27.162 -21.793 -17.727  0.00  0.00    +0.197 HD
ENDBRANCH  14  20
ENDBRANCH   2   8
BRANCH   3  23
ATOM     22  C   UNL     1      34.173 -20.024 -20.889  0.00  0.00    +0.139 C 
ATOM     23  C   UNL     1      33.869 -21.934 -18.879  0.00  0.00    +0.054 C 
ATOM     24  C   UNL     1      35.297 -20.624 -20.321  0.00  0.00    +0.037 C 
ATOM     25  C   UNL     1      32.897 -20.379 -20.452  0.00  0.00    +0.037 C 
ATOM     26  C   UNL     1      35.145 -21.578 -19.315  0.00  0.00    +0.008 C 
ATOM     27  C   UNL     1      32.744 -21.334 -19.447  0.00  0.00    +0.008 C 
BRANCH  22  28
ATOM     28  O   UNL     1      34.321 -19.094 -21.871  0.00  0.00    -0.475 OA
BRANCH  28  29
ATOM     29  C   UNL     1      35.449 -18.226 -21.778  0.00  0.00    +0.205 C 
BRANCH  29  30
ATOM     30  C   UNL     1      35.105 -17.070 -20.849  0.00  0.00    +0.048 C 
BRANCH  30  31
ATOM     31  C   UNL     1      34.725 -15.814 -21.631  0.00  0.00    +0.009 C 
BRANCH  31  32
ATOM     32  C   UNL     1      34.577 -16.114 -23.125  0.00  0.00    +0.026 C 
BRANCH  32  33
ATOM     33  C   UNL     1      34.138 -14.895 -23.897  0.00  0.00    -0.022 C 
ATOM     34  C   UNL     1      34.235 -13.631 -23.317  0.00  0.00    -0.004 C 
ATOM     35  C   UNL     1      33.633 -15.033 -25.189  0.00  0.00    -0.004 C 
ATOM     36  C   UNL     1      33.828 -12.503 -24.030  0.00  0.00    -0.000 C 
ATOM     37  C   UNL     1      33.226 -13.906 -25.903  0.00  0.00    -0.000 C 
ATOM     38  C   UNL     1      33.324 -12.641 -25.323  0.00  0.00    -0.000 C 
ENDBRANCH  32  33
ENDBRANCH  31  32
ENDBRANCH  30  31
ENDBRANCH  29  30
ENDBRANCH  28  29
ENDBRANCH  22  28
ENDBRANCH   3  23
TORSDOF 9
ENDMDL
MODEL 4
REMARK VINA RESULT:     -11.6      1.869      4.070
REMARK  Name = 4887
REMARK  9 active torsions:
REMARK  status: ('A' for Active; 'I' for Inactive)
REMARK    1  A    between atoms: N_2  and  C_8
REMARK    2  A    between atoms: C_3  and  C_23
REMARK    3  A    between atoms: C_14  and  C_20
REMARK    4  A    between atoms: C_22  and  O_28
REMARK    5  A    between atoms: O_28  and  C_29
REMARK    6  A    between atoms: C_29  and  C_30
REMARK    7  A    between atoms: C_30  and  C_31
REMARK    8  A    between atoms: C_31  and  C_32
REMARK    9  A    between atoms: C_32  and  C_33
REMARK                            x       y       z     vdW  Elec       q    Type
REMARK                         _______ _______ _______ _____ _____    ______ ____
ROOT
ATOM      1  O   UNL     1      33.653 -23.890 -18.476  0.00  0.00    -0.270 OA
ATOM      2  N   UNL     1      32.459 -22.184 -17.385  0.00  0.00    -0.278 N 
ATOM      3  C   UNL     1      33.385 -22.707 -18.296  0.00  0.00    +0.250 C 
ATOM      4  H   UNL     1      32.369 -21.204 -17.375  0.00  0.00    +0.155 HD
ENDROOT
BRANCH   2   8
ATOM      5  O   UNL     1      33.532 -23.341 -15.142  0.00  0.00    -0.442 OA
ATOM      6  O   UNL     1      31.272 -25.402 -12.454  0.00  0.00    -0.286 OA
ATOM      7  C   UNL     1      32.182 -23.476 -15.344  0.00  0.00    +0.163 C 
ATOM      8  C   UNL     1      31.646 -22.884 -16.489  0.00  0.00    +0.086 C 
ATOM      9  C   UNL     1      31.350 -24.168 -14.466  0.00  0.00    +0.075 C 
ATOM     10  C   UNL     1      30.280 -22.987 -16.750  0.00  0.00    +0.018 C 
ATOM     11  C   UNL     1      29.981 -24.273 -14.723  0.00  0.00    +0.006 C 
ATOM     12  C   UNL     1      31.941 -24.782 -13.269  0.00  0.00    +0.202 C 
ATOM     13  C   UNL     1      29.449 -23.680 -15.869  0.00  0.00    +0.002 C 
ATOM     14  C   UNL     1      34.101 -23.919 -14.013  0.00  0.00    +0.213 C 
ATOM     15  C   UNL     1      33.397 -24.608 -13.099  0.00  0.00    +0.090 C 
BRANCH  14  20
ATOM     16  N   UNL     1      36.361 -24.239 -13.035  0.00  0.00    -0.107 NA
ATOM     17  N   UNL     1      36.130 -22.869 -14.824  0.00  0.00    -0.084 NA
ATOM     18  N   UNL     1      37.508 -23.682 -13.448  0.00  0.00    -0.140 N 
ATOM     19  N   UNL     1      37.419 -22.863 -14.505  0.00  0.00    -0.022 NA
ATOM     20  C   UNL     1      35.526 -23.701 -13.928  0.00  0.00    +0.109 C 
ATOM     21  H   UNL     1      38.366 -23.864 -13.001  0.00  0.00    +0.197 HD
ENDBRANCH  14  20
ENDBRANCH   2   8
BRANCH   3  23
ATOM     22  C   UNL     1      35.509 -19.807 -20.611  0.00  0.00    +0.139 C 
ATOM     23  C   UNL     1      34.123 -21.699 -19.101  0.00  0.00    +0.054 C 
ATOM     24  C   UNL     1      36.211 -20.751 -19.862  0.00  0.00    +0.037 C 
ATOM     25  C   UNL     1      34.114 -19.808 -20.606  0.00  0.00    +0.037 C 
ATOM     26  C   UNL     1      35.518 -21.697 -19.106  0.00  0.00    +0.008 C 
ATOM     27  C   UNL     1      33.421 -20.754 -19.851  0.00  0.00    +0.008 C 
BRANCH  22  28
ATOM     28  O   UNL     1      36.185 -18.886 -21.350  0.00  0.00    -0.475 OA
BRANCH  28  29
ATOM     29  C   UNL     1      36.271 -19.116 -22.756  0.00  0.00    +0.205 C 
BRANCH  29  30
ATOM     30  C   UNL     1      34.965 -19.736 -23.232  0.00  0.00    +0.048 C 
BRANCH  30  31
ATOM     31  C   UNL     1      33.923 -18.669 -23.564  0.00  0.00    +0.009 C 
BRANCH  31  32
ATOM     32  C   UNL     1      34.400 -17.766 -24.704  0.00  0.00    +0.026 C 
BRANCH  32  33
ATOM     33  C   UNL     1      34.162 -16.309 -24.397  0.00  0.00    -0.022 C 
ATOM     34  C   UNL     1      33.693 -15.454 -25.393  0.00  0.00    -0.004 C 
ATOM     35  C   UNL     1      34.412 -15.817 -23.117  0.00  0.00    -0.004 C 
ATOM     36  C   UNL     1      33.474 -14.106 -25.110  0.00  0.00    -0.000 C 
ATOM     37  C   UNL     1      34.193 -14.469 -22.832  0.00  0.00    -0.000 C 
ATOM     38  C   UNL     1      33.724 -13.614 -23.829  0.00  0.00    -0.000 C 
ENDBRANCH  32  33
ENDBRANCH  31  32
ENDBRANCH  30  31
ENDBRANCH  29  30
ENDBRANCH  28  29
ENDBRANCH  22  28
ENDBRANCH   3  23
TORSDOF 9
ENDMDL
MODEL 5
REMARK VINA RESULT:     -11.6      2.278      4.642
REMARK  Name = 4887
REMARK  9 active torsions:
REMARK  status: ('A' for Active; 'I' for Inactive)
REMARK    1  A    between atoms: N_2  and  C_8
REMARK    2  A    between atoms: C_3  and  C_23
REMARK    3  A    between atoms: C_14  and  C_20
REMARK    4  A    between atoms: C_22  and  O_28
REMARK    5  A    between atoms: O_28  and  C_29
REMARK    6  A    between atoms: C_29  and  C_30
REMARK    7  A    between atoms: C_30  and  C_31
REMARK    8  A    between atoms: C_31  and  C_32
REMARK    9  A    between atoms: C_32  and  C_33
REMARK                            x       y       z     vdW  Elec       q    Type
REMARK                         _______ _______ _______ _____ _____    ______ ____
ROOT
ATOM      1  O   UNL     1      33.661 -24.147 -17.711  0.00  0.00    -0.270 OA
ATOM      2  N   UNL     1      33.094 -22.353 -16.302  0.00  0.00    -0.278 N 
ATOM      3  C   UNL     1      33.494 -22.950 -17.504  0.00  0.00    +0.250 C 
ATOM      4  H   UNL     1      33.008 -21.373 -16.314  0.00  0.00    +0.155 HD
ENDROOT
BRANCH   2   8
ATOM      5  O   UNL     1      35.097 -23.444 -14.779  0.00  0.00    -0.442 OA
ATOM      6  O   UNL     1      34.379 -25.292 -11.222  0.00  0.00    -0.286 OA
ATOM      7  C   UNL     1      33.814 -23.538 -14.304  0.00  0.00    +0.163 C 
ATOM      8  C   UNL     1      32.803 -22.980 -15.087  0.00  0.00    +0.086 C 
ATOM      9  C   UNL     1      33.497 -24.156 -13.097  0.00  0.00    +0.075 C 
ATOM     10  C   UNL     1      31.477 -23.043 -14.657  0.00  0.00    +0.018 C 
ATOM     11  C   UNL     1      32.171 -24.222 -12.662  0.00  0.00    +0.006 C 
ATOM     12  C   UNL     1      34.582 -24.736 -12.293  0.00  0.00    +0.202 C 
ATOM     13  C   UNL     1      31.162 -23.663 -13.447  0.00  0.00    +0.002 C 
ATOM     14  C   UNL     1      36.131 -23.991 -14.027  0.00  0.00    +0.213 C 
ATOM     15  C   UNL     1      35.944 -24.609 -12.849  0.00  0.00    +0.090 C 
BRANCH  14  20
ATOM     16  N   UNL     1      37.725 -22.995 -15.650  0.00  0.00    -0.107 NA
ATOM     17  N   UNL     1      38.482 -24.561 -14.199  0.00  0.00    -0.084 NA
ATOM     18  N   UNL     1      39.029 -23.277 -15.782  0.00  0.00    -0.140 N 
ATOM     19  N   UNL     1      39.520 -24.199 -14.943  0.00  0.00    -0.022 NA
ATOM     20  C   UNL     1      37.425 -23.823 -14.646  0.00  0.00    +0.109 C 
ATOM     21  H   UNL     1      39.593 -22.834 -16.455  0.00  0.00    +0.197 HD
ENDBRANCH  14  20
ENDBRANCH   2   8
BRANCH   3  23
ATOM     22  C   UNL     1      34.257 -20.242 -20.724  0.00  0.00    +0.139 C 
ATOM     23  C   UNL     1      33.759 -22.009 -18.623  0.00  0.00    +0.054 C 
ATOM     24  C   UNL     1      35.319 -20.889 -20.089  0.00  0.00    +0.037 C 
ATOM     25  C   UNL     1      32.947 -20.479 -20.308  0.00  0.00    +0.037 C 
ATOM     26  C   UNL     1      35.069 -21.772 -19.038  0.00  0.00    +0.008 C 
ATOM     27  C   UNL     1      32.697 -21.362 -19.258  0.00  0.00    +0.008 C 
BRANCH  22  28
ATOM     28  O   UNL     1      34.500 -19.383 -21.750  0.00  0.00    -0.475 OA
BRANCH  28  29
ATOM     29  C   UNL     1      35.574 -18.458 -21.582  0.00  0.00    +0.205 C 
BRANCH  29  30
ATOM     30  C   UNL     1      35.841 -17.768 -22.912  0.00  0.00    +0.048 C 
BRANCH  30  31
ATOM     31  C   UNL     1      34.615 -17.001 -23.404  0.00  0.00    +0.009 C 
BRANCH  31  32
ATOM     32  C   UNL     1      34.909 -15.504 -23.524  0.00  0.00    +0.026 C 
BRANCH  32  33
ATOM     33  C   UNL     1      34.069 -14.694 -22.568  0.00  0.00    -0.022 C 
ATOM     34  C   UNL     1      33.113 -13.806 -23.061  0.00  0.00    -0.004 C 
ATOM     35  C   UNL     1      34.248 -14.832 -21.193  0.00  0.00    -0.004 C 
ATOM     36  C   UNL     1      32.337 -13.056 -22.178  0.00  0.00    -0.000 C 
ATOM     37  C   UNL     1      33.472 -14.083 -20.309  0.00  0.00    -0.000 C 
ATOM     38  C   UNL     1      32.516 -13.195 -20.802  0.00  0.00    -0.000 C 
ENDBRANCH  32  33
ENDBRANCH  31  32
ENDBRANCH  30  31
ENDBRANCH  29  30
ENDBRANCH  28  29
ENDBRANCH  22  28
ENDBRANCH   3  23
TORSDOF 9
ENDMDL
MODEL 6
REMARK VINA RESULT:     -11.5      1.982      4.467
REMARK  Name = 4887
REMARK  9 active torsions:
REMARK  status: ('A' for Active; 'I' for Inactive)
REMARK    1  A    between atoms: N_2  and  C_8
REMARK    2  A    between atoms: C_3  and  C_23
REMARK    3  A    between atoms: C_14  and  C_20
REMARK    4  A    between atoms: C_22  and  O_28
REMARK    5  A    between atoms: O_28  and  C_29
REMARK    6  A    between atoms: C_29  and  C_30
REMARK    7  A    between atoms: C_30  and  C_31
REMARK    8  A    between atoms: C_31  and  C_32
REMARK    9  A    between atoms: C_32  and  C_33
REMARK                            x       y       z     vdW  Elec       q    Type
REMARK                         _______ _______ _______ _____ _____    ______ ____
ROOT
ATOM      1  O   UNL     1      33.522 -23.895 -18.224  0.00  0.00    -0.270 OA
ATOM      2  N   UNL     1      32.164 -22.214 -17.296  0.00  0.00    -0.278 N 
ATOM      3  C   UNL     1      33.132 -22.733 -18.165  0.00  0.00    +0.250 C 
ATOM      4  H   UNL     1      31.973 -21.253 -17.388  0.00  0.00    +0.155 HD
ENDROOT
BRANCH   2   8
ATOM      5  O   UNL     1      33.446 -23.405 -15.184  0.00  0.00    -0.442 OA
ATOM      6  O   UNL     1      31.442 -25.412 -12.262  0.00  0.00    -0.286 OA
ATOM      7  C   UNL     1      32.079 -23.504 -15.236  0.00  0.00    +0.163 C 
ATOM      8  C   UNL     1      31.437 -22.894 -16.315  0.00  0.00    +0.086 C 
ATOM      9  C   UNL     1      31.331 -24.175 -14.272  0.00  0.00    +0.075 C 
ATOM     10  C   UNL     1      30.048 -22.960 -16.424  0.00  0.00    +0.018 C 
ATOM     11  C   UNL     1      29.940 -24.243 -14.376  0.00  0.00    +0.006 C 
ATOM     12  C   UNL     1      32.034 -24.807 -13.146  0.00  0.00    +0.202 C 
ATOM     13  C   UNL     1      29.301 -23.633 -15.456  0.00  0.00    +0.002 C 
ATOM     14  C   UNL     1      34.121 -24.002 -14.124  0.00  0.00    +0.213 C 
ATOM     15  C   UNL     1      33.504 -24.673 -13.138  0.00  0.00    +0.090 C 
BRANCH  14  20
ATOM     16  N   UNL     1      36.284 -23.714 -15.309  0.00  0.00    -0.107 NA
ATOM     17  N   UNL     1      36.277 -23.751 -13.044  0.00  0.00    -0.084 NA
ATOM     18  N   UNL     1      37.497 -23.572 -14.756  0.00  0.00    -0.140 N 
ATOM     19  N   UNL     1      37.540 -23.588 -13.417  0.00  0.00    -0.022 NA
ATOM     20  C   UNL     1      35.552 -23.822 -14.197  0.00  0.00    +0.109 C 
ATOM     21  H   UNL     1      38.309 -23.462 -15.301  0.00  0.00    +0.197 HD
ENDBRANCH  14  20
ENDBRANCH   2   8
BRANCH   3  23
ATOM     22  C   UNL     1      34.920 -19.895 -20.815  0.00  0.00    +0.139 C 
ATOM     23  C   UNL     1      33.754 -21.747 -19.086  0.00  0.00    +0.054 C 
ATOM     24  C   UNL     1      33.531 -19.976 -20.714  0.00  0.00    +0.037 C 
ATOM     25  C   UNL     1      35.726 -20.739 -20.052  0.00  0.00    +0.037 C 
ATOM     26  C   UNL     1      32.948 -20.903 -19.850  0.00  0.00    +0.008 C 
ATOM     27  C   UNL     1      35.144 -21.665 -19.187  0.00  0.00    +0.008 C 
BRANCH  22  28
ATOM     28  O   UNL     1      35.489 -18.989 -21.657  0.00  0.00    -0.475 OA
BRANCH  28  29
ATOM     29  C   UNL     1      35.796 -17.704 -21.118  0.00  0.00    +0.205 C 
BRANCH  29  30
ATOM     30  C   UNL     1      35.057 -16.644 -21.923  0.00  0.00    +0.048 C 
BRANCH  30  31
ATOM     31  C   UNL     1      35.625 -16.514 -23.336  0.00  0.00    +0.009 C 
BRANCH  31  32
ATOM     32  C   UNL     1      34.620 -15.848 -24.277  0.00  0.00    +0.026 C 
BRANCH  32  33
ATOM     33  C   UNL     1      33.597 -16.833 -24.787  0.00  0.00    -0.022 C 
ATOM     34  C   UNL     1      33.722 -18.187 -24.479  0.00  0.00    -0.004 C 
ATOM     35  C   UNL     1      32.529 -16.390 -25.565  0.00  0.00    -0.004 C 
ATOM     36  C   UNL     1      32.778 -19.099 -24.951  0.00  0.00    -0.000 C 
ATOM     37  C   UNL     1      31.584 -17.301 -26.036  0.00  0.00    -0.000 C 
ATOM     38  C   UNL     1      31.708 -18.655 -25.729  0.00  0.00    -0.000 C 
ENDBRANCH  32  33
ENDBRANCH  31  32
ENDBRANCH  30  31
ENDBRANCH  29  30
ENDBRANCH  28  29
ENDBRANCH  22  28
ENDBRANCH   3  23
TORSDOF 9
ENDMDL
MODEL 7
REMARK VINA RESULT:     -11.1      1.648      2.373
REMARK  Name = 4887
REMARK  9 active torsions:
REMARK  status: ('A' for Active; 'I' for Inactive)
REMARK    1  A    between atoms: N_2  and  C_8
REMARK    2  A    between atoms: C_3  and  C_23
REMARK    3  A    between atoms: C_14  and  C_20
REMARK    4  A    between atoms: C_22  and  O_28
REMARK    5  A    between atoms: O_28  and  C_29
REMARK    6  A    between atoms: C_29  and  C_30
REMARK    7  A    between atoms: C_30  and  C_31
REMARK    8  A    between atoms: C_31  and  C_32
REMARK    9  A    between atoms: C_32  and  C_33
REMARK                            x       y       z     vdW  Elec       q    Type
REMARK                         _______ _______ _______ _____ _____    ______ ____
ROOT
ATOM      1  O   UNL     1      37.034 -22.461 -18.572  0.00  0.00    -0.270 OA
ATOM      2  N   UNL     1      35.389 -21.688 -17.081  0.00  0.00    -0.278 N 
ATOM      3  C   UNL     1      36.046 -21.782 -18.314  0.00  0.00    +0.250 C 
ATOM      4  H   UNL     1      34.606 -21.092 -17.053  0.00  0.00    +0.155 HD
ENDROOT
BRANCH   2   8
ATOM      5  O   UNL     1      33.421 -22.773 -15.509  0.00  0.00    -0.442 OA
ATOM      6  O   UNL     1      34.228 -24.688 -12.007  0.00  0.00    -0.286 OA
ATOM      7  C   UNL     1      34.717 -22.892 -15.077  0.00  0.00    +0.163 C 
ATOM      8  C   UNL     1      35.711 -22.336 -15.885  0.00  0.00    +0.086 C 
ATOM      9  C   UNL     1      35.065 -23.533 -13.891  0.00  0.00    +0.075 C 
ATOM     10  C   UNL     1      37.048 -22.424 -15.499  0.00  0.00    +0.018 C 
ATOM     11  C   UNL     1      36.403 -23.624 -13.501  0.00  0.00    +0.006 C 
ATOM     12  C   UNL     1      33.998 -24.109 -13.060  0.00  0.00    +0.202 C 
ATOM     13  C   UNL     1      37.394 -23.067 -14.310  0.00  0.00    +0.002 C 
ATOM     14  C   UNL     1      32.404 -23.314 -14.730  0.00  0.00    +0.213 C 
ATOM     15  C   UNL     1      32.621 -23.954 -13.569  0.00  0.00    +0.090 C 
BRANCH  14  20
ATOM     16  N   UNL     1      30.813 -22.869 -16.584  0.00  0.00    -0.107 NA
ATOM     17  N   UNL     1      29.995 -23.171 -14.493  0.00  0.00    -0.084 NA
ATOM     18  N   UNL     1      29.478 -22.782 -16.502  0.00  0.00    -0.140 N 
ATOM     19  N   UNL     1      28.950 -22.953 -15.282  0.00  0.00    -0.022 NA
ATOM     20  C   UNL     1      31.093 -23.115 -15.301  0.00  0.00    +0.109 C 
ATOM     21  H   UNL     1      28.918 -22.601 -17.291  0.00  0.00    +0.197 HD
ENDBRANCH  14  20
ENDBRANCH   2   8
BRANCH   3  23
ATOM     22  C   UNL     1      34.412 -19.370 -21.443  0.00  0.00    +0.139 C 
ATOM     23  C   UNL     1      35.478 -20.943 -19.402  0.00  0.00    +0.054 C 
ATOM     24  C   UNL     1      33.604 -20.294 -20.780  0.00  0.00    +0.037 C 
ATOM     25  C   UNL     1      35.753 -19.233 -21.086  0.00  0.00    +0.037 C 
ATOM     26  C   UNL     1      34.137 -21.081 -19.760  0.00  0.00    +0.008 C 
ATOM     27  C   UNL     1      36.287 -20.019 -20.065  0.00  0.00    +0.008 C 
BRANCH  22  28
ATOM     28  O   UNL     1      33.891 -18.601 -22.438  0.00  0.00    -0.475 OA
BRANCH  28  29
ATOM     29  C   UNL     1      34.813 -18.010 -23.352  0.00  0.00    +0.205 C 
BRANCH  29  30
ATOM     30  C   UNL     1      34.032 -17.263 -24.424  0.00  0.00    +0.048 C 
BRANCH  30  31
ATOM     31  C   UNL     1      34.287 -15.758 -24.362  0.00  0.00    +0.009 C 
BRANCH  31  32
ATOM     32  C   UNL     1      34.874 -15.352 -23.008  0.00  0.00    +0.026 C 
BRANCH  32  33
ATOM     33  C   UNL     1      33.920 -14.484 -22.226  0.00  0.00    -0.022 C 
ATOM     34  C   UNL     1      33.721 -14.717 -20.866  0.00  0.00    -0.004 C 
ATOM     35  C   UNL     1      33.237 -13.449 -22.863  0.00  0.00    -0.004 C 
ATOM     36  C   UNL     1      32.838 -13.916 -20.142  0.00  0.00    -0.000 C 
ATOM     37  C   UNL     1      32.354 -12.647 -22.140  0.00  0.00    -0.000 C 
ATOM     38  C   UNL     1      32.155 -12.880 -20.779  0.00  0.00    -0.000 C 
ENDBRANCH  32  33
ENDBRANCH  31  32
ENDBRANCH  30  31
ENDBRANCH  29  30
ENDBRANCH  28  29
ENDBRANCH  22  28
ENDBRANCH   3  23
TORSDOF 9
ENDMDL
MODEL 8
REMARK VINA RESULT:     -10.4      1.296      2.417
REMARK  Name = 4887
REMARK  9 active torsions:
REMARK  status: ('A' for Active; 'I' for Inactive)
REMARK    1  A    between atoms: N_2  and  C_8
REMARK    2  A    between atoms: C_3  and  C_23
REMARK    3  A    between atoms: C_14  and  C_20
REMARK    4  A    between atoms: C_22  and  O_28
REMARK    5  A    between atoms: O_28  and  C_29
REMARK    6  A    between atoms: C_29  and  C_30
REMARK    7  A    between atoms: C_30  and  C_31
REMARK    8  A    between atoms: C_31  and  C_32
REMARK    9  A    between atoms: C_32  and  C_33
REMARK                            x       y       z     vdW  Elec       q    Type
REMARK                         _______ _______ _______ _____ _____    ______ ____
ROOT
ATOM      1  O   UNL     1      33.505 -24.158 -18.244  0.00  0.00    -0.270 OA
ATOM      2  N   UNL     1      33.610 -22.587 -16.498  0.00  0.00    -0.278 N 
ATOM      3  C   UNL     1      33.625 -23.009 -17.833  0.00  0.00    +0.250 C 
ATOM      4  H   UNL     1      33.720 -21.621 -16.349  0.00  0.00    +0.155 HD
ENDROOT
BRANCH   2   8
ATOM      5  O   UNL     1      31.111 -23.288 -15.611  0.00  0.00    -0.442 OA
ATOM      6  O   UNL     1      30.532 -25.571 -12.289  0.00  0.00    -0.286 OA
ATOM      7  C   UNL     1      32.190 -23.734 -14.891  0.00  0.00    +0.163 C 
ATOM      8  C   UNL     1      33.456 -23.372 -15.351  0.00  0.00    +0.086 C 
ATOM      9  C   UNL     1      32.064 -24.518 -13.746  0.00  0.00    +0.075 C 
ATOM     10  C   UNL     1      34.592 -23.795 -14.662  0.00  0.00    +0.018 C 
ATOM     11  C   UNL     1      33.199 -24.944 -13.053  0.00  0.00    +0.006 C 
ATOM     12  C   UNL     1      30.718 -24.885 -13.285  0.00  0.00    +0.202 C 
ATOM     13  C   UNL     1      34.465 -24.580 -13.515  0.00  0.00    +0.002 C 
ATOM     14  C   UNL     1      29.832 -23.629 -15.182  0.00  0.00    +0.213 C 
ATOM     15  C   UNL     1      29.592 -24.379 -14.094  0.00  0.00    +0.090 C 
BRANCH  14  20
ATOM     16  N   UNL     1      28.044 -22.014 -15.783  0.00  0.00    -0.107 NA
ATOM     17  N   UNL     1      28.508 -23.709 -17.211  0.00  0.00    -0.084 NA
ATOM     18  N   UNL     1      27.288 -22.018 -16.889  0.00  0.00    -0.140 N 
ATOM     19  N   UNL     1      27.528 -23.004 -17.764  0.00  0.00    -0.022 NA
ATOM     20  C   UNL     1      28.794 -23.092 -16.029  0.00  0.00    +0.109 C 
ATOM     21  H   UNL     1      26.597 -21.336 -17.051  0.00  0.00    +0.197 HD
ENDBRANCH  14  20
ENDBRANCH   2   8
BRANCH   3  23
ATOM     22  C   UNL     1      34.231 -19.913 -20.719  0.00  0.00    +0.139 C 
ATOM     23  C   UNL     1      33.836 -21.933 -18.836  0.00  0.00    +0.054 C 
ATOM     24  C   UNL     1      35.329 -20.537 -20.125  0.00  0.00    +0.037 C 
ATOM     25  C   UNL     1      32.937 -20.298 -20.372  0.00  0.00    +0.037 C 
ATOM     26  C   UNL     1      35.131 -21.547 -19.183  0.00  0.00    +0.008 C 
ATOM     27  C   UNL     1      32.738 -21.308 -19.431  0.00  0.00    +0.008 C 
BRANCH  22  28
ATOM     28  O   UNL     1      34.425 -18.929 -21.640  0.00  0.00    -0.475 OA
BRANCH  28  29
ATOM     29  C   UNL     1      34.780 -17.639 -21.145  0.00  0.00    +0.205 C 
BRANCH  29  30
ATOM     30  C   UNL     1      35.841 -17.038 -22.056  0.00  0.00    +0.048 C 
BRANCH  30  31
ATOM     31  C   UNL     1      35.674 -17.507 -23.501  0.00  0.00    +0.009 C 
BRANCH  31  32
ATOM     32  C   UNL     1      34.942 -16.459 -24.342  0.00  0.00    +0.026 C 
BRANCH  32  33
ATOM     33  C   UNL     1      33.661 -17.006 -24.921  0.00  0.00    -0.022 C 
ATOM     34  C   UNL     1      33.345 -18.355 -24.762  0.00  0.00    -0.004 C 
ATOM     35  C   UNL     1      32.794 -16.164 -25.615  0.00  0.00    -0.004 C 
ATOM     36  C   UNL     1      32.161 -18.862 -25.298  0.00  0.00    -0.000 C 
ATOM     37  C   UNL     1      31.609 -16.669 -26.150  0.00  0.00    -0.000 C 
ATOM     38  C   UNL     1      31.293 -18.018 -25.991  0.00  0.00    -0.000 C 
ENDBRANCH  32  33
ENDBRANCH  31  32
ENDBRANCH  30  31
ENDBRANCH  29  30
ENDBRANCH  28  29
ENDBRANCH  22  28
ENDBRANCH   3  23
TORSDOF 9
ENDMDL
