MODEL 1
REMARK VINA RESULT:     -11.9      0.000      0.000
REMARK  Name = 46207733
REMARK  4 active torsions:
REMARK  status: ('A' for Active; 'I' for Inactive)
REMARK    1  A    between atoms: N_2  and  C_16
REMARK    2  A    between atoms: C_10  and  C_24
REMARK    3  A    between atoms: C_17  and  O_22
REMARK    4  A    between atoms: C_24  and  C_26
REMARK                            x       y       z     vdW  Elec       q    Type
REMARK                         _______ _______ _______ _____ _____    ______ ____
ROOT
ATOM      1  O   UNL     1      36.443 -22.178 -18.021  0.00  0.00    -0.274 OA
ATOM      2  N   UNL     1      34.616 -21.393 -19.231  0.00  0.00    -0.257 N 
ATOM      3  N   UNL     1      32.403 -21.760 -18.457  0.00  0.00    -0.252 NA
ATOM      4  C   UNL     1      35.231 -22.048 -18.163  0.00  0.00    +0.236 C 
ATOM      5  C   UNL     1      33.242 -21.289 -19.316  0.00  0.00    +0.222 C 
ATOM      6  C   UNL     1      34.298 -22.604 -17.154  0.00  0.00    +0.138 C 
ATOM      7  C   UNL     1      32.915 -22.443 -17.334  0.00  0.00    +0.068 C 
ATOM      8  C   UNL     1      32.020 -22.976 -16.369  0.00  0.00    +0.014 C 
ATOM      9  C   UNL     1      34.804 -23.279 -16.043  0.00  0.00    -0.015 C 
ATOM     10  C   UNL     1      33.929 -23.803 -15.096  0.00  0.00    -0.021 C 
ATOM     11  C   UNL     1      32.542 -23.661 -15.243  0.00  0.00    -0.003 C 
ATOM     12  C   UNL     1      30.617 -22.856 -16.478  0.00  0.00    +0.001 C 
ATOM     13  C   UNL     1      31.668 -24.193 -14.280  0.00  0.00    -0.000 C 
ATOM     14  C   UNL     1      29.762 -23.391 -15.512  0.00  0.00    +0.000 C 
ATOM     15  C   UNL     1      30.288 -24.060 -14.415  0.00  0.00    -0.000 C 
ENDROOT
BRANCH   2  16
ATOM     16  C   UNL     1      35.435 -20.814 -20.272  0.00  0.00    +0.104 C 
ATOM     17  C   UNL     1      36.276 -19.657 -19.717  0.00  0.00    +0.129 C 
ATOM     18  C   UNL     1      34.556 -20.362 -21.442  0.00  0.00    +0.022 C 
ATOM     19  C   UNL     1      37.067 -18.951 -20.819  0.00  0.00    +0.031 C 
ATOM     20  C   UNL     1      35.367 -19.668 -22.531  0.00  0.00    +0.002 C 
ATOM     21  C   UNL     1      36.173 -18.503 -21.968  0.00  0.00    +0.003 C 
BRANCH  17  22
ATOM     22  O   UNL     1      37.195 -20.174 -18.755  0.00  0.00    -0.383 OA
ATOM     23  H   UNL     1      37.635 -19.438 -18.301  0.00  0.00    +0.210 HD
ENDBRANCH  17  22
ENDBRANCH   2  16
BRANCH  10  24
ATOM     24  C   UNL     1      34.538 -24.516 -13.928  0.00  0.00    +0.054 C 
BRANCH  24  26
ATOM     25  N   UNL     1      38.303 -24.055 -13.945  0.00  0.00    -0.248 NA
ATOM     26  C   UNL     1      36.012 -24.813 -14.097  0.00  0.00    +0.001 C 
ATOM     27  C   UNL     1      36.445 -26.057 -14.544  0.00  0.00    -0.001 C 
ATOM     28  C   UNL     1      36.971 -23.855 -13.814  0.00  0.00    +0.094 C 
ATOM     29  C   UNL     1      37.806 -26.301 -14.691  0.00  0.00    +0.014 C 
ATOM     30  C   UNL     1      38.686 -25.276 -14.380  0.00  0.00    +0.059 C 
ATOM     31  C   UNL     1      40.155 -25.502 -14.527  0.00  0.00    +0.052 C 
ENDBRANCH  24  26
ENDBRANCH  10  24
TORSDOF 4
ENDMDL
MODEL 2
REMARK VINA RESULT:     -11.6      1.843      5.457
REMARK  Name = 46207733
REMARK  4 active torsions:
REMARK  status: ('A' for Active; 'I' for Inactive)
REMARK    1  A    between atoms: N_2  and  C_16
REMARK    2  A    between atoms: C_10  and  C_24
REMARK    3  A    between atoms: C_17  and  O_22
REMARK    4  A    between atoms: C_24  and  C_26
REMARK                            x       y       z     vdW  Elec       q    Type
REMARK                         _______ _______ _______ _____ _____    ______ ____
ROOT
ATOM      1  O   UNL     1      32.562 -22.377 -18.555  0.00  0.00    -0.274 OA
ATOM      2  N   UNL     1      34.830 -21.866 -18.445  0.00  0.00    -0.257 N 
ATOM      3  N   UNL     1      36.094 -22.381 -16.503  0.00  0.00    -0.252 NA
ATOM      4  C   UNL     1      33.628 -22.372 -17.948  0.00  0.00    +0.236 C 
ATOM      5  C   UNL     1      35.989 -21.899 -17.696  0.00  0.00    +0.222 C 
ATOM      6  C   UNL     1      33.708 -22.934 -16.578  0.00  0.00    +0.138 C 
ATOM      7  C   UNL     1      34.938 -22.919 -15.901  0.00  0.00    +0.068 C 
ATOM      8  C   UNL     1      35.017 -23.457 -14.589  0.00  0.00    +0.014 C 
ATOM      9  C   UNL     1      32.566 -23.467 -15.981  0.00  0.00    -0.015 C 
ATOM     10  C   UNL     1      32.641 -23.994 -14.696  0.00  0.00    -0.021 C 
ATOM     11  C   UNL     1      33.851 -23.997 -13.989  0.00  0.00    -0.003 C 
ATOM     12  C   UNL     1      36.216 -23.479 -13.842  0.00  0.00    +0.001 C 
ATOM     13  C   UNL     1      33.915 -24.531 -12.691  0.00  0.00    -0.000 C 
ATOM     14  C   UNL     1      36.261 -24.014 -12.553  0.00  0.00    +0.000 C 
ATOM     15  C   UNL     1      35.112 -24.539 -11.978  0.00  0.00    -0.000 C 
ENDROOT
BRANCH   2  16
ATOM     16  C   UNL     1      34.862 -21.294 -19.772  0.00  0.00    +0.104 C 
ATOM     17  C   UNL     1      36.089 -20.388 -19.941  0.00  0.00    +0.129 C 
ATOM     18  C   UNL     1      33.559 -20.535 -20.048  0.00  0.00    +0.022 C 
ATOM     19  C   UNL     1      36.088 -19.679 -21.296  0.00  0.00    +0.031 C 
ATOM     20  C   UNL     1      33.578 -19.842 -21.406  0.00  0.00    +0.002 C 
ATOM     21  C   UNL     1      34.789 -18.925 -21.546  0.00  0.00    +0.003 C 
BRANCH  17  22
ATOM     22  O   UNL     1      37.268 -21.186 -19.845  0.00  0.00    -0.383 OA
ATOM     23  H   UNL     1      37.094 -21.955 -19.279  0.00  0.00    +0.210 HD
ENDBRANCH  17  22
ENDBRANCH   2  16
BRANCH  10  24
ATOM     24  C   UNL     1      31.377 -24.550 -14.115  0.00  0.00    +0.054 C 
BRANCH  24  26
ATOM     25  N   UNL     1      28.600 -22.088 -14.895  0.00  0.00    -0.248 NA
ATOM     26  C   UNL     1      30.120 -23.959 -14.714  0.00  0.00    +0.001 C 
ATOM     27  C   UNL     1      29.337 -24.691 -15.600  0.00  0.00    -0.001 C 
ATOM     28  C   UNL     1      29.712 -22.674 -14.396  0.00  0.00    +0.094 C 
ATOM     29  C   UNL     1      28.186 -24.122 -16.135  0.00  0.00    +0.014 C 
ATOM     30  C   UNL     1      27.864 -22.829 -15.754  0.00  0.00    +0.059 C 
ATOM     31  C   UNL     1      26.636 -22.187 -16.308  0.00  0.00    +0.052 C 
ENDBRANCH  24  26
ENDBRANCH  10  24
TORSDOF 4
ENDMDL
MODEL 3
REMARK VINA RESULT:     -11.3      2.621      7.096
REMARK  Name = 46207733
REMARK  4 active torsions:
REMARK  status: ('A' for Active; 'I' for Inactive)
REMARK    1  A    between atoms: N_2  and  C_16
REMARK    2  A    between atoms: C_10  and  C_24
REMARK    3  A    between atoms: C_17  and  O_22
REMARK    4  A    between atoms: C_24  and  C_26
REMARK                            x       y       z     vdW  Elec       q    Type
REMARK                         _______ _______ _______ _____ _____    ______ ____
ROOT
ATOM      1  O   UNL     1      31.782 -22.878 -16.314  0.00  0.00    -0.274 OA
ATOM      2  N   UNL     1      31.132 -23.877 -14.314  0.00  0.00    -0.257 N 
ATOM      3  N   UNL     1      32.750 -24.525 -12.703  0.00  0.00    -0.252 NA
ATOM      4  C   UNL     1      32.061 -23.376 -15.227  0.00  0.00    +0.236 C 
ATOM      5  C   UNL     1      31.530 -24.421 -13.110  0.00  0.00    +0.222 C 
ATOM      6  C   UNL     1      33.475 -23.477 -14.796  0.00  0.00    +0.138 C 
ATOM      7  C   UNL     1      33.774 -24.049 -13.548  0.00  0.00    +0.068 C 
ATOM      8  C   UNL     1      35.128 -24.147 -13.133  0.00  0.00    +0.014 C 
ATOM      9  C   UNL     1      34.489 -23.007 -15.631  0.00  0.00    -0.015 C 
ATOM     10  C   UNL     1      35.817 -23.103 -15.227  0.00  0.00    -0.021 C 
ATOM     11  C   UNL     1      36.152 -23.667 -13.988  0.00  0.00    -0.003 C 
ATOM     12  C   UNL     1      35.510 -24.709 -11.894  0.00  0.00    +0.001 C 
ATOM     13  C   UNL     1      37.497 -23.759 -13.590  0.00  0.00    -0.000 C 
ATOM     14  C   UNL     1      36.851 -24.792 -11.515  0.00  0.00    +0.000 C 
ATOM     15  C   UNL     1      37.843 -24.318 -12.362  0.00  0.00    -0.000 C 
ENDROOT
BRANCH   2  16
ATOM     16  C   UNL     1      29.724 -23.828 -14.638  0.00  0.00    +0.104 C 
ATOM     17  C   UNL     1      29.432 -24.645 -15.903  0.00  0.00    +0.129 C 
ATOM     18  C   UNL     1      29.271 -22.372 -14.790  0.00  0.00    +0.022 C 
ATOM     19  C   UNL     1      27.970 -24.517 -16.335  0.00  0.00    +0.031 C 
ATOM     20  C   UNL     1      27.810 -22.269 -15.214  0.00  0.00    +0.002 C 
ATOM     21  C   UNL     1      27.543 -23.064 -16.488  0.00  0.00    +0.003 C 
BRANCH  17  22
ATOM     22  O   UNL     1      29.711 -26.019 -15.640  0.00  0.00    -0.383 OA
ATOM     23  H   UNL     1      28.974 -26.410 -15.143  0.00  0.00    +0.210 HD
ENDBRANCH  17  22
ENDBRANCH   2  16
BRANCH  10  24
ATOM     24  C   UNL     1      36.854 -22.578 -16.171  0.00  0.00    +0.054 C 
BRANCH  24  26
ATOM     25  N   UNL     1      36.517 -20.432 -19.280  0.00  0.00    -0.248 NA
ATOM     26  C   UNL     1      36.279 -21.975 -17.433  0.00  0.00    +0.001 C 
ATOM     27  C   UNL     1      35.035 -22.370 -17.913  0.00  0.00    -0.001 C 
ATOM     28  C   UNL     1      36.974 -21.012 -18.147  0.00  0.00    +0.094 C 
ATOM     29  C   UNL     1      34.531 -21.797 -19.076  0.00  0.00    +0.014 C 
ATOM     30  C   UNL     1      35.304 -20.842 -19.716  0.00  0.00    +0.059 C 
ATOM     31  C   UNL     1      34.795 -20.206 -20.967  0.00  0.00    +0.052 C 
ENDBRANCH  24  26
ENDBRANCH  10  24
TORSDOF 4
ENDMDL
MODEL 4
REMARK VINA RESULT:     -11.0     11.477     16.992
REMARK  Name = 46207733
REMARK  4 active torsions:
REMARK  status: ('A' for Active; 'I' for Inactive)
REMARK    1  A    between atoms: N_2  and  C_16
REMARK    2  A    between atoms: C_10  and  C_24
REMARK    3  A    between atoms: C_17  and  O_22
REMARK    4  A    between atoms: C_24  and  C_26
REMARK                            x       y       z     vdW  Elec       q    Type
REMARK                         _______ _______ _______ _____ _____    ______ ____
ROOT
ATOM      1  O   UNL     1      35.473 -10.858 -25.052  0.00  0.00    -0.274 OA
ATOM      2  N   UNL     1      33.812 -11.906 -23.802  0.00  0.00    -0.257 N 
ATOM      3  N   UNL     1      32.399 -10.648 -22.369  0.00  0.00    -0.252 NA
ATOM      4  C   UNL     1      34.548 -10.807 -24.246  0.00  0.00    +0.236 C 
ATOM      5  C   UNL     1      32.784 -11.763 -22.892  0.00  0.00    +0.222 C 
ATOM      6  C   UNL     1      34.136  -9.506 -23.667  0.00  0.00    +0.138 C 
ATOM      7  C   UNL     1      33.075  -9.469 -22.747  0.00  0.00    +0.068 C 
ATOM      8  C   UNL     1      32.678  -8.224 -22.191  0.00  0.00    +0.014 C 
ATOM      9  C   UNL     1      34.804  -8.340 -24.040  0.00  0.00    -0.015 C 
ATOM     10  C   UNL     1      34.417  -7.119 -23.496  0.00  0.00    -0.021 C 
ATOM     11  C   UNL     1      33.363  -7.044 -22.575  0.00  0.00    -0.003 C 
ATOM     12  C   UNL     1      31.622  -8.103 -21.261  0.00  0.00    +0.001 C 
ATOM     13  C   UNL     1      32.981  -5.805 -22.033  0.00  0.00    -0.000 C 
ATOM     14  C   UNL     1      31.256  -6.865 -20.731  0.00  0.00    +0.000 C 
ATOM     15  C   UNL     1      31.935  -5.717 -21.117  0.00  0.00    -0.000 C 
ENDROOT
BRANCH   2  16
ATOM     16  C   UNL     1      34.134 -13.223 -24.304  0.00  0.00    +0.104 C 
ATOM     17  C   UNL     1      33.120 -13.657 -25.371  0.00  0.00    +0.129 C 
ATOM     18  C   UNL     1      34.198 -14.225 -23.147  0.00  0.00    +0.022 C 
ATOM     19  C   UNL     1      33.368 -15.092 -25.839  0.00  0.00    +0.031 C 
ATOM     20  C   UNL     1      34.454 -15.647 -23.637  0.00  0.00    +0.002 C 
ATOM     21  C   UNL     1      33.420 -16.072 -24.675  0.00  0.00    +0.003 C 
BRANCH  17  22
ATOM     22  O   UNL     1      33.232 -12.785 -26.496  0.00  0.00    -0.383 OA
ATOM     23  H   UNL     1      32.353 -12.638 -26.880  0.00  0.00    +0.210 HD
ENDBRANCH  17  22
ENDBRANCH   2  16
BRANCH  10  24
ATOM     24  C   UNL     1      35.177  -5.906 -23.939  0.00  0.00    +0.054 C 
BRANCH  24  26
ATOM     25  N   UNL     1      35.371  -4.662 -27.517  0.00  0.00    -0.248 NA
ATOM     26  C   UNL     1      34.751  -5.384 -25.294  0.00  0.00    +0.001 C 
ATOM     27  C   UNL     1      33.412  -5.144 -25.581  0.00  0.00    -0.001 C 
ATOM     28  C   UNL     1      35.683  -5.129 -26.287  0.00  0.00    +0.094 C 
ATOM     29  C   UNL     1      33.051  -4.663 -26.835  0.00  0.00    +0.014 C 
ATOM     30  C   UNL     1      34.059  -4.441 -27.759  0.00  0.00    +0.059 C 
ATOM     31  C   UNL     1      33.708  -3.925 -29.116  0.00  0.00    +0.052 C 
ENDBRANCH  24  26
ENDBRANCH  10  24
TORSDOF 4
ENDMDL
MODEL 5
REMARK VINA RESULT:     -10.7      5.163      8.949
REMARK  Name = 46207733
REMARK  4 active torsions:
REMARK  status: ('A' for Active; 'I' for Inactive)
REMARK    1  A    between atoms: N_2  and  C_16
REMARK    2  A    between atoms: C_10  and  C_24
REMARK    3  A    between atoms: C_17  and  O_22
REMARK    4  A    between atoms: C_24  and  C_26
REMARK                            x       y       z     vdW  Elec       q    Type
REMARK                         _______ _______ _______ _____ _____    ______ ____
ROOT
ATOM      1  O   UNL     1      34.869 -14.104 -20.538  0.00  0.00    -0.274 OA
ATOM      2  N   UNL     1      33.649 -13.698 -22.479  0.00  0.00    -0.257 N 
ATOM      3  N   UNL     1      33.326 -15.415 -24.086  0.00  0.00    -0.252 NA
ATOM      4  C   UNL     1      34.402 -14.487 -21.607  0.00  0.00    +0.236 C 
ATOM      5  C   UNL     1      33.157 -14.207 -23.664  0.00  0.00    +0.222 C 
ATOM      6  C   UNL     1      34.618 -15.882 -22.057  0.00  0.00    +0.138 C 
ATOM      7  C   UNL     1      34.074 -16.300 -23.282  0.00  0.00    +0.068 C 
ATOM      8  C   UNL     1      34.280 -17.636 -23.716  0.00  0.00    +0.014 C 
ATOM      9  C   UNL     1      35.357 -16.759 -21.263  0.00  0.00    -0.015 C 
ATOM     10  C   UNL     1      35.561 -18.068 -21.686  0.00  0.00    -0.021 C 
ATOM     11  C   UNL     1      35.032 -18.521 -22.904  0.00  0.00    -0.003 C 
ATOM     12  C   UNL     1      33.765 -18.134 -24.934  0.00  0.00    +0.001 C 
ATOM     13  C   UNL     1      35.245 -19.846 -23.321  0.00  0.00    -0.000 C 
ATOM     14  C   UNL     1      33.986 -19.453 -25.334  0.00  0.00    +0.000 C 
ATOM     15  C   UNL     1      34.725 -20.308 -24.528  0.00  0.00    -0.000 C 
ENDROOT
BRANCH   2  16
ATOM     16  C   UNL     1      33.380 -12.320 -22.134  0.00  0.00    +0.104 C 
ATOM     17  C   UNL     1      31.981 -12.180 -21.521  0.00  0.00    +0.129 C 
ATOM     18  C   UNL     1      33.548 -11.428 -23.368  0.00  0.00    +0.022 C 
ATOM     19  C   UNL     1      31.624 -10.717 -21.252  0.00  0.00    +0.031 C 
ATOM     20  C   UNL     1      33.194  -9.974 -23.074  0.00  0.00    +0.002 C 
ATOM     21  C   UNL     1      31.789  -9.850 -22.493  0.00  0.00    +0.003 C 
BRANCH  17  22
ATOM     22  O   UNL     1      31.944 -12.893 -20.286  0.00  0.00    -0.383 OA
ATOM     23  H   UNL     1      31.023 -13.008 -20.005  0.00  0.00    +0.210 HD
ENDBRANCH  17  22
ENDBRANCH   2  16
BRANCH  10  24
ATOM     24  C   UNL     1      36.364 -18.957 -20.786  0.00  0.00    +0.054 C 
BRANCH  24  26
ATOM     25  N   UNL     1      35.494 -22.054 -18.777  0.00  0.00    -0.248 NA
ATOM     26  C   UNL     1      35.550 -20.048 -20.126  0.00  0.00    +0.001 C 
ATOM     27  C   UNL     1      34.164 -20.076 -20.240  0.00  0.00    -0.001 C 
ATOM     28  C   UNL     1      36.162 -21.050 -19.390  0.00  0.00    +0.094 C 
ATOM     29  C   UNL     1      33.443 -21.093 -19.622  0.00  0.00    +0.014 C 
ATOM     30  C   UNL     1      34.149 -22.048 -18.909  0.00  0.00    +0.059 C 
ATOM     31  C   UNL     1      33.407 -23.154 -18.233  0.00  0.00    +0.052 C 
ENDBRANCH  24  26
ENDBRANCH  10  24
TORSDOF 4
ENDMDL
MODEL 6
REMARK VINA RESULT:     -10.6     10.991     16.405
REMARK  Name = 46207733
REMARK  4 active torsions:
REMARK  status: ('A' for Active; 'I' for Inactive)
REMARK    1  A    between atoms: N_2  and  C_16
REMARK    2  A    between atoms: C_10  and  C_24
REMARK    3  A    between atoms: C_17  and  O_22
REMARK    4  A    between atoms: C_24  and  C_26
REMARK                            x       y       z     vdW  Elec       q    Type
REMARK                         _______ _______ _______ _____ _____    ______ ____
ROOT
ATOM      1  O   UNL     1      34.748 -11.783 -24.578  0.00  0.00    -0.274 OA
ATOM      2  N   UNL     1      33.017 -12.507 -23.200  0.00  0.00    -0.257 N 
ATOM      3  N   UNL     1      31.893 -10.985 -21.767  0.00  0.00    -0.252 NA
ATOM      4  C   UNL     1      33.887 -11.555 -23.733  0.00  0.00    +0.236 C 
ATOM      5  C   UNL     1      32.074 -12.168 -22.251  0.00  0.00    +0.222 C 
ATOM      6  C   UNL     1      33.711 -10.183 -23.201  0.00  0.00    +0.138 C 
ATOM      7  C   UNL     1      32.720  -9.943 -22.235  0.00  0.00    +0.068 C 
ATOM      8  C   UNL     1      32.549  -8.629 -21.724  0.00  0.00    +0.014 C 
ATOM      9  C   UNL     1      34.528  -9.151 -23.664  0.00  0.00    -0.015 C 
ATOM     10  C   UNL     1      34.362  -7.863 -23.164  0.00  0.00    -0.021 C 
ATOM     11  C   UNL     1      33.384  -7.586 -22.199  0.00  0.00    -0.003 C 
ATOM     12  C   UNL     1      31.576  -8.306 -20.752  0.00  0.00    +0.001 C 
ATOM     13  C   UNL     1      33.226  -6.281 -21.702  0.00  0.00    -0.000 C 
ATOM     14  C   UNL     1      31.433  -7.005 -20.269  0.00  0.00    +0.000 C 
ATOM     15  C   UNL     1      32.258  -5.993 -20.743  0.00  0.00    -0.000 C 
ENDROOT
BRANCH   2  16
ATOM     16  C   UNL     1      33.106 -13.878 -23.650  0.00  0.00    +0.104 C 
ATOM     17  C   UNL     1      34.368 -14.549 -23.091  0.00  0.00    +0.129 C 
ATOM     18  C   UNL     1      33.070 -13.931 -25.181  0.00  0.00    +0.022 C 
ATOM     19  C   UNL     1      34.549 -15.964 -23.643  0.00  0.00    +0.031 C 
ATOM     20  C   UNL     1      33.245 -15.351 -25.708  0.00  0.00    +0.002 C 
ATOM     21  C   UNL     1      34.518 -15.993 -25.165  0.00  0.00    +0.003 C 
BRANCH  17  22
ATOM     22  O   UNL     1      34.260 -14.624 -21.671  0.00  0.00    -0.383 OA
ATOM     23  H   UNL     1      34.082 -13.741 -21.312  0.00  0.00    +0.210 HD
ENDBRANCH  17  22
ENDBRANCH   2  16
BRANCH  10  24
ATOM     24  C   UNL     1      35.273  -6.803 -23.703  0.00  0.00    +0.054 C 
BRANCH  24  26
ATOM     25  N   UNL     1      34.783  -4.407 -26.603  0.00  0.00    -0.248 NA
ATOM     26  C   UNL     1      34.601  -5.865 -24.683  0.00  0.00    +0.001 C 
ATOM     27  C   UNL     1      33.241  -5.589 -24.592  0.00  0.00    -0.001 C 
ATOM     28  C   UNL     1      35.321  -5.255 -25.696  0.00  0.00    +0.094 C 
ATOM     29  C   UNL     1      32.651  -4.723 -25.506  0.00  0.00    +0.014 C 
ATOM     30  C   UNL     1      33.458  -4.163 -26.484  0.00  0.00    +0.059 C 
ATOM     31  C   UNL     1      32.859  -3.228 -27.482  0.00  0.00    +0.052 C 
ENDBRANCH  24  26
ENDBRANCH  10  24
TORSDOF 4
ENDMDL
MODEL 7
REMARK VINA RESULT:     -10.5     14.815     20.510
REMARK  Name = 46207733
REMARK  4 active torsions:
REMARK  status: ('A' for Active; 'I' for Inactive)
REMARK    1  A    between atoms: N_2  and  C_16
REMARK    2  A    between atoms: C_10  and  C_24
REMARK    3  A    between atoms: C_17  and  O_22
REMARK    4  A    between atoms: C_24  and  C_26
REMARK                            x       y       z     vdW  Elec       q    Type
REMARK                         _______ _______ _______ _____ _____    ______ ____
ROOT
ATOM      1  O   UNL     1      30.613  -6.135 -21.790  0.00  0.00    -0.274 OA
ATOM      2  N   UNL     1      32.189  -7.814 -22.132  0.00  0.00    -0.257 N 
ATOM      3  N   UNL     1      33.953  -7.519 -23.693  0.00  0.00    -0.252 NA
ATOM      4  C   UNL     1      31.615  -6.562 -22.357  0.00  0.00    +0.236 C 
ATOM      5  C   UNL     1      33.320  -8.218 -22.811  0.00  0.00    +0.222 C 
ATOM      6  C   UNL     1      32.313  -5.728 -23.364  0.00  0.00    +0.138 C 
ATOM      7  C   UNL     1      33.458  -6.235 -24.000  0.00  0.00    +0.068 C 
ATOM      8  C   UNL     1      34.128  -5.438 -24.966  0.00  0.00    +0.014 C 
ATOM      9  C   UNL     1      31.825  -4.457 -23.669  0.00  0.00    -0.015 C 
ATOM     10  C   UNL     1      32.479  -3.676 -24.616  0.00  0.00    -0.021 C 
ATOM     11  C   UNL     1      33.626  -4.148 -25.270  0.00  0.00    -0.003 C 
ATOM     12  C   UNL     1      35.286  -5.875 -25.648  0.00  0.00    +0.001 C 
ATOM     13  C   UNL     1      34.279  -3.349 -26.224  0.00  0.00    -0.000 C 
ATOM     14  C   UNL     1      35.922  -5.068 -26.594  0.00  0.00    +0.000 C 
ATOM     15  C   UNL     1      35.418  -3.807 -26.882  0.00  0.00    -0.000 C 
ENDROOT
BRANCH   2  16
ATOM     16  C   UNL     1      31.585  -8.706 -21.167  0.00  0.00    +0.104 C 
ATOM     17  C   UNL     1      32.401  -8.729 -19.868  0.00  0.00    +0.129 C 
ATOM     18  C   UNL     1      31.441 -10.108 -21.768  0.00  0.00    +0.022 C 
ATOM     19  C   UNL     1      31.851  -9.751 -18.872  0.00  0.00    +0.031 C 
ATOM     20  C   UNL     1      30.885 -11.107 -20.760  0.00  0.00    +0.002 C 
ATOM     21  C   UNL     1      31.724 -11.138 -19.486  0.00  0.00    +0.003 C 
BRANCH  17  22
ATOM     22  O   UNL     1      32.352  -7.436 -19.269  0.00  0.00    -0.383 OA
ATOM     23  H   UNL     1      32.285  -6.760 -19.961  0.00  0.00    +0.210 HD
ENDBRANCH  17  22
ENDBRANCH   2  16
BRANCH  10  24
ATOM     24  C   UNL     1      31.903  -2.322 -24.895  0.00  0.00    +0.054 C 
BRANCH  24  26
ATOM     25  N   UNL     1      29.259  -2.324 -27.615  0.00  0.00    -0.248 NA
ATOM     26  C   UNL     1      31.257  -2.205 -26.258  0.00  0.00    +0.001 C 
ATOM     27  C   UNL     1      32.011  -1.887 -27.383  0.00  0.00    -0.001 C 
ATOM     28  C   UNL     1      29.898  -2.412 -26.425  0.00  0.00    +0.094 C 
ATOM     29  C   UNL     1      31.390  -1.787 -28.623  0.00  0.00    +0.014 C 
ATOM     30  C   UNL     1      30.024  -2.012 -28.685  0.00  0.00    +0.059 C 
ATOM     31  C   UNL     1      29.324  -1.914 -30.000  0.00  0.00    +0.052 C 
ENDBRANCH  24  26
ENDBRANCH  10  24
TORSDOF 4
ENDMDL
MODEL 8
REMARK VINA RESULT:      -9.3     14.430     18.843
REMARK  Name = 46207733
REMARK  4 active torsions:
REMARK  status: ('A' for Active; 'I' for Inactive)
REMARK    1  A    between atoms: N_2  and  C_16
REMARK    2  A    between atoms: C_10  and  C_24
REMARK    3  A    between atoms: C_17  and  O_22
REMARK    4  A    between atoms: C_24  and  C_26
REMARK                            x       y       z     vdW  Elec       q    Type
REMARK                         _______ _______ _______ _____ _____    ______ ____
ROOT
ATOM      1  O   UNL     1      35.635  -5.259 -26.316  0.00  0.00    -0.274 OA
ATOM      2  N   UNL     1      34.122  -3.523 -26.657  0.00  0.00    -0.257 N 
ATOM      3  N   UNL     1      32.268  -3.230 -25.203  0.00  0.00    -0.252 NA
ATOM      4  C   UNL     1      34.624  -4.642 -25.992  0.00  0.00    +0.236 C 
ATOM      5  C   UNL     1      32.977  -2.885 -26.225  0.00  0.00    +0.222 C 
ATOM      6  C   UNL     1      33.837  -5.071 -24.811  0.00  0.00    +0.138 C 
ATOM      7  C   UNL     1      32.685  -4.351 -24.456  0.00  0.00    +0.068 C 
ATOM      8  C   UNL     1      31.929  -4.760 -23.325  0.00  0.00    +0.014 C 
ATOM      9  C   UNL     1      34.248  -6.180 -24.071  0.00  0.00    -0.015 C 
ATOM     10  C   UNL     1      33.509  -6.583 -22.964  0.00  0.00    -0.021 C 
ATOM     11  C   UNL     1      32.353  -5.888 -22.579  0.00  0.00    -0.003 C 
ATOM     12  C   UNL     1      30.759  -4.090 -22.904  0.00  0.00    +0.001 C 
ATOM     13  C   UNL     1      31.614  -6.304 -21.458  0.00  0.00    -0.000 C 
ATOM     14  C   UNL     1      30.037  -4.517 -21.788  0.00  0.00    +0.000 C 
ATOM     15  C   UNL     1      30.464  -5.624 -21.066  0.00  0.00    -0.000 C 
ENDROOT
BRANCH   2  16
ATOM     16  C   UNL     1      34.815  -3.022 -27.823  0.00  0.00    +0.104 C 
ATOM     17  C   UNL     1      35.101  -4.161 -28.810  0.00  0.00    +0.129 C 
ATOM     18  C   UNL     1      36.100  -2.304 -27.401  0.00  0.00    +0.022 C 
ATOM     19  C   UNL     1      35.934  -3.682 -30.000  0.00  0.00    +0.031 C 
ATOM     20  C   UNL     1      36.910  -1.829 -28.604  0.00  0.00    +0.002 C 
ATOM     21  C   UNL     1      37.211  -2.979 -29.560  0.00  0.00    +0.003 C 
BRANCH  17  22
ATOM     22  O   UNL     1      33.862  -4.673 -29.298  0.00  0.00    -0.383 OA
ATOM     23  H   UNL     1      33.795  -5.617 -29.084  0.00  0.00    +0.210 HD
ENDBRANCH  17  22
ENDBRANCH   2  16
BRANCH  10  24
ATOM     24  C   UNL     1      34.005  -7.781 -22.214  0.00  0.00    +0.054 C 
BRANCH  24  26
ATOM     25  N   UNL     1      32.967 -11.166 -23.574  0.00  0.00    -0.248 NA
ATOM     26  C   UNL     1      34.010  -9.052 -23.033  0.00  0.00    +0.001 C 
ATOM     27  C   UNL     1      35.010  -9.297 -23.969  0.00  0.00    -0.001 C 
ATOM     28  C   UNL     1      33.020 -10.009 -22.875  0.00  0.00    +0.094 C 
ATOM     29  C   UNL     1      34.988 -10.476 -24.707  0.00  0.00    +0.014 C 
ATOM     30  C   UNL     1      33.955 -11.369 -24.475  0.00  0.00    +0.059 C 
ATOM     31  C   UNL     1      33.900 -12.644 -25.249  0.00  0.00    +0.052 C 
ENDBRANCH  24  26
ENDBRANCH  10  24
TORSDOF 4
ENDMDL
