MODEL 1
REMARK VINA RESULT:     -12.0      0.000      0.000
REMARK  Name = 24941249
REMARK  6 active torsions:
REMARK  status: ('A' for Active; 'I' for Inactive)
REMARK    1  A    between atoms: N_1  and  C_13
REMARK    2  A    between atoms: N_2  and  C_26
REMARK    3  A    between atoms: C_14  and  C_19
REMARK    4  A    between atoms: C_19  and  C_20
REMARK    5  A    between atoms: C_20  and  C_23
REMARK    6  A    between atoms: C_26  and  C_28
REMARK                            x       y       z     vdW  Elec       q    Type
REMARK                         _______ _______ _______ _____ _____    ______ ____
ROOT
ATOM      1  N   UNL     1      33.151 -13.619 -23.245  0.00  0.00    -0.230 N 
ATOM      2  N   UNL     1      35.222 -17.575 -21.260  0.00  0.00    -0.316 N 
ATOM      3  N   UNL     1      32.979 -13.199 -24.510  0.00  0.00    -0.169 NA
ATOM      4  N   UNL     1      35.113 -17.181 -23.605  0.00  0.00    -0.229 NA
ATOM      5  C   UNL     1      33.800 -14.817 -23.136  0.00  0.00    +0.088 A 
ATOM      6  C   UNL     1      34.072 -15.208 -24.441  0.00  0.00    +0.052 A 
ATOM      7  C   UNL     1      33.541 -14.170 -25.235  0.00  0.00    +0.082 A 
ATOM      8  C   UNL     1      34.166 -15.578 -22.031  0.00  0.00    +0.053 C 
ATOM      9  C   UNL     1      34.824 -16.756 -22.350  0.00  0.00    +0.130 C 
ATOM     10  C   UNL     1      34.740 -16.412 -24.658  0.00  0.00    +0.103 C 
ATOM     11  C   UNL     1      33.549 -14.066 -26.704  0.00  0.00    +0.054 C 
ATOM     12  H   UNL     1      35.019 -17.275 -20.345  0.00  0.00    +0.148 HD
ENDROOT
BRANCH   1  13
ATOM     13  C   UNL     1      32.676 -12.838 -22.190  0.00  0.00    +0.082 C 
ATOM     14  C   UNL     1      31.872 -10.719 -21.352  0.00  0.00    -0.020 C 
ATOM     15  C   UNL     1      32.347 -11.500 -22.407  0.00  0.00    +0.015 C 
ATOM     16  C   UNL     1      32.528 -13.396 -20.921  0.00  0.00    +0.019 C 
ATOM     17  C   UNL     1      31.725 -11.277 -20.083  0.00  0.00    -0.004 C 
ATOM     18  C   UNL     1      32.052 -12.616 -19.866  0.00  0.00    +0.001 C 
BRANCH  14  19
ATOM     19  C   UNL     1      31.522  -9.288 -21.583  0.00  0.00    +0.036 C 
BRANCH  19  20
ATOM     20  C   UNL     1      32.764  -8.392 -21.657  0.00  0.00    +0.089 C 
BRANCH  20  23
ATOM     21  O   UNL     1      32.353  -6.081 -21.043  0.00  0.00    -0.275 OA
ATOM     22  N   UNL     1      33.063  -7.551 -19.423  0.00  0.00    -0.329 N 
ATOM     23  C   UNL     1      32.695  -7.211 -20.708  0.00  0.00    +0.220 C 
ATOM     24  H   UNL     1      33.059  -6.868 -18.714  0.00  0.00    +0.145 HD
ATOM     25  H   UNL     1      33.328  -8.476 -19.216  0.00  0.00    +0.145 HD
ENDBRANCH  20  23
ENDBRANCH  19  20
ENDBRANCH  14  19
ENDBRANCH   1  13
BRANCH   2  26
ATOM     26  C   UNL     1      35.904 -18.813 -21.440  0.00  0.00    +0.093 C 
ATOM     27  C   UNL     1      37.388 -18.625 -21.128  0.00  0.00    +0.026 C 
BRANCH  26  28
ATOM     28  C   UNL     1      35.256 -19.893 -20.602  0.00  0.00    -0.005 C 
ATOM     29  C   UNL     1      33.867 -20.010 -20.567  0.00  0.00    -0.003 C 
ATOM     30  C   UNL     1      36.049 -20.773 -19.865  0.00  0.00    -0.003 C 
ATOM     31  C   UNL     1      33.270 -21.006 -19.794  0.00  0.00    -0.000 C 
ATOM     32  C   UNL     1      35.452 -21.769 -19.092  0.00  0.00    -0.000 C 
ATOM     33  C   UNL     1      34.062 -21.885 -19.057  0.00  0.00    -0.000 C 
ENDBRANCH  26  28
ENDBRANCH   2  26
TORSDOF 6
ENDMDL
MODEL 2
REMARK VINA RESULT:     -11.7      8.102     13.511
REMARK  Name = 24941249
REMARK  6 active torsions:
REMARK  status: ('A' for Active; 'I' for Inactive)
REMARK    1  A    between atoms: N_1  and  C_13
REMARK    2  A    between atoms: N_2  and  C_26
REMARK    3  A    between atoms: C_14  and  C_19
REMARK    4  A    between atoms: C_19  and  C_20
REMARK    5  A    between atoms: C_20  and  C_23
REMARK    6  A    between atoms: C_26  and  C_28
REMARK                            x       y       z     vdW  Elec       q    Type
REMARK                         _______ _______ _______ _____ _____    ______ ____
ROOT
ATOM      1  N   UNL     1      34.140 -24.132 -13.362  0.00  0.00    -0.230 N 
ATOM      2  N   UNL     1      34.677 -22.324 -17.870  0.00  0.00    -0.316 N 
ATOM      3  N   UNL     1      33.085 -24.590 -12.667  0.00  0.00    -0.169 NA
ATOM      4  N   UNL     1      32.591 -23.045 -16.980  0.00  0.00    -0.229 NA
ATOM      5  C   UNL     1      33.837 -23.709 -14.627  0.00  0.00    +0.088 A 
ATOM      6  C   UNL     1      32.469 -23.909 -14.763  0.00  0.00    +0.052 A 
ATOM      7  C   UNL     1      32.069 -24.453 -13.523  0.00  0.00    +0.082 A 
ATOM      8  C   UNL     1      34.625 -23.178 -15.642  0.00  0.00    +0.053 C 
ATOM      9  C   UNL     1      33.923 -22.870 -16.797  0.00  0.00    +0.130 C 
ATOM     10  C   UNL     1      31.855 -23.566 -15.967  0.00  0.00    +0.103 C 
ATOM     11  C   UNL     1      30.714 -24.858 -13.113  0.00  0.00    +0.054 C 
ATOM     12  H   UNL     1      35.644 -22.191 -17.748  0.00  0.00    +0.148 HD
ENDROOT
BRANCH   1  13
ATOM     13  C   UNL     1      35.404 -24.126 -12.770  0.00  0.00    +0.082 C 
ATOM     14  C   UNL     1      37.601 -25.099 -12.515  0.00  0.00    -0.020 C 
ATOM     15  C   UNL     1      36.338 -25.105 -13.108  0.00  0.00    +0.015 C 
ATOM     16  C   UNL     1      35.733 -23.139 -11.841  0.00  0.00    +0.019 C 
ATOM     17  C   UNL     1      37.930 -24.112 -11.586  0.00  0.00    -0.004 C 
ATOM     18  C   UNL     1      36.997 -23.132 -11.249  0.00  0.00    +0.001 C 
BRANCH  14  19
ATOM     19  C   UNL     1      38.599 -26.147 -12.875  0.00  0.00    +0.036 C 
BRANCH  19  20
ATOM     20  C   UNL     1      39.917 -25.545 -13.375  0.00  0.00    +0.089 C 
BRANCH  20  23
ATOM     21  O   UNL     1      40.581 -26.198 -15.615  0.00  0.00    -0.275 OA
ATOM     22  N   UNL     1      39.260 -24.334 -15.347  0.00  0.00    -0.329 N 
ATOM     23  C   UNL     1      39.972 -25.421 -14.886  0.00  0.00    +0.220 C 
ATOM     24  H   UNL     1      39.220 -24.148 -16.313  0.00  0.00    +0.145 HD
ATOM     25  H   UNL     1      38.793 -23.747 -14.711  0.00  0.00    +0.145 HD
ENDBRANCH  20  23
ENDBRANCH  19  20
ENDBRANCH  14  19
ENDBRANCH   1  13
BRANCH   2  26
ATOM     26  C   UNL     1      34.088 -21.962 -19.116  0.00  0.00    +0.093 C 
ATOM     27  C   UNL     1      32.641 -21.529 -18.886  0.00  0.00    +0.026 C 
BRANCH  26  28
ATOM     28  C   UNL     1      34.921 -20.900 -19.800  0.00  0.00    -0.005 C 
ATOM     29  C   UNL     1      36.292 -20.823 -19.553  0.00  0.00    -0.003 C 
ATOM     30  C   UNL     1      34.319 -19.999 -20.677  0.00  0.00    -0.003 C 
ATOM     31  C   UNL     1      37.060 -19.844 -20.183  0.00  0.00    -0.000 C 
ATOM     32  C   UNL     1      35.088 -19.020 -21.307  0.00  0.00    -0.000 C 
ATOM     33  C   UNL     1      36.458 -18.943 -21.060  0.00  0.00    -0.000 C 
ENDBRANCH  26  28
ENDBRANCH   2  26
TORSDOF 6
ENDMDL
MODEL 3
REMARK VINA RESULT:     -10.7      6.043     10.712
REMARK  Name = 24941249
REMARK  6 active torsions:
REMARK  status: ('A' for Active; 'I' for Inactive)
REMARK    1  A    between atoms: N_1  and  C_13
REMARK    2  A    between atoms: N_2  and  C_26
REMARK    3  A    between atoms: C_14  and  C_19
REMARK    4  A    between atoms: C_19  and  C_20
REMARK    5  A    between atoms: C_20  and  C_23
REMARK    6  A    between atoms: C_26  and  C_28
REMARK                            x       y       z     vdW  Elec       q    Type
REMARK                         _______ _______ _______ _____ _____    ______ ____
ROOT
ATOM      1  N   UNL     1      33.299 -22.387 -17.551  0.00  0.00    -0.230 N 
ATOM      2  N   UNL     1      36.307 -24.800 -14.549  0.00  0.00    -0.316 N 
ATOM      3  N   UNL     1      31.966 -22.216 -17.586  0.00  0.00    -0.169 NA
ATOM      4  N   UNL     1      33.944 -24.733 -14.272  0.00  0.00    -0.229 NA
ATOM      5  C   UNL     1      33.738 -23.158 -16.509  0.00  0.00    +0.088 A 
ATOM      6  C   UNL     1      32.591 -23.516 -15.810  0.00  0.00    +0.052 A 
ATOM      7  C   UNL     1      31.539 -22.905 -16.525  0.00  0.00    +0.082 A 
ATOM      8  C   UNL     1      35.011 -23.564 -16.127  0.00  0.00    +0.053 C 
ATOM      9  C   UNL     1      35.031 -24.355 -14.989  0.00  0.00    +0.130 C 
ATOM     10  C   UNL     1      32.718 -24.317 -14.676  0.00  0.00    +0.103 C 
ATOM     11  C   UNL     1      30.099 -22.955 -16.223  0.00  0.00    +0.054 C 
ATOM     12  H   UNL     1      37.103 -24.533 -15.063  0.00  0.00    +0.148 HD
ENDROOT
BRANCH   1  13
ATOM     13  C   UNL     1      34.095 -21.793 -18.531  0.00  0.00    +0.082 C 
ATOM     14  C   UNL     1      34.302 -20.434 -20.518  0.00  0.00    -0.020 C 
ATOM     15  C   UNL     1      33.506 -21.028 -19.538  0.00  0.00    +0.015 C 
ATOM     16  C   UNL     1      35.479 -21.964 -18.503  0.00  0.00    +0.019 C 
ATOM     17  C   UNL     1      35.686 -20.605 -20.491  0.00  0.00    -0.004 C 
ATOM     18  C   UNL     1      36.275 -21.370 -19.483  0.00  0.00    +0.001 C 
BRANCH  14  19
ATOM     19  C   UNL     1      33.674 -19.618 -21.596  0.00  0.00    +0.036 C 
BRANCH  19  20
ATOM     20  C   UNL     1      34.705 -19.088 -22.599  0.00  0.00    +0.089 C 
BRANCH  20  23
ATOM     21  O   UNL     1      35.134 -17.119 -21.248  0.00  0.00    -0.275 OA
ATOM     22  N   UNL     1      35.305 -16.955 -23.536  0.00  0.00    -0.329 N 
ATOM     23  C   UNL     1      35.065 -17.634 -22.360  0.00  0.00    +0.220 C 
ATOM     24  H   UNL     1      35.549 -16.001 -23.511  0.00  0.00    +0.145 HD
ATOM     25  H   UNL     1      35.233 -17.423 -24.398  0.00  0.00    +0.145 HD
ENDBRANCH  20  23
ENDBRANCH  19  20
ENDBRANCH  14  19
ENDBRANCH   1  13
BRANCH   2  26
ATOM     26  C   UNL     1      36.479 -25.618 -13.395  0.00  0.00    +0.093 C 
ATOM     27  C   UNL     1      37.742 -26.463 -13.556  0.00  0.00    +0.026 C 
BRANCH  26  28
ATOM     28  C   UNL     1      36.494 -24.763 -12.147  0.00  0.00    -0.005 C 
ATOM     29  C   UNL     1      35.704 -25.113 -11.052  0.00  0.00    -0.003 C 
ATOM     30  C   UNL     1      37.299 -23.626 -12.090  0.00  0.00    -0.003 C 
ATOM     31  C   UNL     1      35.718 -24.325  -9.901  0.00  0.00    -0.000 C 
ATOM     32  C   UNL     1      37.313 -22.838 -10.940  0.00  0.00    -0.000 C 
ATOM     33  C   UNL     1      36.523 -23.188  -9.844  0.00  0.00    -0.000 C 
ENDBRANCH  26  28
ENDBRANCH   2  26
TORSDOF 6
ENDMDL
MODEL 4
REMARK VINA RESULT:     -10.1      7.350     11.930
REMARK  Name = 24941249
REMARK  6 active torsions:
REMARK  status: ('A' for Active; 'I' for Inactive)
REMARK    1  A    between atoms: N_1  and  C_13
REMARK    2  A    between atoms: N_2  and  C_26
REMARK    3  A    between atoms: C_14  and  C_19
REMARK    4  A    between atoms: C_19  and  C_20
REMARK    5  A    between atoms: C_20  and  C_23
REMARK    6  A    between atoms: C_26  and  C_28
REMARK                            x       y       z     vdW  Elec       q    Type
REMARK                         _______ _______ _______ _____ _____    ______ ____
ROOT
ATOM      1  N   UNL     1      33.072 -24.014 -14.396  0.00  0.00    -0.230 N 
ATOM      2  N   UNL     1      34.846 -21.851 -18.403  0.00  0.00    -0.316 N 
ATOM      3  N   UNL     1      33.628 -24.431 -13.246  0.00  0.00    -0.169 NA
ATOM      4  N   UNL     1      36.183 -22.449 -16.528  0.00  0.00    -0.229 NA
ATOM      5  C   UNL     1      33.956 -23.446 -15.272  0.00  0.00    +0.088 A 
ATOM      6  C   UNL     1      35.189 -23.500 -14.634  0.00  0.00    +0.052 A 
ATOM      7  C   UNL     1      34.917 -24.116 -13.395  0.00  0.00    +0.082 A 
ATOM      8  C   UNL     1      33.787 -22.902 -16.540  0.00  0.00    +0.053 C 
ATOM      9  C   UNL     1      34.957 -22.420 -17.106  0.00  0.00    +0.130 C 
ATOM     10  C   UNL     1      36.309 -22.988 -15.289  0.00  0.00    +0.103 C 
ATOM     11  C   UNL     1      35.869 -24.425 -12.314  0.00  0.00    +0.054 C 
ATOM     12  H   UNL     1      33.961 -21.826 -18.834  0.00  0.00    +0.148 HD
ENDROOT
BRANCH   1  13
ATOM     13  C   UNL     1      31.702 -24.183 -14.600  0.00  0.00    +0.082 C 
ATOM     14  C   UNL     1      29.612 -23.402 -15.529  0.00  0.00    -0.020 C 
ATOM     15  C   UNL     1      30.982 -23.233 -15.326  0.00  0.00    +0.015 C 
ATOM     16  C   UNL     1      31.052 -25.301 -14.078  0.00  0.00    +0.019 C 
ATOM     17  C   UNL     1      28.962 -24.520 -15.007  0.00  0.00    -0.004 C 
ATOM     18  C   UNL     1      29.682 -25.470 -14.282  0.00  0.00    +0.001 C 
BRANCH  14  19
ATOM     19  C   UNL     1      28.843 -22.386 -16.303  0.00  0.00    +0.036 C 
BRANCH  19  20
ATOM     20  C   UNL     1      27.522 -22.947 -16.844  0.00  0.00    +0.089 C 
BRANCH  20  23
ATOM     21  O   UNL     1      25.752 -22.229 -15.348  0.00  0.00    -0.275 OA
ATOM     22  N   UNL     1      25.932 -21.234 -17.414  0.00  0.00    -0.329 N 
ATOM     23  C   UNL     1      26.319 -22.121 -16.432  0.00  0.00    +0.220 C 
ATOM     24  H   UNL     1      25.162 -20.641 -17.264  0.00  0.00    +0.145 HD
ATOM     25  H   UNL     1      26.427 -21.194 -18.263  0.00  0.00    +0.145 HD
ENDBRANCH  20  23
ENDBRANCH  19  20
ENDBRANCH  14  19
ENDBRANCH   1  13
BRANCH   2  26
ATOM     26  C   UNL     1      35.964 -21.316 -19.105  0.00  0.00    +0.093 C 
ATOM     27  C   UNL     1      36.816 -22.461 -19.651  0.00  0.00    +0.026 C 
BRANCH  26  28
ATOM     28  C   UNL     1      35.497 -20.361 -20.182  0.00  0.00    -0.005 C 
ATOM     29  C   UNL     1      34.165 -20.373 -20.596  0.00  0.00    -0.003 C 
ATOM     30  C   UNL     1      36.399 -19.469 -20.762  0.00  0.00    -0.003 C 
ATOM     31  C   UNL     1      33.735 -19.494 -21.589  0.00  0.00    -0.000 C 
ATOM     32  C   UNL     1      35.969 -18.589 -21.755  0.00  0.00    -0.000 C 
ATOM     33  C   UNL     1      34.636 -18.601 -22.168  0.00  0.00    -0.000 C 
ENDBRANCH  26  28
ENDBRANCH   2  26
TORSDOF 6
ENDMDL
MODEL 5
REMARK VINA RESULT:      -9.9      7.753     12.893
REMARK  Name = 24941249
REMARK  6 active torsions:
REMARK  status: ('A' for Active; 'I' for Inactive)
REMARK    1  A    between atoms: N_1  and  C_13
REMARK    2  A    between atoms: N_2  and  C_26
REMARK    3  A    between atoms: C_14  and  C_19
REMARK    4  A    between atoms: C_19  and  C_20
REMARK    5  A    between atoms: C_20  and  C_23
REMARK    6  A    between atoms: C_26  and  C_28
REMARK                            x       y       z     vdW  Elec       q    Type
REMARK                         _______ _______ _______ _____ _____    ______ ____
ROOT
ATOM      1  N   UNL     1      33.970 -24.341 -14.779  0.00  0.00    -0.230 N 
ATOM      2  N   UNL     1      34.532 -21.991 -19.027  0.00  0.00    -0.316 N 
ATOM      3  N   UNL     1      32.906 -24.607 -14.001  0.00  0.00    -0.169 NA
ATOM      4  N   UNL     1      32.433 -22.258 -17.937  0.00  0.00    -0.229 NA
ATOM      5  C   UNL     1      33.672 -23.637 -15.914  0.00  0.00    +0.088 A 
ATOM      6  C   UNL     1      32.299 -23.429 -15.866  0.00  0.00    +0.052 A 
ATOM      7  C   UNL     1      31.891 -24.050 -14.667  0.00  0.00    +0.082 A 
ATOM      8  C   UNL     1      34.468 -23.174 -16.955  0.00  0.00    +0.053 C 
ATOM      9  C   UNL     1      33.769 -22.488 -17.937  0.00  0.00    +0.130 C 
ATOM     10  C   UNL     1      31.688 -22.726 -16.904  0.00  0.00    +0.103 C 
ATOM     11  C   UNL     1      30.528 -24.134 -14.115  0.00  0.00    +0.054 C 
ATOM     12  H   UNL     1      35.503 -22.151 -19.036  0.00  0.00    +0.148 HD
ENDROOT
BRANCH   1  13
ATOM     13  C   UNL     1      35.235 -24.784 -14.390  0.00  0.00    +0.082 C 
ATOM     14  C   UNL     1      37.221 -24.518 -13.040  0.00  0.00    -0.020 C 
ATOM     15  C   UNL     1      35.956 -24.075 -13.429  0.00  0.00    +0.015 C 
ATOM     16  C   UNL     1      35.777 -25.934 -14.962  0.00  0.00    +0.019 C 
ATOM     17  C   UNL     1      37.763 -25.668 -13.612  0.00  0.00    -0.004 C 
ATOM     18  C   UNL     1      37.041 -26.377 -14.572  0.00  0.00    +0.001 C 
BRANCH  14  19
ATOM     19  C   UNL     1      37.993 -23.760 -12.014  0.00  0.00    +0.036 C 
BRANCH  19  20
ATOM     20  C   UNL     1      37.094 -22.855 -11.163  0.00  0.00    +0.089 C 
BRANCH  20  23
ATOM     21  O   UNL     1      36.387 -24.208  -9.276  0.00  0.00    -0.275 OA
ATOM     22  N   UNL     1      34.835 -23.628 -10.872  0.00  0.00    -0.329 N 
ATOM     23  C   UNL     1      36.100 -23.635 -10.323  0.00  0.00    +0.220 C 
ATOM     24  H   UNL     1      34.101 -24.102 -10.418  0.00  0.00    +0.145 HD
ATOM     25  H   UNL     1      34.667 -23.151 -11.716  0.00  0.00    +0.145 HD
ENDBRANCH  20  23
ENDBRANCH  19  20
ENDBRANCH  14  19
ENDBRANCH   1  13
BRANCH   2  26
ATOM     26  C   UNL     1      33.946 -21.270 -20.107  0.00  0.00    +0.093 C 
ATOM     27  C   UNL     1      32.653 -20.608 -19.634  0.00  0.00    +0.026 C 
BRANCH  26  28
ATOM     28  C   UNL     1      34.941 -20.283 -20.678  0.00  0.00    -0.005 C 
ATOM     29  C   UNL     1      34.588 -19.487 -21.767  0.00  0.00    -0.003 C 
ATOM     30  C   UNL     1      36.212 -20.170 -20.114  0.00  0.00    -0.003 C 
ATOM     31  C   UNL     1      35.505 -18.577 -22.293  0.00  0.00    -0.000 C 
ATOM     32  C   UNL     1      37.129 -19.260 -20.640  0.00  0.00    -0.000 C 
ATOM     33  C   UNL     1      36.776 -18.464 -21.729  0.00  0.00    -0.000 C 
ENDBRANCH  26  28
ENDBRANCH   2  26
TORSDOF 6
ENDMDL
MODEL 6
REMARK VINA RESULT:      -9.7      7.790     12.967
REMARK  Name = 24941249
REMARK  6 active torsions:
REMARK  status: ('A' for Active; 'I' for Inactive)
REMARK    1  A    between atoms: N_1  and  C_13
REMARK    2  A    between atoms: N_2  and  C_26
REMARK    3  A    between atoms: C_14  and  C_19
REMARK    4  A    between atoms: C_19  and  C_20
REMARK    5  A    between atoms: C_20  and  C_23
REMARK    6  A    between atoms: C_26  and  C_28
REMARK                            x       y       z     vdW  Elec       q    Type
REMARK                         _______ _______ _______ _____ _____    ______ ____
ROOT
ATOM      1  N   UNL     1      33.276 -24.374 -13.760  0.00  0.00    -0.230 N 
ATOM      2  N   UNL     1      34.296 -22.381 -18.104  0.00  0.00    -0.316 N 
ATOM      3  N   UNL     1      32.130 -24.667 -13.122  0.00  0.00    -0.169 NA
ATOM      4  N   UNL     1      32.083 -22.747 -17.310  0.00  0.00    -0.229 NA
ATOM      5  C   UNL     1      33.101 -23.809 -14.993  0.00  0.00    +0.088 A 
ATOM      6  C   UNL     1      31.725 -23.730 -15.169  0.00  0.00    +0.052 A 
ATOM      7  C   UNL     1      31.188 -24.274 -13.983  0.00  0.00    +0.082 A 
ATOM      8  C   UNL     1      34.009 -23.369 -15.950  0.00  0.00    +0.053 C 
ATOM      9  C   UNL     1      33.417 -22.847 -17.090  0.00  0.00    +0.130 C 
ATOM     10  C   UNL     1      31.228 -23.187 -16.353  0.00  0.00    +0.103 C 
ATOM     11  C   UNL     1      29.768 -24.438 -13.630  0.00  0.00    +0.054 C 
ATOM     12  H   UNL     1      35.267 -22.448 -17.955  0.00  0.00    +0.148 HD
ENDROOT
BRANCH   1  13
ATOM     13  C   UNL     1      34.497 -24.655 -13.146  0.00  0.00    +0.082 C 
ATOM     14  C   UNL     1      36.796 -25.383 -13.297  0.00  0.00    -0.020 C 
ATOM     15  C   UNL     1      35.575 -25.102 -13.911  0.00  0.00    +0.015 C 
ATOM     16  C   UNL     1      34.640 -24.488 -11.769  0.00  0.00    +0.019 C 
ATOM     17  C   UNL     1      36.939 -25.216 -11.920  0.00  0.00    -0.004 C 
ATOM     18  C   UNL     1      35.861 -24.768 -11.155  0.00  0.00    +0.001 C 
BRANCH  14  19
ATOM     19  C   UNL     1      37.948 -25.863 -14.113  0.00  0.00    +0.036 C 
BRANCH  19  20
ATOM     20  C   UNL     1      38.851 -24.713 -14.575  0.00  0.00    +0.089 C 
BRANCH  20  23
ATOM     21  O   UNL     1      37.712 -22.674 -13.917  0.00  0.00    -0.275 OA
ATOM     22  N   UNL     1      37.861 -23.191 -16.153  0.00  0.00    -0.329 N 
ATOM     23  C   UNL     1      38.087 -23.424 -14.813  0.00  0.00    +0.220 C 
ATOM     24  H   UNL     1      37.373 -22.384 -16.436  0.00  0.00    +0.145 HD
ATOM     25  H   UNL     1      38.186 -23.832 -16.826  0.00  0.00    +0.145 HD
ENDBRANCH  20  23
ENDBRANCH  19  20
ENDBRANCH  14  19
ENDBRANCH   1  13
BRANCH   2  26
ATOM     26  C   UNL     1      33.828 -21.823 -19.328  0.00  0.00    +0.093 C 
ATOM     27  C   UNL     1      32.456 -21.188 -19.105  0.00  0.00    +0.026 C 
BRANCH  26  28
ATOM     28  C   UNL     1      34.846 -20.849 -19.882  0.00  0.00    -0.005 C 
ATOM     29  C   UNL     1      36.188 -20.962 -19.519  0.00  0.00    -0.003 C 
ATOM     30  C   UNL     1      34.443 -19.840 -20.755  0.00  0.00    -0.003 C 
ATOM     31  C   UNL     1      37.127 -20.065 -20.029  0.00  0.00    -0.000 C 
ATOM     32  C   UNL     1      35.381 -18.942 -21.265  0.00  0.00    -0.000 C 
ATOM     33  C   UNL     1      36.723 -19.055 -20.902  0.00  0.00    -0.000 C 
ENDBRANCH  26  28
ENDBRANCH   2  26
TORSDOF 6
ENDMDL
MODEL 7
REMARK VINA RESULT:      -9.3      7.643     12.285
REMARK  Name = 24941249
REMARK  6 active torsions:
REMARK  status: ('A' for Active; 'I' for Inactive)
REMARK    1  A    between atoms: N_1  and  C_13
REMARK    2  A    between atoms: N_2  and  C_26
REMARK    3  A    between atoms: C_14  and  C_19
REMARK    4  A    between atoms: C_19  and  C_20
REMARK    5  A    between atoms: C_20  and  C_23
REMARK    6  A    between atoms: C_26  and  C_28
REMARK                            x       y       z     vdW  Elec       q    Type
REMARK                         _______ _______ _______ _____ _____    ______ ____
ROOT
ATOM      1  N   UNL     1      35.074 -23.269 -14.602  0.00  0.00    -0.230 N 
ATOM      2  N   UNL     1      30.399 -23.924 -15.866  0.00  0.00    -0.316 N 
ATOM      3  N   UNL     1      35.795 -23.599 -13.515  0.00  0.00    -0.169 NA
ATOM      4  N   UNL     1      31.323 -24.669 -13.803  0.00  0.00    -0.229 NA
ATOM      5  C   UNL     1      33.763 -23.654 -14.541  0.00  0.00    +0.088 A 
ATOM      6  C   UNL     1      33.622 -24.285 -13.311  0.00  0.00    +0.052 A 
ATOM      7  C   UNL     1      34.907 -24.217 -12.733  0.00  0.00    +0.082 A 
ATOM      8  C   UNL     1      32.710 -23.506 -15.436  0.00  0.00    +0.053 C 
ATOM      9  C   UNL     1      31.512 -24.045 -14.992  0.00  0.00    +0.130 C 
ATOM     10  C   UNL     1      32.374 -24.794 -12.955  0.00  0.00    +0.103 C 
ATOM     11  C   UNL     1      35.333 -24.735 -11.421  0.00  0.00    +0.054 C 
ATOM     12  H   UNL     1      30.525 -23.471 -16.731  0.00  0.00    +0.148 HD
ENDROOT
BRANCH   1  13
ATOM     13  C   UNL     1      35.689 -22.595 -15.657  0.00  0.00    +0.082 C 
ATOM     14  C   UNL     1      35.722 -21.932 -17.980  0.00  0.00    -0.020 C 
ATOM     15  C   UNL     1      35.107 -22.606 -16.925  0.00  0.00    +0.015 C 
ATOM     16  C   UNL     1      36.884 -21.909 -15.444  0.00  0.00    +0.019 C 
ATOM     17  C   UNL     1      36.918 -21.246 -17.767  0.00  0.00    -0.004 C 
ATOM     18  C   UNL     1      37.499 -21.233 -16.499  0.00  0.00    +0.001 C 
BRANCH  14  19
ATOM     19  C   UNL     1      35.102 -21.945 -19.336  0.00  0.00    +0.036 C 
BRANCH  19  20
ATOM     20  C   UNL     1      33.608 -21.601 -19.295  0.00  0.00    +0.089 C 
BRANCH  20  23
ATOM     21  O   UNL     1      32.077 -20.298 -20.652  0.00  0.00    -0.275 OA
ATOM     22  N   UNL     1      34.321 -19.794 -20.714  0.00  0.00    -0.329 N 
ATOM     23  C   UNL     1      33.227 -20.513 -20.281  0.00  0.00    +0.220 C 
ATOM     24  H   UNL     1      34.202 -19.060 -21.358  0.00  0.00    +0.145 HD
ATOM     25  H   UNL     1      35.219 -20.016 -20.380  0.00  0.00    +0.145 HD
ENDBRANCH  20  23
ENDBRANCH  19  20
ENDBRANCH  14  19
ENDBRANCH   1  13
BRANCH   2  26
ATOM     26  C   UNL     1      29.109 -24.432 -15.541  0.00  0.00    +0.093 C 
ATOM     27  C   UNL     1      29.053 -24.756 -14.048  0.00  0.00    +0.026 C 
BRANCH  26  28
ATOM     28  C   UNL     1      28.038 -23.455 -15.974  0.00  0.00    -0.005 C 
ATOM     29  C   UNL     1      27.781 -23.257 -17.331  0.00  0.00    -0.003 C 
ATOM     30  C   UNL     1      27.306 -22.752 -15.016  0.00  0.00    -0.003 C 
ATOM     31  C   UNL     1      26.794 -22.356 -17.730  0.00  0.00    -0.000 C 
ATOM     32  C   UNL     1      26.319 -21.851 -15.416  0.00  0.00    -0.000 C 
ATOM     33  C   UNL     1      26.063 -21.653 -16.772  0.00  0.00    -0.000 C 
ENDBRANCH  26  28
ENDBRANCH   2  26
TORSDOF 6
ENDMDL
MODEL 8
REMARK VINA RESULT:      -9.3      6.623     11.546
REMARK  Name = 24941249
REMARK  6 active torsions:
REMARK  status: ('A' for Active; 'I' for Inactive)
REMARK    1  A    between atoms: N_1  and  C_13
REMARK    2  A    between atoms: N_2  and  C_26
REMARK    3  A    between atoms: C_14  and  C_19
REMARK    4  A    between atoms: C_19  and  C_20
REMARK    5  A    between atoms: C_20  and  C_23
REMARK    6  A    between atoms: C_26  and  C_28
REMARK                            x       y       z     vdW  Elec       q    Type
REMARK                         _______ _______ _______ _____ _____    ______ ____
ROOT
ATOM      1  N   UNL     1      36.996 -22.781 -15.648  0.00  0.00    -0.230 N 
ATOM      2  N   UNL     1      32.195 -23.266 -14.873  0.00  0.00    -0.316 N 
ATOM      3  N   UNL     1      38.083 -23.377 -15.128  0.00  0.00    -0.169 NA
ATOM      4  N   UNL     1      33.849 -24.534 -13.724  0.00  0.00    -0.229 NA
ATOM      5  C   UNL     1      35.811 -23.230 -15.132  0.00  0.00    +0.088 A 
ATOM      6  C   UNL     1      36.160 -24.198 -14.199  0.00  0.00    +0.052 A 
ATOM      7  C   UNL     1      37.570 -24.239 -14.247  0.00  0.00    +0.082 A 
ATOM      8  C   UNL     1      34.491 -22.879 -15.396  0.00  0.00    +0.053 C 
ATOM      9  C   UNL     1      33.561 -23.582 -14.646  0.00  0.00    +0.130 C 
ATOM     10  C   UNL     1      35.148 -24.849 -13.494  0.00  0.00    +0.103 C 
ATOM     11  C   UNL     1      38.472 -25.095 -13.459  0.00  0.00    +0.054 C 
ATOM     12  H   UNL     1      31.974 -22.575 -15.538  0.00  0.00    +0.148 HD
ENDROOT
BRANCH   1  13
ATOM     13  C   UNL     1      37.151 -21.799 -16.627  0.00  0.00    +0.082 C 
ATOM     14  C   UNL     1      36.679 -20.961 -18.844  0.00  0.00    -0.020 C 
ATOM     15  C   UNL     1      36.524 -21.943 -17.865  0.00  0.00    +0.015 C 
ATOM     16  C   UNL     1      37.933 -20.674 -16.368  0.00  0.00    +0.019 C 
ATOM     17  C   UNL     1      37.461 -19.836 -18.585  0.00  0.00    -0.004 C 
ATOM     18  C   UNL     1      38.087 -19.691 -17.347  0.00  0.00    +0.001 C 
BRANCH  14  19
ATOM     19  C   UNL     1      36.010 -21.115 -20.167  0.00  0.00    +0.036 C 
BRANCH  19  20
ATOM     20  C   UNL     1      34.701 -20.322 -20.252  0.00  0.00    +0.089 C 
BRANCH  20  23
ATOM     21  O   UNL     1      35.232 -17.992 -20.672  0.00  0.00    -0.275 OA
ATOM     22  N   UNL     1      34.429 -19.277 -22.402  0.00  0.00    -0.329 N 
ATOM     23  C   UNL     1      34.826 -19.069 -21.098  0.00  0.00    +0.220 C 
ATOM     24  H   UNL     1      34.464 -18.537 -23.050  0.00  0.00    +0.145 HD
ATOM     25  H   UNL     1      34.111 -20.164 -22.684  0.00  0.00    +0.145 HD
ENDBRANCH  20  23
ENDBRANCH  19  20
ENDBRANCH  14  19
ENDBRANCH   1  13
BRANCH   2  26
ATOM     26  C   UNL     1      31.132 -23.909 -14.175  0.00  0.00    +0.093 C 
ATOM     27  C   UNL     1      31.097 -23.409 -12.732  0.00  0.00    +0.026 C 
BRANCH  26  28
ATOM     28  C   UNL     1      29.824 -23.699 -14.906  0.00  0.00    -0.005 C 
ATOM     29  C   UNL     1      29.333 -24.689 -15.757  0.00  0.00    -0.003 C 
ATOM     30  C   UNL     1      29.109 -22.515 -14.729  0.00  0.00    -0.003 C 
ATOM     31  C   UNL     1      28.127 -24.495 -16.431  0.00  0.00    -0.000 C 
ATOM     32  C   UNL     1      27.903 -22.320 -15.403  0.00  0.00    -0.000 C 
ATOM     33  C   UNL     1      27.412 -23.311 -16.253  0.00  0.00    -0.000 C 
ENDBRANCH  26  28
ENDBRANCH   2  26
TORSDOF 6
ENDMDL
MODEL 9
REMARK VINA RESULT:      -9.3      7.595     11.817
REMARK  Name = 24941249
REMARK  6 active torsions:
REMARK  status: ('A' for Active; 'I' for Inactive)
REMARK    1  A    between atoms: N_1  and  C_13
REMARK    2  A    between atoms: N_2  and  C_26
REMARK    3  A    between atoms: C_14  and  C_19
REMARK    4  A    between atoms: C_19  and  C_20
REMARK    5  A    between atoms: C_20  and  C_23
REMARK    6  A    between atoms: C_26  and  C_28
REMARK                            x       y       z     vdW  Elec       q    Type
REMARK                         _______ _______ _______ _____ _____    ______ ____
ROOT
ATOM      1  N   UNL     1      37.026 -22.857 -15.439  0.00  0.00    -0.230 N 
ATOM      2  N   UNL     1      32.208 -23.270 -14.738  0.00  0.00    -0.316 N 
ATOM      3  N   UNL     1      38.095 -23.480 -14.914  0.00  0.00    -0.169 NA
ATOM      4  N   UNL     1      33.824 -24.586 -13.588  0.00  0.00    -0.229 NA
ATOM      5  C   UNL     1      35.827 -23.294 -14.947  0.00  0.00    +0.088 A 
ATOM      6  C   UNL     1      36.146 -24.283 -14.026  0.00  0.00    +0.052 A 
ATOM      7  C   UNL     1      37.555 -24.347 -14.054  0.00  0.00    +0.082 A 
ATOM      8  C   UNL     1      34.517 -22.916 -15.223  0.00  0.00    +0.053 C 
ATOM      9  C   UNL     1      33.565 -23.614 -14.497  0.00  0.00    +0.130 C 
ATOM     10  C   UNL     1      35.113 -24.927 -13.345  0.00  0.00    +0.103 C 
ATOM     11  C   UNL     1      38.432 -25.232 -13.268  0.00  0.00    +0.054 C 
ATOM     12  H   UNL     1      32.008 -22.565 -15.395  0.00  0.00    +0.148 HD
ENDROOT
BRANCH   1  13
ATOM     13  C   UNL     1      37.212 -21.863 -16.400  0.00  0.00    +0.082 C 
ATOM     14  C   UNL     1      36.707 -20.930 -18.571  0.00  0.00    -0.020 C 
ATOM     15  C   UNL     1      36.521 -21.925 -17.611  0.00  0.00    +0.015 C 
ATOM     16  C   UNL     1      38.087 -20.807 -16.150  0.00  0.00    +0.019 C 
ATOM     17  C   UNL     1      37.583 -19.874 -18.321  0.00  0.00    -0.004 C 
ATOM     18  C   UNL     1      38.273 -19.811 -17.110  0.00  0.00    +0.001 C 
BRANCH  14  19
ATOM     19  C   UNL     1      35.970 -20.997 -19.866  0.00  0.00    +0.036 C 
BRANCH  19  20
ATOM     20  C   UNL     1      34.523 -21.471 -19.687  0.00  0.00    +0.089 C 
BRANCH  20  23
ATOM     21  O   UNL     1      32.324 -20.490 -19.983  0.00  0.00    -0.275 OA
ATOM     22  N   UNL     1      34.078 -19.683 -21.234  0.00  0.00    -0.329 N 
ATOM     23  C   UNL     1      33.512 -20.517 -20.293  0.00  0.00    +0.220 C 
ATOM     24  H   UNL     1      33.522 -19.018 -21.699  0.00  0.00    +0.145 HD
ATOM     25  H   UNL     1      35.038 -19.754 -21.440  0.00  0.00    +0.145 HD
ENDBRANCH  20  23
ENDBRANCH  19  20
ENDBRANCH  14  19
ENDBRANCH   1  13
BRANCH   2  26
ATOM     26  C   UNL     1      31.124 -23.906 -14.065  0.00  0.00    +0.093 C 
ATOM     27  C   UNL     1      31.038 -23.381 -12.633  0.00  0.00    +0.026 C 
BRANCH  26  28
ATOM     28  C   UNL     1      29.841 -23.714 -14.843  0.00  0.00    -0.005 C 
ATOM     29  C   UNL     1      29.123 -22.524 -14.723  0.00  0.00    -0.003 C 
ATOM     30  C   UNL     1      29.375 -24.727 -15.682  0.00  0.00    -0.003 C 
ATOM     31  C   UNL     1      27.940 -22.347 -15.440  0.00  0.00    -0.000 C 
ATOM     32  C   UNL     1      28.192 -24.550 -16.398  0.00  0.00    -0.000 C 
ATOM     33  C   UNL     1      27.474 -23.360 -16.278  0.00  0.00    -0.000 C 
ENDBRANCH  26  28
ENDBRANCH   2  26
TORSDOF 6
ENDMDL
