MODEL 1
REMARK VINA RESULT:     -11.8      0.000      0.000
REMARK  Name = 24941248
REMARK  7 active torsions:
REMARK  status: ('A' for Active; 'I' for Inactive)
REMARK    1  A    between atoms: N_2  and  C_24
REMARK    2  A    between atoms: C_6  and  C_14
REMARK    3  A    between atoms: C_13  and  C_19
REMARK    4  A    between atoms: C_19  and  C_20
REMARK    5  A    between atoms: C_20  and  C_21
REMARK    6  A    between atoms: C_21  and  O_22
REMARK    7  A    between atoms: C_24  and  C_26
REMARK                            x       y       z     vdW  Elec       q    Type
REMARK                         _______ _______ _______ _____ _____    ______ ____
ROOT
ATOM      1  O   UNL     1      33.454 -15.700 -26.036  0.00  0.00    -0.352 OA
ATOM      2  N   UNL     1      35.545 -17.811 -21.492  0.00  0.00    -0.316 N 
ATOM      3  N   UNL     1      33.127 -14.403 -25.658  0.00  0.00    -0.077 NA
ATOM      4  N   UNL     1      34.962 -18.129 -23.779  0.00  0.00    -0.226 NA
ATOM      5  C   UNL     1      34.040 -15.507 -23.881  0.00  0.00    +0.062 A 
ATOM      6  C   UNL     1      33.483 -14.309 -24.373  0.00  0.00    +0.123 A 
ATOM      7  C   UNL     1      35.007 -17.302 -22.702  0.00  0.00    +0.129 C 
ATOM      8  C   UNL     1      34.565 -15.982 -22.678  0.00  0.00    +0.039 C 
ATOM      9  C   UNL     1      33.997 -16.354 -24.974  0.00  0.00    +0.196 A 
ATOM     10  C   UNL     1      34.451 -17.658 -24.942  0.00  0.00    +0.140 C 
ATOM     11  H   UNL     1      35.583 -17.220 -20.704  0.00  0.00    +0.148 HD
ENDROOT
BRANCH   6  14
ATOM     12 CL   UNL     1      34.528  -9.285 -23.878  0.00  0.00    -0.082 Cl
ATOM     13  C   UNL     1      32.250 -11.863 -21.838  0.00  0.00    -0.021 C 
ATOM     14  C   UNL     1      33.283 -13.080 -23.651  0.00  0.00    +0.021 C 
ATOM     15  C   UNL     1      32.445 -13.054 -22.536  0.00  0.00    -0.003 C 
ATOM     16  C   UNL     1      32.895 -10.697 -22.253  0.00  0.00    +0.007 C 
ATOM     17  C   UNL     1      33.928 -11.914 -24.066  0.00  0.00    +0.013 C 
ATOM     18  C   UNL     1      33.733 -10.723 -23.367  0.00  0.00    +0.057 C 
BRANCH  13  19
ATOM     19  C   UNL     1      31.352 -11.835 -20.647  0.00  0.00    +0.029 C 
BRANCH  19  20
ATOM     20  C   UNL     1      31.137 -10.412 -20.115  0.00  0.00    +0.036 C 
BRANCH  20  21
ATOM     21  C   UNL     1      31.894 -10.164 -18.818  0.00  0.00    +0.138 C 
BRANCH  21  22
ATOM     22  O   UNL     1      32.720  -9.018 -18.981  0.00  0.00    -0.382 OA
ATOM     23  H   UNL     1      32.164  -8.240 -19.139  0.00  0.00    +0.210 HD
ENDBRANCH  21  22
ENDBRANCH  20  21
ENDBRANCH  19  20
ENDBRANCH  13  19
ENDBRANCH   6  14
BRANCH   2  24
ATOM     24  C   UNL     1      36.034 -19.145 -21.369  0.00  0.00    +0.093 C 
ATOM     25  C   UNL     1      37.417 -19.122 -20.723  0.00  0.00    +0.026 C 
BRANCH  24  26
ATOM     26  C   UNL     1      35.041 -19.998 -20.610  0.00  0.00    -0.005 C 
ATOM     27  C   UNL     1      33.673 -19.817 -20.806  0.00  0.00    -0.003 C 
ATOM     28  C   UNL     1      35.495 -20.965 -19.713  0.00  0.00    -0.003 C 
ATOM     29  C   UNL     1      32.756 -20.603 -20.106  0.00  0.00    -0.000 C 
ATOM     30  C   UNL     1      34.580 -21.751 -19.013  0.00  0.00    -0.000 C 
ATOM     31  C   UNL     1      33.211 -21.571 -19.210  0.00  0.00    -0.000 C 
ENDBRANCH  24  26
ENDBRANCH   2  24
TORSDOF 7
ENDMDL
MODEL 2
REMARK VINA RESULT:     -11.2      1.681      2.323
REMARK  Name = 24941248
REMARK  7 active torsions:
REMARK  status: ('A' for Active; 'I' for Inactive)
REMARK    1  A    between atoms: N_2  and  C_24
REMARK    2  A    between atoms: C_6  and  C_14
REMARK    3  A    between atoms: C_13  and  C_19
REMARK    4  A    between atoms: C_19  and  C_20
REMARK    5  A    between atoms: C_20  and  C_21
REMARK    6  A    between atoms: C_21  and  O_22
REMARK    7  A    between atoms: C_24  and  C_26
REMARK                            x       y       z     vdW  Elec       q    Type
REMARK                         _______ _______ _______ _____ _____    ______ ____
ROOT
ATOM      1  O   UNL     1      33.507 -15.501 -25.989  0.00  0.00    -0.352 OA
ATOM      2  N   UNL     1      35.517 -17.737 -21.468  0.00  0.00    -0.316 N 
ATOM      3  N   UNL     1      33.142 -14.226 -25.574  0.00  0.00    -0.077 NA
ATOM      4  N   UNL     1      35.004 -17.981 -23.781  0.00  0.00    -0.226 NA
ATOM      5  C   UNL     1      34.029 -15.376 -23.813  0.00  0.00    +0.062 A 
ATOM      6  C   UNL     1      33.461 -14.173 -24.276  0.00  0.00    +0.123 A 
ATOM      7  C   UNL     1      35.001 -17.194 -22.674  0.00  0.00    +0.129 C 
ATOM      8  C   UNL     1      34.531 -15.885 -22.615  0.00  0.00    +0.039 C 
ATOM      9  C   UNL     1      34.034 -16.183 -24.938  0.00  0.00    +0.196 A 
ATOM     10  C   UNL     1      34.515 -17.478 -24.941  0.00  0.00    +0.140 C 
ATOM     11  H   UNL     1      35.520 -17.175 -20.659  0.00  0.00    +0.148 HD
ENDROOT
BRANCH   6  14
ATOM     12 CL   UNL     1      31.187 -11.928 -20.230  0.00  0.00    -0.082 Cl
ATOM     13  C   UNL     1      33.540 -10.606 -23.182  0.00  0.00    -0.021 C 
ATOM     14  C   UNL     1      33.215 -12.976 -23.516  0.00  0.00    +0.021 C 
ATOM     15  C   UNL     1      33.777 -11.765 -23.919  0.00  0.00    -0.003 C 
ATOM     16  C   UNL     1      32.739 -10.656 -22.041  0.00  0.00    +0.007 C 
ATOM     17  C   UNL     1      32.413 -13.026 -22.375  0.00  0.00    +0.013 C 
ATOM     18  C   UNL     1      32.176 -11.866 -21.638  0.00  0.00    +0.057 C 
BRANCH  13  19
ATOM     19  C   UNL     1      34.143  -9.311 -23.613  0.00  0.00    +0.029 C 
BRANCH  19  20
ATOM     20  C   UNL     1      33.326  -8.103 -23.138  0.00  0.00    +0.036 C 
BRANCH  20  21
ATOM     21  C   UNL     1      34.182  -6.853 -22.992  0.00  0.00    +0.138 C 
BRANCH  21  22
ATOM     22  O   UNL     1      35.527  -7.243 -22.752  0.00  0.00    -0.382 OA
ATOM     23  H   UNL     1      36.010  -6.505 -22.348  0.00  0.00    +0.210 HD
ENDBRANCH  21  22
ENDBRANCH  20  21
ENDBRANCH  19  20
ENDBRANCH  13  19
ENDBRANCH   6  14
BRANCH   2  24
ATOM     24  C   UNL     1      36.030 -19.064 -21.381  0.00  0.00    +0.093 C 
ATOM     25  C   UNL     1      37.422 -19.031 -20.754  0.00  0.00    +0.026 C 
BRANCH  24  26
ATOM     26  C   UNL     1      35.063 -19.950 -20.626  0.00  0.00    -0.005 C 
ATOM     27  C   UNL     1      33.689 -19.793 -20.803  0.00  0.00    -0.003 C 
ATOM     28  C   UNL     1      35.546 -20.926 -19.753  0.00  0.00    -0.003 C 
ATOM     29  C   UNL     1      32.797 -20.610 -20.107  0.00  0.00    -0.000 C 
ATOM     30  C   UNL     1      34.655 -21.742 -19.057  0.00  0.00    -0.000 C 
ATOM     31  C   UNL     1      33.281 -21.585 -19.235  0.00  0.00    -0.000 C 
ENDBRANCH  24  26
ENDBRANCH   2  24
TORSDOF 7
ENDMDL
MODEL 3
REMARK VINA RESULT:      -9.8      4.003     10.092
REMARK  Name = 24941248
REMARK  7 active torsions:
REMARK  status: ('A' for Active; 'I' for Inactive)
REMARK    1  A    between atoms: N_2  and  C_24
REMARK    2  A    between atoms: C_6  and  C_14
REMARK    3  A    between atoms: C_13  and  C_19
REMARK    4  A    between atoms: C_19  and  C_20
REMARK    5  A    between atoms: C_20  and  C_21
REMARK    6  A    between atoms: C_21  and  O_22
REMARK    7  A    between atoms: C_24  and  C_26
REMARK                            x       y       z     vdW  Elec       q    Type
REMARK                         _______ _______ _______ _____ _____    ______ ____
ROOT
ATOM      1  O   UNL     1      31.486 -12.417 -19.891  0.00  0.00    -0.352 OA
ATOM      2  N   UNL     1      32.932  -8.331 -23.161  0.00  0.00    -0.316 N 
ATOM      3  N   UNL     1      31.998 -13.534 -20.539  0.00  0.00    -0.077 NA
ATOM      4  N   UNL     1      31.837  -9.021 -21.162  0.00  0.00    -0.226 NA
ATOM      5  C   UNL     1      32.489 -11.661 -21.747  0.00  0.00    +0.062 A 
ATOM      6  C   UNL     1      32.590 -13.063 -21.641  0.00  0.00    +0.123 A 
ATOM      7  C   UNL     1      32.533  -9.367 -22.276  0.00  0.00    +0.129 C 
ATOM      8  C   UNL     1      32.895 -10.663 -22.634  0.00  0.00    +0.039 C 
ATOM      9  C   UNL     1      31.780 -11.304 -20.614  0.00  0.00    +0.196 A 
ATOM     10  C   UNL     1      31.448  -9.998 -20.306  0.00  0.00    +0.140 C 
ATOM     11  H   UNL     1      33.438  -8.570 -23.972  0.00  0.00    +0.148 HD
ENDROOT
BRANCH   6  14
ATOM     12 CL   UNL     1      33.398 -14.527 -26.518  0.00  0.00    -0.082 Cl
ATOM     13  C   UNL     1      34.697 -15.842 -22.971  0.00  0.00    -0.021 C 
ATOM     14  C   UNL     1      33.236 -13.963 -22.561  0.00  0.00    +0.021 C 
ATOM     15  C   UNL     1      34.070 -14.971 -22.080  0.00  0.00    -0.003 C 
ATOM     16  C   UNL     1      34.489 -15.705 -24.343  0.00  0.00    +0.007 C 
ATOM     17  C   UNL     1      33.028 -13.825 -23.933  0.00  0.00    +0.013 C 
ATOM     18  C   UNL     1      33.655 -14.696 -24.825  0.00  0.00    +0.057 C 
BRANCH  13  19
ATOM     19  C   UNL     1      35.590 -16.920 -22.456  0.00  0.00    +0.029 C 
BRANCH  19  20
ATOM     20  C   UNL     1      34.933 -18.304 -22.531  0.00  0.00    +0.036 C 
BRANCH  20  21
ATOM     21  C   UNL     1      35.045 -19.064 -21.217  0.00  0.00    +0.138 C 
BRANCH  21  22
ATOM     22  O   UNL     1      35.930 -18.362 -20.355  0.00  0.00    -0.382 OA
ATOM     23  H   UNL     1      35.419 -17.915 -19.662  0.00  0.00    +0.210 HD
ENDBRANCH  21  22
ENDBRANCH  20  21
ENDBRANCH  19  20
ENDBRANCH  13  19
ENDBRANCH   6  14
BRANCH   2  24
ATOM     24  C   UNL     1      32.630  -6.958 -22.924  0.00  0.00    +0.093 C 
ATOM     25  C   UNL     1      33.075  -6.576 -21.515  0.00  0.00    +0.026 C 
BRANCH  24  26
ATOM     26  C   UNL     1      33.253  -6.093 -23.997  0.00  0.00    -0.005 C 
ATOM     27  C   UNL     1      32.504  -5.086 -24.603  0.00  0.00    -0.003 C 
ATOM     28  C   UNL     1      34.579  -6.302 -24.379  0.00  0.00    -0.003 C 
ATOM     29  C   UNL     1      33.079  -4.287 -25.593  0.00  0.00    -0.000 C 
ATOM     30  C   UNL     1      35.153  -5.504 -25.368  0.00  0.00    -0.000 C 
ATOM     31  C   UNL     1      34.404  -4.496 -25.974  0.00  0.00    -0.000 C 
ENDBRANCH  24  26
ENDBRANCH   2  24
TORSDOF 7
ENDMDL
MODEL 4
REMARK VINA RESULT:      -9.4      4.055     10.239
REMARK  Name = 24941248
REMARK  7 active torsions:
REMARK  status: ('A' for Active; 'I' for Inactive)
REMARK    1  A    between atoms: N_2  and  C_24
REMARK    2  A    between atoms: C_6  and  C_14
REMARK    3  A    between atoms: C_13  and  C_19
REMARK    4  A    between atoms: C_19  and  C_20
REMARK    5  A    between atoms: C_20  and  C_21
REMARK    6  A    between atoms: C_21  and  O_22
REMARK    7  A    between atoms: C_24  and  C_26
REMARK                            x       y       z     vdW  Elec       q    Type
REMARK                         _______ _______ _______ _____ _____    ______ ____
ROOT
ATOM      1  O   UNL     1      31.748 -12.855 -19.746  0.00  0.00    -0.352 OA
ATOM      2  N   UNL     1      32.142  -8.171 -22.464  0.00  0.00    -0.316 N 
ATOM      3  N   UNL     1      32.218 -13.789 -20.661  0.00  0.00    -0.077 NA
ATOM      4  N   UNL     1      31.534  -9.287 -20.450  0.00  0.00    -0.226 NA
ATOM      5  C   UNL     1      32.290 -11.708 -21.594  0.00  0.00    +0.062 A 
ATOM      6  C   UNL     1      32.535 -13.086 -21.753  0.00  0.00    +0.123 A 
ATOM      7  C   UNL     1      32.021  -9.371 -21.715  0.00  0.00    +0.129 C 
ATOM      8  C   UNL     1      32.419 -10.543 -22.352  0.00  0.00    +0.039 C 
ATOM      9  C   UNL     1      31.792 -11.617 -20.306  0.00  0.00    +0.196 A 
ATOM     10  C   UNL     1      31.412 -10.423 -19.721  0.00  0.00    +0.140 C 
ATOM     11  H   UNL     1      32.495  -8.219 -23.382  0.00  0.00    +0.148 HD
ENDROOT
BRANCH   6  14
ATOM     12 CL   UNL     1      33.225 -13.106 -26.862  0.00  0.00    -0.082 Cl
ATOM     13  C   UNL     1      34.242 -15.607 -23.911  0.00  0.00    -0.021 C 
ATOM     14  C   UNL     1      33.062 -13.749 -22.917  0.00  0.00    +0.021 C 
ATOM     15  C   UNL     1      33.730 -14.966 -22.784  0.00  0.00    -0.003 C 
ATOM     16  C   UNL     1      34.086 -15.032 -25.173  0.00  0.00    +0.007 C 
ATOM     17  C   UNL     1      32.906 -13.173 -24.178  0.00  0.00    +0.013 C 
ATOM     18  C   UNL     1      33.418 -13.815 -25.306  0.00  0.00    +0.057 C 
BRANCH  13  19
ATOM     19  C   UNL     1      34.957 -16.908 -23.769  0.00  0.00    +0.029 C 
BRANCH  19  20
ATOM     20  C   UNL     1      35.293 -17.230 -22.307  0.00  0.00    +0.036 C 
BRANCH  20  21
ATOM     21  C   UNL     1      35.906 -18.615 -22.150  0.00  0.00    +0.138 C 
BRANCH  21  22
ATOM     22  O   UNL     1      34.989 -19.582 -22.644  0.00  0.00    -0.382 OA
ATOM     23  H   UNL     1      35.418 -20.110 -23.335  0.00  0.00    +0.210 HD
ENDBRANCH  21  22
ENDBRANCH  20  21
ENDBRANCH  19  20
ENDBRANCH  13  19
ENDBRANCH   6  14
BRANCH   2  24
ATOM     24  C   UNL     1      31.771  -6.898 -21.940  0.00  0.00    +0.093 C 
ATOM     25  C   UNL     1      32.539  -6.636 -20.647  0.00  0.00    +0.026 C 
BRANCH  24  26
ATOM     26  C   UNL     1      31.984  -5.822 -22.982  0.00  0.00    -0.005 C 
ATOM     27  C   UNL     1      32.912  -6.015 -24.004  0.00  0.00    -0.003 C 
ATOM     28  C   UNL     1      31.251  -4.636 -22.921  0.00  0.00    -0.003 C 
ATOM     29  C   UNL     1      33.110  -5.022 -24.965  0.00  0.00    -0.000 C 
ATOM     30  C   UNL     1      31.448  -3.644 -23.881  0.00  0.00    -0.000 C 
ATOM     31  C   UNL     1      32.377  -3.837 -24.904  0.00  0.00    -0.000 C 
ENDBRANCH  24  26
ENDBRANCH   2  24
TORSDOF 7
ENDMDL
MODEL 5
REMARK VINA RESULT:      -9.2      3.101      8.441
REMARK  Name = 24941248
REMARK  7 active torsions:
REMARK  status: ('A' for Active; 'I' for Inactive)
REMARK    1  A    between atoms: N_2  and  C_24
REMARK    2  A    between atoms: C_6  and  C_14
REMARK    3  A    between atoms: C_13  and  C_19
REMARK    4  A    between atoms: C_19  and  C_20
REMARK    5  A    between atoms: C_20  and  C_21
REMARK    6  A    between atoms: C_21  and  O_22
REMARK    7  A    between atoms: C_24  and  C_26
REMARK                            x       y       z     vdW  Elec       q    Type
REMARK                         _______ _______ _______ _____ _____    ______ ____
ROOT
ATOM      1  O   UNL     1      33.089 -17.648 -25.510  0.00  0.00    -0.352 OA
ATOM      2  N   UNL     1      34.394 -12.947 -23.128  0.00  0.00    -0.316 N 
ATOM      3  N   UNL     1      33.531 -18.597 -24.595  0.00  0.00    -0.077 NA
ATOM      4  N   UNL     1      33.424 -14.057 -24.998  0.00  0.00    -0.226 NA
ATOM      5  C   UNL     1      33.978 -16.505 -23.799  0.00  0.00    +0.062 A 
ATOM      6  C   UNL     1      34.057 -17.896 -23.586  0.00  0.00    +0.123 A 
ATOM      7  C   UNL     1      34.034 -14.151 -23.788  0.00  0.00    +0.129 C 
ATOM      8  C   UNL     1      34.342 -15.337 -23.128  0.00  0.00    +0.039 C 
ATOM      9  C   UNL     1      33.357 -16.404 -25.032  0.00  0.00    +0.196 A 
ATOM     10  C   UNL     1      33.073 -15.197 -25.642  0.00  0.00    +0.140 C 
ATOM     11  H   UNL     1      34.836 -13.003 -22.249  0.00  0.00    +0.148 HD
ENDROOT
BRANCH   6  14
ATOM     12 CL   UNL     1      38.105 -18.660 -20.486  0.00  0.00    -0.082 Cl
ATOM     13  C   UNL     1      34.391 -20.138 -20.620  0.00  0.00    -0.021 C 
ATOM     14  C   UNL     1      34.619 -18.573 -22.446  0.00  0.00    +0.021 C 
ATOM     15  C   UNL     1      33.847 -19.483 -21.725  0.00  0.00    -0.003 C 
ATOM     16  C   UNL     1      35.708 -19.883 -20.237  0.00  0.00    +0.007 C 
ATOM     17  C   UNL     1      35.936 -18.318 -22.063  0.00  0.00    +0.013 C 
ATOM     18  C   UNL     1      36.480 -18.973 -20.958  0.00  0.00    +0.057 C 
BRANCH  13  19
ATOM     19  C   UNL     1      33.564 -21.110 -19.848  0.00  0.00    +0.029 C 
BRANCH  19  20
ATOM     20  C   UNL     1      34.418 -22.011 -18.946  0.00  0.00    +0.036 C 
BRANCH  20  21
ATOM     21  C   UNL     1      33.581 -22.739 -17.905  0.00  0.00    +0.138 C 
BRANCH  21  22
ATOM     22  O   UNL     1      32.239 -22.278 -17.991  0.00  0.00    -0.382 OA
ATOM     23  H   UNL     1      31.636 -23.038 -17.992  0.00  0.00    +0.210 HD
ENDBRANCH  21  22
ENDBRANCH  20  21
ENDBRANCH  19  20
ENDBRANCH  13  19
ENDBRANCH   6  14
BRANCH   2  24
ATOM     24  C   UNL     1      34.142 -11.660 -23.685  0.00  0.00    +0.093 C 
ATOM     25  C   UNL     1      33.786 -11.806 -25.163  0.00  0.00    +0.026 C 
BRANCH  24  26
ATOM     26  C   UNL     1      33.073 -10.944 -22.888  0.00  0.00    -0.005 C 
ATOM     27  C   UNL     1      32.274 -11.658 -21.997  0.00  0.00    -0.003 C 
ATOM     28  C   UNL     1      32.889  -9.570 -23.044  0.00  0.00    -0.003 C 
ATOM     29  C   UNL     1      31.287 -10.998 -21.261  0.00  0.00    -0.000 C 
ATOM     30  C   UNL     1      31.904  -8.911 -22.310  0.00  0.00    -0.000 C 
ATOM     31  C   UNL     1      31.104  -9.624 -21.418  0.00  0.00    -0.000 C 
ENDBRANCH  24  26
ENDBRANCH   2  24
TORSDOF 7
ENDMDL
MODEL 6
REMARK VINA RESULT:      -8.8      3.086      8.696
REMARK  Name = 24941248
REMARK  7 active torsions:
REMARK  status: ('A' for Active; 'I' for Inactive)
REMARK    1  A    between atoms: N_2  and  C_24
REMARK    2  A    between atoms: C_6  and  C_14
REMARK    3  A    between atoms: C_13  and  C_19
REMARK    4  A    between atoms: C_19  and  C_20
REMARK    5  A    between atoms: C_20  and  C_21
REMARK    6  A    between atoms: C_21  and  O_22
REMARK    7  A    between atoms: C_24  and  C_26
REMARK                            x       y       z     vdW  Elec       q    Type
REMARK                         _______ _______ _______ _____ _____    ______ ____
ROOT
ATOM      1  O   UNL     1      33.672 -16.635 -25.925  0.00  0.00    -0.352 OA
ATOM      2  N   UNL     1      32.856 -12.668 -22.308  0.00  0.00    -0.316 N 
ATOM      3  N   UNL     1      34.272 -17.632 -25.166  0.00  0.00    -0.077 NA
ATOM      4  N   UNL     1      32.640 -13.420 -24.557  0.00  0.00    -0.226 NA
ATOM      5  C   UNL     1      33.827 -15.831 -23.838  0.00  0.00    +0.062 A 
ATOM      6  C   UNL     1      34.355 -17.134 -23.928  0.00  0.00    +0.123 A 
ATOM      7  C   UNL     1      33.049 -13.677 -23.288  0.00  0.00    +0.129 C 
ATOM      8  C   UNL     1      33.648 -14.856 -22.855  0.00  0.00    +0.039 C 
ATOM      9  C   UNL     1      33.409 -15.563 -25.130  0.00  0.00    +0.196 A 
ATOM     10  C   UNL     1      32.817 -14.372 -25.505  0.00  0.00    +0.140 C 
ATOM     11  H   UNL     1      33.147 -12.844 -21.384  0.00  0.00    +0.148 HD
ENDROOT
BRANCH   6  14
ATOM     12 CL   UNL     1      38.528 -18.386 -21.172  0.00  0.00    -0.082 Cl
ATOM     13  C   UNL     1      34.703 -19.554 -21.109  0.00  0.00    -0.021 C 
ATOM     14  C   UNL     1      34.936 -17.915 -22.867  0.00  0.00    +0.021 C 
ATOM     15  C   UNL     1      34.141 -18.798 -22.138  0.00  0.00    -0.003 C 
ATOM     16  C   UNL     1      36.060 -19.427 -20.810  0.00  0.00    +0.007 C 
ATOM     17  C   UNL     1      36.293 -17.787 -22.569  0.00  0.00    +0.013 C 
ATOM     18  C   UNL     1      36.854 -18.543 -21.540  0.00  0.00    +0.057 C 
BRANCH  13  19
ATOM     19  C   UNL     1      33.854 -20.498 -20.327  0.00  0.00    +0.029 C 
BRANCH  19  20
ATOM     20  C   UNL     1      34.681 -21.378 -19.381  0.00  0.00    +0.036 C 
BRANCH  20  21
ATOM     21  C   UNL     1      33.805 -22.261 -18.505  0.00  0.00    +0.138 C 
BRANCH  21  22
ATOM     22  O   UNL     1      33.720 -23.552 -19.092  0.00  0.00    -0.382 OA
ATOM     23  H   UNL     1      32.856 -23.944 -18.887  0.00  0.00    +0.210 HD
ENDBRANCH  21  22
ENDBRANCH  20  21
ENDBRANCH  19  20
ENDBRANCH  13  19
ENDBRANCH   6  14
BRANCH   2  24
ATOM     24  C   UNL     1      32.257 -11.410 -22.608  0.00  0.00    +0.093 C 
ATOM     25  C   UNL     1      31.489 -10.908 -21.387  0.00  0.00    +0.026 C 
BRANCH  24  26
ATOM     26  C   UNL     1      33.306 -10.432 -23.089  0.00  0.00    -0.005 C 
ATOM     27  C   UNL     1      34.328 -10.865 -23.932  0.00  0.00    -0.003 C 
ATOM     28  C   UNL     1      33.251  -9.096 -22.689  0.00  0.00    -0.003 C 
ATOM     29  C   UNL     1      35.297  -9.963 -24.375  0.00  0.00    -0.000 C 
ATOM     30  C   UNL     1      34.219  -8.195 -23.131  0.00  0.00    -0.000 C 
ATOM     31  C   UNL     1      35.241  -8.628 -23.975  0.00  0.00    -0.000 C 
ENDBRANCH  24  26
ENDBRANCH   2  24
TORSDOF 7
ENDMDL
MODEL 7
REMARK VINA RESULT:      -8.8      3.987      9.921
REMARK  Name = 24941248
REMARK  7 active torsions:
REMARK  status: ('A' for Active; 'I' for Inactive)
REMARK    1  A    between atoms: N_2  and  C_24
REMARK    2  A    between atoms: C_6  and  C_14
REMARK    3  A    between atoms: C_13  and  C_19
REMARK    4  A    between atoms: C_19  and  C_20
REMARK    5  A    between atoms: C_20  and  C_21
REMARK    6  A    between atoms: C_21  and  O_22
REMARK    7  A    between atoms: C_24  and  C_26
REMARK                            x       y       z     vdW  Elec       q    Type
REMARK                         _______ _______ _______ _____ _____    ______ ____
ROOT
ATOM      1  O   UNL     1      31.439 -12.537 -19.675  0.00  0.00    -0.352 OA
ATOM      2  N   UNL     1      32.871  -8.551 -23.072  0.00  0.00    -0.316 N 
ATOM      3  N   UNL     1      31.988 -13.667 -20.267  0.00  0.00    -0.077 NA
ATOM      4  N   UNL     1      31.748  -9.186 -21.071  0.00  0.00    -0.226 NA
ATOM      5  C   UNL     1      32.467 -11.833 -21.538  0.00  0.00    +0.062 A 
ATOM      6  C   UNL     1      32.595 -13.226 -21.374  0.00  0.00    +0.123 A 
ATOM      7  C   UNL     1      32.475  -9.560 -22.156  0.00  0.00    +0.129 C 
ATOM      8  C   UNL     1      32.871 -10.861 -22.454  0.00  0.00    +0.039 C 
ATOM      9  C   UNL     1      31.726 -11.446 -20.434  0.00  0.00    +0.196 A 
ATOM     10  C   UNL     1      31.360 -10.137 -20.186  0.00  0.00    +0.140 C 
ATOM     11  H   UNL     1      33.400  -8.811 -23.862  0.00  0.00    +0.148 HD
ENDROOT
BRANCH   6  14
ATOM     12 CL   UNL     1      35.909 -17.141 -21.893  0.00  0.00    -0.082 Cl
ATOM     13  C   UNL     1      33.725 -14.991 -24.463  0.00  0.00    -0.021 C 
ATOM     14  C   UNL     1      33.279 -14.147 -22.244  0.00  0.00    +0.021 C 
ATOM     15  C   UNL     1      33.062 -14.098 -23.620  0.00  0.00    -0.003 C 
ATOM     16  C   UNL     1      34.605 -15.932 -23.928  0.00  0.00    +0.007 C 
ATOM     17  C   UNL     1      34.160 -15.088 -21.709  0.00  0.00    +0.013 C 
ATOM     18  C   UNL     1      34.822 -15.981 -22.552  0.00  0.00    +0.057 C 
BRANCH  13  19
ATOM     19  C   UNL     1      33.492 -14.940 -25.935  0.00  0.00    +0.029 C 
BRANCH  19  20
ATOM     20  C   UNL     1      32.882 -13.604 -26.381  0.00  0.00    +0.036 C 
BRANCH  20  21
ATOM     21  C   UNL     1      33.947 -12.560 -26.682  0.00  0.00    +0.138 C 
BRANCH  21  22
ATOM     22  O   UNL     1      34.000 -11.634 -25.605  0.00  0.00    -0.382 OA
ATOM     23  H   UNL     1      34.017 -12.118 -24.764  0.00  0.00    +0.210 HD
ENDBRANCH  21  22
ENDBRANCH  20  21
ENDBRANCH  19  20
ENDBRANCH  13  19
ENDBRANCH   6  14
BRANCH   2  24
ATOM     24  C   UNL     1      32.536  -7.177 -22.896  0.00  0.00    +0.093 C 
ATOM     25  C   UNL     1      32.852  -6.756 -21.463  0.00  0.00    +0.026 C 
BRANCH  24  26
ATOM     26  C   UNL     1      33.242  -6.329 -23.931  0.00  0.00    -0.005 C 
ATOM     27  C   UNL     1      34.608  -6.494 -24.153  0.00  0.00    -0.003 C 
ATOM     28  C   UNL     1      32.526  -5.382 -24.664  0.00  0.00    -0.003 C 
ATOM     29  C   UNL     1      35.260  -5.711 -25.107  0.00  0.00    -0.000 C 
ATOM     30  C   UNL     1      33.177  -4.600 -25.617  0.00  0.00    -0.000 C 
ATOM     31  C   UNL     1      34.544  -4.765 -25.839  0.00  0.00    -0.000 C 
ENDBRANCH  24  26
ENDBRANCH   2  24
TORSDOF 7
ENDMDL
