MODEL 1
REMARK VINA RESULT:     -12.0      0.000      0.000
REMARK  Name = 9924495
REMARK  4 active torsions:
REMARK  status: ('A' for Active; 'I' for Inactive)
REMARK    1  A    between atoms: N_2  and  C_22
REMARK    2  A    between atoms: C_3  and  C_14
REMARK    3  A    between atoms: C_4  and  C_9
REMARK    4  A    between atoms: C_15  and  C_21
REMARK                            x       y       z     vdW  Elec       q    Type
REMARK                         _______ _______ _______ _____ _____    ______ ____
ROOT
ATOM      1  O   UNL     1      36.665 -23.015 -16.147  0.00  0.00    -0.269 OA
ATOM      2  N   UNL     1      34.399 -22.790 -16.756  0.00  0.00    -0.233 N 
ATOM      3  C   UNL     1      35.090 -23.849 -14.614  0.00  0.00    +0.055 C 
ATOM      4  C   UNL     1      32.757 -23.808 -15.316  0.00  0.00    +0.033 C 
ATOM      5  C   UNL     1      35.467 -23.161 -15.902  0.00  0.00    +0.257 C 
ATOM      6  C   UNL     1      33.803 -24.146 -14.379  0.00  0.00    +0.007 C 
ATOM      7  C   UNL     1      33.089 -23.146 -16.436  0.00  0.00    +0.074 C 
ENDROOT
BRANCH   4   9
ATOM      8  N   UNL     1      31.092 -25.127 -14.205  0.00  0.00    -0.244 NA
ATOM      9  C   UNL     1      31.335 -24.119 -15.071  0.00  0.00    +0.083 C 
ATOM     10  C   UNL     1      30.348 -23.394 -15.716  0.00  0.00    +0.019 C 
ATOM     11  C   UNL     1      29.022 -23.724 -15.454  0.00  0.00    +0.003 C 
ATOM     12  C   UNL     1      29.792 -25.420 -13.975  0.00  0.00    +0.099 C 
ATOM     13  C   UNL     1      28.731 -24.754 -14.568  0.00  0.00    +0.021 C 
ENDBRANCH   4   9
BRANCH   3  14
ATOM     14  C   UNL     1      36.114 -24.197 -13.613  0.00  0.00    +0.014 C 
ATOM     15  C   UNL     1      36.832 -25.390 -13.675  0.00  0.00    +0.069 C 
ATOM     16  C   UNL     1      36.356 -23.290 -12.580  0.00  0.00    +0.001 C 
ATOM     17  C   UNL     1      37.792 -25.679 -12.705  0.00  0.00    +0.010 C 
ATOM     18  C   UNL     1      37.316 -23.578 -11.610  0.00  0.00    +0.000 C 
ATOM     19  C   UNL     1      38.034 -24.772 -11.673  0.00  0.00    +0.001 C 
BRANCH  15  21
ATOM     20  N   UNL     1      36.430 -27.117 -15.564  0.00  0.00    -0.191 NA
ATOM     21  C   UNL     1      36.611 -26.345 -14.720  0.00  0.00    +0.100 C 
ENDBRANCH  15  21
ENDBRANCH   3  14
BRANCH   2  22
ATOM     22  C   UNL     1      34.682 -22.065 -17.981  0.00  0.00    +0.058 C 
ATOM     23  C   UNL     1      35.998 -21.788 -18.329  0.00  0.00    +0.015 C 
ATOM     24  C   UNL     1      33.631 -21.656 -18.795  0.00  0.00    +0.015 C 
ATOM     25  C   UNL     1      36.268 -21.092 -19.507  0.00  0.00    +0.001 C 
ATOM     26  C   UNL     1      33.902 -20.960 -19.973  0.00  0.00    +0.001 C 
ATOM     27  C   UNL     1      35.221 -20.678 -20.329  0.00  0.00    +0.000 C 
ENDBRANCH   2  22
TORSDOF 4
ENDMDL
MODEL 2
REMARK VINA RESULT:     -11.8      1.183      5.151
REMARK  Name = 9924495
REMARK  4 active torsions:
REMARK  status: ('A' for Active; 'I' for Inactive)
REMARK    1  A    between atoms: N_2  and  C_22
REMARK    2  A    between atoms: C_3  and  C_14
REMARK    3  A    between atoms: C_4  and  C_9
REMARK    4  A    between atoms: C_15  and  C_21
REMARK                            x       y       z     vdW  Elec       q    Type
REMARK                         _______ _______ _______ _____ _____    ______ ____
ROOT
ATOM      1  O   UNL     1      33.295 -24.553 -13.067  0.00  0.00    -0.269 OA
ATOM      2  N   UNL     1      32.643 -23.777 -15.195  0.00  0.00    -0.233 N 
ATOM      3  C   UNL     1      35.025 -23.811 -14.476  0.00  0.00    +0.055 C 
ATOM      4  C   UNL     1      34.353 -22.819 -16.598  0.00  0.00    +0.033 C 
ATOM      5  C   UNL     1      33.575 -24.104 -14.179  0.00  0.00    +0.257 C 
ATOM      6  C   UNL     1      35.349 -23.196 -15.623  0.00  0.00    +0.007 C 
ATOM      7  C   UNL     1      33.069 -23.132 -16.355  0.00  0.00    +0.074 C 
ENDROOT
BRANCH   4   9
ATOM      8  N   UNL     1      36.011 -21.996 -18.121  0.00  0.00    -0.244 NA
ATOM      9  C   UNL     1      34.693 -22.150 -17.869  0.00  0.00    +0.083 C 
ATOM     10  C   UNL     1      33.684 -21.722 -18.715  0.00  0.00    +0.019 C 
ATOM     11  C   UNL     1      34.054 -21.096 -19.901  0.00  0.00    +0.003 C 
ATOM     12  C   UNL     1      36.332 -21.382 -19.282  0.00  0.00    +0.099 C 
ATOM     13  C   UNL     1      35.400 -20.919 -20.197  0.00  0.00    +0.021 C 
ENDBRANCH   4   9
BRANCH   3  14
ATOM     14  C   UNL     1      36.085 -24.194 -13.526  0.00  0.00    +0.014 C 
ATOM     15  C   UNL     1      36.775 -25.400 -13.637  0.00  0.00    +0.069 C 
ATOM     16  C   UNL     1      36.391 -23.307 -12.493  0.00  0.00    +0.001 C 
ATOM     17  C   UNL     1      37.771 -25.722 -12.715  0.00  0.00    +0.010 C 
ATOM     18  C   UNL     1      37.388 -23.628 -11.571  0.00  0.00    +0.000 C 
ATOM     19  C   UNL     1      38.078 -24.835 -11.682  0.00  0.00    +0.001 C 
BRANCH  15  21
ATOM     20  N   UNL     1      36.258 -27.091 -15.530  0.00  0.00    -0.191 NA
ATOM     21  C   UNL     1      36.488 -26.335 -14.684  0.00  0.00    +0.100 C 
ENDBRANCH  15  21
ENDBRANCH   3  14
BRANCH   2  22
ATOM     22  C   UNL     1      31.240 -24.091 -15.006  0.00  0.00    +0.058 C 
ATOM     23  C   UNL     1      30.877 -25.299 -14.424  0.00  0.00    +0.015 C 
ATOM     24  C   UNL     1      30.271 -23.178 -15.408  0.00  0.00    +0.015 C 
ATOM     25  C   UNL     1      29.527 -25.600 -14.242  0.00  0.00    +0.001 C 
ATOM     26  C   UNL     1      28.922 -23.479 -15.226  0.00  0.00    +0.001 C 
ATOM     27  C   UNL     1      28.550 -24.690 -14.643  0.00  0.00    +0.000 C 
ENDBRANCH   2  22
TORSDOF 4
ENDMDL
MODEL 3
REMARK VINA RESULT:      -9.8      1.945      5.545
REMARK  Name = 9924495
REMARK  4 active torsions:
REMARK  status: ('A' for Active; 'I' for Inactive)
REMARK    1  A    between atoms: N_2  and  C_22
REMARK    2  A    between atoms: C_3  and  C_14
REMARK    3  A    between atoms: C_4  and  C_9
REMARK    4  A    between atoms: C_15  and  C_21
REMARK                            x       y       z     vdW  Elec       q    Type
REMARK                         _______ _______ _______ _____ _____    ______ ____
ROOT
ATOM      1  O   UNL     1      33.190 -24.637 -14.160  0.00  0.00    -0.269 OA
ATOM      2  N   UNL     1      32.233 -23.493 -15.984  0.00  0.00    -0.233 N 
ATOM      3  C   UNL     1      34.690 -23.822 -15.777  0.00  0.00    +0.055 C 
ATOM      4  C   UNL     1      33.736 -22.464 -17.562  0.00  0.00    +0.033 C 
ATOM      5  C   UNL     1      33.300 -24.044 -15.234  0.00  0.00    +0.257 C 
ATOM      6  C   UNL     1      34.854 -23.063 -16.871  0.00  0.00    +0.007 C 
ATOM      7  C   UNL     1      32.496 -22.710 -17.108  0.00  0.00    +0.074 C 
ENDROOT
BRANCH   4   9
ATOM      8  N   UNL     1      32.756 -21.167 -19.324  0.00  0.00    -0.244 NA
ATOM      9  C   UNL     1      33.898 -21.634 -18.772  0.00  0.00    +0.083 C 
ATOM     10  C   UNL     1      35.163 -21.383 -19.274  0.00  0.00    +0.019 C 
ATOM     11  C   UNL     1      35.265 -20.597 -20.417  0.00  0.00    +0.003 C 
ATOM     12  C   UNL     1      32.894 -20.407 -20.434  0.00  0.00    +0.099 C 
ATOM     13  C   UNL     1      34.114 -20.096 -21.013  0.00  0.00    +0.021 C 
ENDBRANCH   4   9
BRANCH   3  14
ATOM     14  C   UNL     1      35.864 -24.427 -15.124  0.00  0.00    +0.014 C 
ATOM     15  C   UNL     1      37.062 -23.732 -14.969  0.00  0.00    +0.069 C 
ATOM     16  C   UNL     1      35.752 -25.737 -14.656  0.00  0.00    +0.001 C 
ATOM     17  C   UNL     1      38.150 -24.344 -14.346  0.00  0.00    +0.010 C 
ATOM     18  C   UNL     1      36.839 -26.350 -14.032  0.00  0.00    +0.000 C 
ATOM     19  C   UNL     1      38.037 -25.653 -13.876  0.00  0.00    +0.001 C 
BRANCH  15  21
ATOM     20  N   UNL     1      37.338 -21.299 -15.817  0.00  0.00    -0.191 NA
ATOM     21  C   UNL     1      37.215 -22.386 -15.437  0.00  0.00    +0.100 C 
ENDBRANCH  15  21
ENDBRANCH   3  14
BRANCH   2  22
ATOM     22  C   UNL     1      30.865 -23.723 -15.558  0.00  0.00    +0.058 C 
ATOM     23  C   UNL     1      30.530 -24.919 -14.937  0.00  0.00    +0.015 C 
ATOM     24  C   UNL     1      29.904 -22.742 -15.775  0.00  0.00    +0.015 C 
ATOM     25  C   UNL     1      29.215 -25.139 -14.527  0.00  0.00    +0.001 C 
ATOM     26  C   UNL     1      28.589 -22.962 -15.365  0.00  0.00    +0.001 C 
ATOM     27  C   UNL     1      28.244 -24.161 -14.741  0.00  0.00    +0.000 C 
ENDBRANCH   2  22
TORSDOF 4
ENDMDL
MODEL 4
REMARK VINA RESULT:      -9.7      1.614      2.356
REMARK  Name = 9924495
REMARK  4 active torsions:
REMARK  status: ('A' for Active; 'I' for Inactive)
REMARK    1  A    between atoms: N_2  and  C_22
REMARK    2  A    between atoms: C_3  and  C_14
REMARK    3  A    between atoms: C_4  and  C_9
REMARK    4  A    between atoms: C_15  and  C_21
REMARK                            x       y       z     vdW  Elec       q    Type
REMARK                         _______ _______ _______ _____ _____    ______ ____
ROOT
ATOM      1  O   UNL     1      36.113 -22.645 -17.145  0.00  0.00    -0.269 OA
ATOM      2  N   UNL     1      33.860 -22.238 -17.706  0.00  0.00    -0.233 N 
ATOM      3  C   UNL     1      34.504 -23.453 -15.633  0.00  0.00    +0.055 C 
ATOM      4  C   UNL     1      32.171 -23.220 -16.295  0.00  0.00    +0.033 C 
ATOM      5  C   UNL     1      34.911 -22.723 -16.888  0.00  0.00    +0.257 C 
ATOM      6  C   UNL     1      33.203 -23.675 -15.393  0.00  0.00    +0.007 C 
ATOM      7  C   UNL     1      32.533 -22.523 -17.384  0.00  0.00    +0.074 C 
ENDROOT
BRANCH   4   9
ATOM      8  N   UNL     1      29.886 -22.576 -16.631  0.00  0.00    -0.244 NA
ATOM      9  C   UNL     1      30.734 -23.449 -16.044  0.00  0.00    +0.083 C 
ATOM     10  C   UNL     1      30.332 -24.505 -15.245  0.00  0.00    +0.019 C 
ATOM     11  C   UNL     1      28.967 -24.680 -15.037  0.00  0.00    +0.003 C 
ATOM     12  C   UNL     1      28.568 -22.776 -16.405  0.00  0.00    +0.099 C 
ATOM     13  C   UNL     1      28.063 -23.803 -15.624  0.00  0.00    +0.021 C 
ENDBRANCH   4   9
BRANCH   3  14
ATOM     14  C   UNL     1      35.515 -23.920 -14.666  0.00  0.00    +0.014 C 
ATOM     15  C   UNL     1      35.175 -24.300 -13.369  0.00  0.00    +0.069 C 
ATOM     16  C   UNL     1      36.845 -23.976 -15.084  0.00  0.00    +0.001 C 
ATOM     17  C   UNL     1      36.165 -24.735 -12.487  0.00  0.00    +0.010 C 
ATOM     18  C   UNL     1      37.835 -24.412 -14.203  0.00  0.00    +0.000 C 
ATOM     19  C   UNL     1      37.495 -24.791 -12.905  0.00  0.00    +0.001 C 
BRANCH  15  21
ATOM     20  N   UNL     1      32.725 -24.219 -12.531  0.00  0.00    -0.191 NA
ATOM     21  C   UNL     1      33.820 -24.255 -12.904  0.00  0.00    +0.100 C 
ENDBRANCH  15  21
ENDBRANCH   3  14
BRANCH   2  22
ATOM     22  C   UNL     1      34.176 -21.470 -18.895  0.00  0.00    +0.058 C 
ATOM     23  C   UNL     1      33.150 -20.896 -19.636  0.00  0.00    +0.015 C 
ATOM     24  C   UNL     1      35.502 -21.316 -19.282  0.00  0.00    +0.015 C 
ATOM     25  C   UNL     1      33.454 -20.157 -20.779  0.00  0.00    +0.001 C 
ATOM     26  C   UNL     1      35.806 -20.577 -20.425  0.00  0.00    +0.001 C 
ATOM     27  C   UNL     1      34.781 -19.997 -21.174  0.00  0.00    +0.000 C 
ENDBRANCH   2  22
TORSDOF 4
ENDMDL
MODEL 5
REMARK VINA RESULT:      -9.5      1.576      6.329
REMARK  Name = 9924495
REMARK  4 active torsions:
REMARK  status: ('A' for Active; 'I' for Inactive)
REMARK    1  A    between atoms: N_2  and  C_22
REMARK    2  A    between atoms: C_3  and  C_14
REMARK    3  A    between atoms: C_4  and  C_9
REMARK    4  A    between atoms: C_15  and  C_21
REMARK                            x       y       z     vdW  Elec       q    Type
REMARK                         _______ _______ _______ _____ _____    ______ ____
ROOT
ATOM      1  O   UNL     1      32.127 -22.526 -17.714  0.00  0.00    -0.269 OA
ATOM      2  N   UNL     1      32.358 -23.606 -15.632  0.00  0.00    -0.233 N 
ATOM      3  C   UNL     1      34.324 -22.785 -16.917  0.00  0.00    +0.055 C 
ATOM      4  C   UNL     1      34.595 -24.077 -14.868  0.00  0.00    +0.033 C 
ATOM      5  C   UNL     1      32.829 -22.939 -16.789  0.00  0.00    +0.257 C 
ATOM      6  C   UNL     1      35.123 -23.344 -15.996  0.00  0.00    +0.007 C 
ATOM      7  C   UNL     1      33.262 -24.164 -14.728  0.00  0.00    +0.074 C 
ENDROOT
BRANCH   4   9
ATOM      8  N   UNL     1      36.443 -25.494 -14.299  0.00  0.00    -0.244 NA
ATOM      9  C   UNL     1      35.459 -24.690 -13.840  0.00  0.00    +0.083 C 
ATOM     10  C   UNL     1      35.230 -24.429 -12.500  0.00  0.00    +0.019 C 
ATOM     11  C   UNL     1      36.070 -25.031 -11.568  0.00  0.00    +0.003 C 
ATOM     12  C   UNL     1      37.238 -26.062 -13.364  0.00  0.00    +0.099 C 
ATOM     13  C   UNL     1      37.094 -25.864 -12.000  0.00  0.00    +0.021 C 
ENDBRANCH   4   9
BRANCH   3  14
ATOM     14  C   UNL     1      34.915 -22.030 -18.035  0.00  0.00    +0.014 C 
ATOM     15  C   UNL     1      36.260 -21.661 -18.047  0.00  0.00    +0.069 C 
ATOM     16  C   UNL     1      34.088 -21.684 -19.104  0.00  0.00    +0.001 C 
ATOM     17  C   UNL     1      36.778 -20.944 -19.127  0.00  0.00    +0.010 C 
ATOM     18  C   UNL     1      34.605 -20.969 -20.184  0.00  0.00    +0.000 C 
ATOM     19  C   UNL     1      35.950 -20.599 -20.196  0.00  0.00    +0.001 C 
BRANCH  15  21
ATOM     20  N   UNL     1      37.852 -22.270 -16.097  0.00  0.00    -0.191 NA
ATOM     21  C   UNL     1      37.140 -21.998 -16.968  0.00  0.00    +0.100 C 
ENDBRANCH  15  21
ENDBRANCH   3  14
BRANCH   2  22
ATOM     22  C   UNL     1      30.930 -23.733 -15.409  0.00  0.00    +0.058 C 
ATOM     23  C   UNL     1      30.088 -22.675 -15.728  0.00  0.00    +0.015 C 
ATOM     24  C   UNL     1      30.419 -24.913 -14.882  0.00  0.00    +0.015 C 
ATOM     25  C   UNL     1      28.715 -22.797 -15.514  0.00  0.00    +0.001 C 
ATOM     26  C   UNL     1      29.046 -25.035 -14.668  0.00  0.00    +0.001 C 
ATOM     27  C   UNL     1      28.194 -23.977 -14.984  0.00  0.00    +0.000 C 
ENDBRANCH   2  22
TORSDOF 4
ENDMDL
MODEL 6
REMARK VINA RESULT:      -9.3      1.150      1.653
REMARK  Name = 9924495
REMARK  4 active torsions:
REMARK  status: ('A' for Active; 'I' for Inactive)
REMARK    1  A    between atoms: N_2  and  C_22
REMARK    2  A    between atoms: C_3  and  C_14
REMARK    3  A    between atoms: C_4  and  C_9
REMARK    4  A    between atoms: C_15  and  C_21
REMARK                            x       y       z     vdW  Elec       q    Type
REMARK                         _______ _______ _______ _____ _____    ______ ____
ROOT
ATOM      1  O   UNL     1      36.828 -23.050 -16.519  0.00  0.00    -0.269 OA
ATOM      2  N   UNL     1      34.521 -22.761 -16.901  0.00  0.00    -0.233 N 
ATOM      3  C   UNL     1      35.387 -23.942 -14.890  0.00  0.00    +0.055 C 
ATOM      4  C   UNL     1      32.999 -23.832 -15.368  0.00  0.00    +0.033 C 
ATOM      5  C   UNL     1      35.655 -23.192 -16.170  0.00  0.00    +0.257 C 
ATOM      6  C   UNL     1      34.121 -24.232 -14.552  0.00  0.00    +0.007 C 
ATOM      7  C   UNL     1      33.239 -23.115 -16.479  0.00  0.00    +0.074 C 
ENDROOT
BRANCH   4   9
ATOM      8  N   UNL     1      31.429 -25.035 -14.015  0.00  0.00    -0.244 NA
ATOM      9  C   UNL     1      31.600 -24.135 -15.007  0.00  0.00    +0.083 C 
ATOM     10  C   UNL     1      30.563 -23.509 -15.678  0.00  0.00    +0.019 C 
ATOM     11  C   UNL     1      29.262 -23.828 -15.303  0.00  0.00    +0.003 C 
ATOM     12  C   UNL     1      30.151 -25.320 -13.679  0.00  0.00    +0.099 C 
ATOM     13  C   UNL     1      29.044 -24.749 -14.286  0.00  0.00    +0.021 C 
ENDBRANCH   4   9
BRANCH   3  14
ATOM     14  C   UNL     1      36.492 -24.356 -14.008  0.00  0.00    +0.014 C 
ATOM     15  C   UNL     1      36.362 -24.374 -12.620  0.00  0.00    +0.069 C 
ATOM     16  C   UNL     1      37.696 -24.739 -14.601  0.00  0.00    +0.001 C 
ATOM     17  C   UNL     1      37.435 -24.772 -11.823  0.00  0.00    +0.010 C 
ATOM     18  C   UNL     1      38.769 -25.139 -13.804  0.00  0.00    +0.000 C 
ATOM     19  C   UNL     1      38.639 -25.156 -12.416  0.00  0.00    +0.001 C 
BRANCH  15  21
ATOM     20  N   UNL     1      34.155 -23.677 -11.456  0.00  0.00    -0.191 NA
ATOM     21  C   UNL     1      35.142 -23.987 -11.976  0.00  0.00    +0.100 C 
ENDBRANCH  15  21
ENDBRANCH   3  14
BRANCH   2  22
ATOM     22  C   UNL     1      34.702 -21.977 -18.108  0.00  0.00    +0.058 C 
ATOM     23  C   UNL     1      35.984 -21.640 -18.524  0.00  0.00    +0.015 C 
ATOM     24  C   UNL     1      33.590 -21.572 -18.838  0.00  0.00    +0.015 C 
ATOM     25  C   UNL     1      36.157 -20.886 -19.684  0.00  0.00    +0.001 C 
ATOM     26  C   UNL     1      33.763 -20.818 -19.998  0.00  0.00    +0.001 C 
ATOM     27  C   UNL     1      35.048 -20.475 -20.422  0.00  0.00    +0.000 C 
ENDBRANCH   2  22
TORSDOF 4
ENDMDL
MODEL 7
REMARK VINA RESULT:      -9.2      1.767      5.496
REMARK  Name = 9924495
REMARK  4 active torsions:
REMARK  status: ('A' for Active; 'I' for Inactive)
REMARK    1  A    between atoms: N_2  and  C_22
REMARK    2  A    between atoms: C_3  and  C_14
REMARK    3  A    between atoms: C_4  and  C_9
REMARK    4  A    between atoms: C_15  and  C_21
REMARK                            x       y       z     vdW  Elec       q    Type
REMARK                         _______ _______ _______ _____ _____    ______ ____
ROOT
ATOM      1  O   UNL     1      32.859 -25.080 -13.604  0.00  0.00    -0.269 OA
ATOM      2  N   UNL     1      32.318 -23.834 -15.530  0.00  0.00    -0.233 N 
ATOM      3  C   UNL     1      34.664 -24.442 -14.968  0.00  0.00    +0.055 C 
ATOM      4  C   UNL     1      34.146 -22.983 -16.850  0.00  0.00    +0.033 C 
ATOM      5  C   UNL     1      33.193 -24.504 -14.640  0.00  0.00    +0.257 C 
ATOM      6  C   UNL     1      35.074 -23.707 -16.012  0.00  0.00    +0.007 C 
ATOM      7  C   UNL     1      32.833 -23.086 -16.588  0.00  0.00    +0.074 C 
ENDROOT
BRANCH   4   9
ATOM      8  N   UNL     1      35.913 -22.021 -18.155  0.00  0.00    -0.244 NA
ATOM      9  C   UNL     1      34.578 -22.177 -18.009  0.00  0.00    +0.083 C 
ATOM     10  C   UNL     1      33.634 -21.633 -18.863  0.00  0.00    +0.019 C 
ATOM     11  C   UNL     1      34.089 -20.880 -19.940  0.00  0.00    +0.003 C 
ATOM     12  C   UNL     1      36.318 -21.282 -19.212  0.00  0.00    +0.099 C 
ATOM     13  C   UNL     1      35.454 -20.697 -20.125  0.00  0.00    +0.021 C 
ENDBRANCH   4   9
BRANCH   3  14
ATOM     14  C   UNL     1      35.652 -25.178 -14.160  0.00  0.00    +0.014 C 
ATOM     15  C   UNL     1      35.783 -24.974 -12.787  0.00  0.00    +0.069 C 
ATOM     16  C   UNL     1      36.472 -26.102 -14.809  0.00  0.00    +0.001 C 
ATOM     17  C   UNL     1      36.733 -25.692 -12.061  0.00  0.00    +0.010 C 
ATOM     18  C   UNL     1      37.422 -26.822 -14.084  0.00  0.00    +0.000 C 
ATOM     19  C   UNL     1      37.553 -26.617 -12.710  0.00  0.00    +0.001 C 
BRANCH  15  21
ATOM     20  N   UNL     1      34.295 -23.274 -11.520  0.00  0.00    -0.191 NA
ATOM     21  C   UNL     1      34.959 -24.034 -12.087  0.00  0.00    +0.100 C 
ENDBRANCH  15  21
ENDBRANCH   3  14
BRANCH   2  22
ATOM     22  C   UNL     1      30.885 -23.905 -15.314  0.00  0.00    +0.058 C 
ATOM     23  C   UNL     1      30.085 -22.818 -15.642  0.00  0.00    +0.015 C 
ATOM     24  C   UNL     1      30.328 -25.063 -14.782  0.00  0.00    +0.015 C 
ATOM     25  C   UNL     1      28.707 -22.889 -15.435  0.00  0.00    +0.001 C 
ATOM     26  C   UNL     1      28.950 -25.133 -14.575  0.00  0.00    +0.001 C 
ATOM     27  C   UNL     1      28.140 -24.045 -14.902  0.00  0.00    +0.000 C 
ENDBRANCH   2  22
TORSDOF 4
ENDMDL
