MODEL 1
REMARK VINA RESULT:     -12.2      0.000      0.000
REMARK  Name = 11476460
REMARK  8 active torsions:
REMARK  status: ('A' for Active; 'I' for Inactive)
REMARK    1  A    between atoms: C_2  and  N_10
REMARK    2  A    between atoms: C_5  and  C_23
REMARK    3  A    between atoms: C_11  and  C_14
REMARK    4  A    between atoms: C_14  and  O_15
REMARK    5  A    between atoms: O_15  and  P_16
REMARK    6  A    between atoms: P_16  and  O_18
REMARK    7  A    between atoms: P_16  and  O_20
REMARK    8  A    between atoms: C_27  and  C_32
REMARK                            x       y       z     vdW  Elec       q    Type
REMARK                         _______ _______ _______ _____ _____    ______ ____
ROOT
ATOM      1  F   UNL     1      33.282 -22.425 -18.204  0.00  0.00    -0.204 F 
ATOM      2  C   UNL     1      35.965 -23.186 -15.866  0.00  0.00    +0.059 C 
ATOM      3  C   UNL     1      34.708 -23.174 -16.478  0.00  0.00    +0.045 C 
ATOM      4  C   UNL     1      37.009 -22.440 -16.422  0.00  0.00    +0.015 C 
ATOM      5  C   UNL     1      35.541 -21.682 -18.185  0.00  0.00    +0.029 C 
ATOM      6  C   UNL     1      34.496 -22.424 -17.634  0.00  0.00    +0.141 C 
ATOM      7  C   UNL     1      36.797 -21.690 -17.579  0.00  0.00    +0.004 C 
ENDROOT
BRANCH   2  10
ATOM      8  O   UNL     1      36.349 -25.672 -13.234  0.00  0.00    -0.434 OA
ATOM      9  O   UNL     1      35.727 -26.175 -15.356  0.00  0.00    -0.226 OA
ATOM     10  N   UNL     1      36.181 -23.951 -14.685  0.00  0.00    -0.221 N 
ATOM     11  C   UNL     1      36.898 -24.530 -12.562  0.00  0.00    +0.221 C 
ATOM     12  C   UNL     1      36.464 -23.353 -13.409  0.00  0.00    +0.148 C 
ATOM     13  C   UNL     1      36.059 -25.331 -14.536  0.00  0.00    +0.409 C 
BRANCH  11  14
ATOM     14  C   UNL     1      38.411 -24.687 -12.483  0.00  0.00    +0.199 C 
BRANCH  14  15
ATOM     15  O   UNL     1      38.932 -24.717 -13.800  0.00  0.00    -0.269 OA
BRANCH  15  16
ATOM     16  P   UNL     1      39.767 -26.022 -14.270  0.00  0.00    +0.473 P 
ATOM     17  O   UNL     1      40.910 -26.402 -13.373  0.00  0.00    -0.227 OA
BRANCH  16  18
ATOM     18  O   UNL     1      40.171 -25.690 -15.800  0.00  0.00    -0.303 OA
ATOM     19  H   UNL     1      39.497 -25.112 -16.194  0.00  0.00    +0.222 HD
ENDBRANCH  16  18
BRANCH  16  20
ATOM     20  O   UNL     1      38.618 -27.150 -14.426  0.00  0.00    -0.303 OA
ATOM     21  H   UNL     1      38.981 -28.016 -14.185  0.00  0.00    +0.222 HD
ENDBRANCH  16  20
ENDBRANCH  15  16
ENDBRANCH  14  15
ENDBRANCH  11  14
ENDBRANCH   2  10
BRANCH   5  23
ATOM     22  N   UNL     1      33.789 -20.040 -21.036  0.00  0.00    -0.234 NA
ATOM     23  C   UNL     1      35.326 -20.901 -19.385  0.00  0.00    +0.021 C 
ATOM     24  C   UNL     1      36.386 -20.281 -20.033  0.00  0.00    +0.004 C 
ATOM     25  C   UNL     1      34.059 -20.753 -19.920  0.00  0.00    +0.100 C 
ATOM     26  C   UNL     1      36.149 -19.539 -21.184  0.00  0.00    +0.029 C 
ATOM     27  C   UNL     1      34.843 -19.450 -21.641  0.00  0.00    +0.146 C 
BRANCH  27  32
ATOM     28  N   UNL     1      34.993 -17.463 -23.046  0.00  0.00    -0.105 NA
ATOM     29  N   UNL     1      34.435 -17.241 -24.245  0.00  0.00    -0.113 N 
ATOM     30  N   UNL     1      33.759 -19.194 -23.824  0.00  0.00    -0.085 NA
ATOM     31  N   UNL     1      33.695 -18.240 -24.745  0.00  0.00    -0.018 NA
ATOM     32  C   UNL     1      34.541 -18.698 -22.825  0.00  0.00    +0.092 C 
ATOM     33  C   UNL     1      34.619 -16.002 -24.955  0.00  0.00    +0.163 C 
ENDBRANCH  27  32
ENDBRANCH   5  23
TORSDOF 8
ENDMDL
MODEL 2
REMARK VINA RESULT:     -12.0      1.104      1.655
REMARK  Name = 11476460
REMARK  8 active torsions:
REMARK  status: ('A' for Active; 'I' for Inactive)
REMARK    1  A    between atoms: C_2  and  N_10
REMARK    2  A    between atoms: C_5  and  C_23
REMARK    3  A    between atoms: C_11  and  C_14
REMARK    4  A    between atoms: C_14  and  O_15
REMARK    5  A    between atoms: O_15  and  P_16
REMARK    6  A    between atoms: P_16  and  O_18
REMARK    7  A    between atoms: P_16  and  O_20
REMARK    8  A    between atoms: C_27  and  C_32
REMARK                            x       y       z     vdW  Elec       q    Type
REMARK                         _______ _______ _______ _____ _____    ______ ____
ROOT
ATOM      1  F   UNL     1      37.458 -20.957 -17.713  0.00  0.00    -0.204 F 
ATOM      2  C   UNL     1      35.875 -23.494 -15.638  0.00  0.00    +0.059 C 
ATOM      3  C   UNL     1      36.816 -22.581 -16.124  0.00  0.00    +0.045 C 
ATOM      4  C   UNL     1      34.653 -23.642 -16.303  0.00  0.00    +0.015 C 
ATOM      5  C   UNL     1      35.321 -21.978 -17.922  0.00  0.00    +0.029 C 
ATOM      6  C   UNL     1      36.541 -21.825 -17.263  0.00  0.00    +0.141 C 
ATOM      7  C   UNL     1      34.377 -22.887 -17.443  0.00  0.00    +0.004 C 
ENDROOT
BRANCH   2  10
ATOM      8  O   UNL     1      36.514 -26.000 -13.076  0.00  0.00    -0.434 OA
ATOM      9  O   UNL     1      36.038 -26.504 -15.236  0.00  0.00    -0.226 OA
ATOM     10  N   UNL     1      36.156 -24.266 -14.476  0.00  0.00    -0.221 N 
ATOM     11  C   UNL     1      36.876 -24.820 -12.347  0.00  0.00    +0.221 C 
ATOM     12  C   UNL     1      36.311 -23.682 -13.171  0.00  0.00    +0.148 C 
ATOM     13  C   UNL     1      36.222 -25.654 -14.376  0.00  0.00    +0.409 C 
BRANCH  11  14
ATOM     14  C   UNL     1      38.393 -24.769 -12.216  0.00  0.00    +0.199 C 
BRANCH  14  15
ATOM     15  O   UNL     1      38.939 -25.923 -12.830  0.00  0.00    -0.269 OA
BRANCH  15  16
ATOM     16  P   UNL     1      40.079 -25.728 -13.964  0.00  0.00    +0.473 P 
ATOM     17  O   UNL     1      40.790 -24.407 -13.928  0.00  0.00    -0.227 OA
BRANCH  16  18
ATOM     18  O   UNL     1      39.308 -26.061 -15.346  0.00  0.00    -0.303 OA
ATOM     19  H   UNL     1      38.394 -25.738 -15.292  0.00  0.00    +0.222 HD
ENDBRANCH  16  18
BRANCH  16  20
ATOM     20  O   UNL     1      41.028 -27.020 -13.748  0.00  0.00    -0.303 OA
ATOM     21  H   UNL     1      41.925 -26.817 -14.056  0.00  0.00    +0.222 HD
ENDBRANCH  16  20
ENDBRANCH  15  16
ENDBRANCH  14  15
ENDBRANCH  11  14
ENDBRANCH   2  10
BRANCH   5  23
ATOM     22  N   UNL     1      35.846 -19.885 -20.961  0.00  0.00    -0.234 NA
ATOM     23  C   UNL     1      35.030 -21.196 -19.105  0.00  0.00    +0.021 C 
ATOM     24  C   UNL     1      33.721 -20.995 -19.525  0.00  0.00    +0.004 C 
ATOM     25  C   UNL     1      36.047 -20.626 -19.850  0.00  0.00    +0.100 C 
ATOM     26  C   UNL     1      33.473 -20.239 -20.664  0.00  0.00    +0.029 C 
ATOM     27  C   UNL     1      34.561 -19.710 -21.341  0.00  0.00    +0.146 C 
BRANCH  27  32
ATOM     28  N   UNL     1      34.907 -17.714 -22.699  0.00  0.00    -0.105 NA
ATOM     29  N   UNL     1      34.420 -17.435 -23.916  0.00  0.00    -0.113 N 
ATOM     30  N   UNL     1      33.597 -19.345 -23.565  0.00  0.00    -0.085 NA
ATOM     31  N   UNL     1      33.639 -18.373 -24.469  0.00  0.00    -0.018 NA
ATOM     32  C   UNL     1      34.363 -18.920 -22.523  0.00  0.00    +0.092 C 
ATOM     33  C   UNL     1      34.719 -16.200 -24.593  0.00  0.00    +0.163 C 
ENDBRANCH  27  32
ENDBRANCH   5  23
TORSDOF 8
ENDMDL
MODEL 3
REMARK VINA RESULT:     -11.2      7.096     11.071
REMARK  Name = 11476460
REMARK  8 active torsions:
REMARK  status: ('A' for Active; 'I' for Inactive)
REMARK    1  A    between atoms: C_2  and  N_10
REMARK    2  A    between atoms: C_5  and  C_23
REMARK    3  A    between atoms: C_11  and  C_14
REMARK    4  A    between atoms: C_14  and  O_15
REMARK    5  A    between atoms: O_15  and  P_16
REMARK    6  A    between atoms: P_16  and  O_18
REMARK    7  A    between atoms: P_16  and  O_20
REMARK    8  A    between atoms: C_27  and  C_32
REMARK                            x       y       z     vdW  Elec       q    Type
REMARK                         _______ _______ _______ _____ _____    ______ ____
ROOT
ATOM      1  F   UNL     1      32.974 -21.077 -19.590  0.00  0.00    -0.204 F 
ATOM      2  C   UNL     1      34.975 -19.121 -21.916  0.00  0.00    +0.059 C 
ATOM      3  C   UNL     1      33.872 -19.722 -21.302  0.00  0.00    +0.045 C 
ATOM      4  C   UNL     1      36.252 -19.313 -21.379  0.00  0.00    +0.015 C 
ATOM      5  C   UNL     1      35.321 -20.697 -19.632  0.00  0.00    +0.029 C 
ATOM      6  C   UNL     1      34.044 -20.509 -20.163  0.00  0.00    +0.141 C 
ATOM      7  C   UNL     1      36.424 -20.099 -20.240  0.00  0.00    +0.004 C 
ENDROOT
BRANCH   2  10
ATOM      8  O   UNL     1      34.233 -17.621 -25.150  0.00  0.00    -0.434 OA
ATOM      9  O   UNL     1      33.702 -19.757 -24.604  0.00  0.00    -0.226 OA
ATOM     10  N   UNL     1      34.800 -18.318 -23.079  0.00  0.00    -0.221 N 
ATOM     11  C   UNL     1      34.669 -16.452 -24.442  0.00  0.00    +0.221 C 
ATOM     12  C   UNL     1      35.351 -16.996 -23.204  0.00  0.00    +0.148 C 
ATOM     13  C   UNL     1      34.192 -18.685 -24.277  0.00  0.00    +0.409 C 
BRANCH  11  14
ATOM     14  C   UNL     1      33.455 -15.588 -24.126  0.00  0.00    +0.199 C 
BRANCH  14  15
ATOM     15  O   UNL     1      33.796 -14.231 -24.347  0.00  0.00    -0.269 OA
BRANCH  15  16
ATOM     16  P   UNL     1      33.682 -13.194 -23.108  0.00  0.00    +0.473 P 
ATOM     17  O   UNL     1      32.317 -13.090 -22.492  0.00  0.00    -0.227 OA
BRANCH  16  18
ATOM     18  O   UNL     1      34.278 -11.815 -23.705  0.00  0.00    -0.303 OA
ATOM     19  H   UNL     1      35.031 -11.527 -23.164  0.00  0.00    +0.222 HD
ENDBRANCH  16  18
BRANCH  16  20
ATOM     20  O   UNL     1      34.847 -13.699 -22.105  0.00  0.00    -0.303 OA
ATOM     21  H   UNL     1      35.663 -13.208 -22.287  0.00  0.00    +0.222 HD
ENDBRANCH  16  20
ENDBRANCH  15  16
ENDBRANCH  14  15
ENDBRANCH  11  14
ENDBRANCH   2  10
BRANCH   5  23
ATOM     22  N   UNL     1      34.600 -23.127 -16.899  0.00  0.00    -0.234 NA
ATOM     23  C   UNL     1      35.505 -21.513 -18.451  0.00  0.00    +0.021 C 
ATOM     24  C   UNL     1      36.698 -21.484 -17.742  0.00  0.00    +0.004 C 
ATOM     25  C   UNL     1      34.495 -22.342 -17.994  0.00  0.00    +0.100 C 
ATOM     26  C   UNL     1      36.845 -22.278 -16.610  0.00  0.00    +0.029 C 
ATOM     27  C   UNL     1      35.775 -23.075 -16.233  0.00  0.00    +0.146 C 
BRANCH  27  32
ATOM     28  N   UNL     1      36.749 -24.911 -14.958  0.00  0.00    -0.105 NA
ATOM     29  N   UNL     1      36.420 -25.345 -13.733  0.00  0.00    -0.113 N 
ATOM     30  N   UNL     1      35.062 -23.752 -13.988  0.00  0.00    -0.085 NA
ATOM     31  N   UNL     1      35.426 -24.688 -13.120  0.00  0.00    -0.018 NA
ATOM     32  C   UNL     1      35.870 -23.913 -15.073  0.00  0.00    +0.092 C 
ATOM     33  C   UNL     1      37.096 -26.454 -13.110  0.00  0.00    +0.163 C 
ENDBRANCH  27  32
ENDBRANCH   5  23
TORSDOF 8
ENDMDL
MODEL 4
REMARK VINA RESULT:     -11.0      1.901      2.739
REMARK  Name = 11476460
REMARK  8 active torsions:
REMARK  status: ('A' for Active; 'I' for Inactive)
REMARK    1  A    between atoms: C_2  and  N_10
REMARK    2  A    between atoms: C_5  and  C_23
REMARK    3  A    between atoms: C_11  and  C_14
REMARK    4  A    between atoms: C_14  and  O_15
REMARK    5  A    between atoms: O_15  and  P_16
REMARK    6  A    between atoms: P_16  and  O_18
REMARK    7  A    between atoms: P_16  and  O_20
REMARK    8  A    between atoms: C_27  and  C_32
REMARK                            x       y       z     vdW  Elec       q    Type
REMARK                         _______ _______ _______ _____ _____    ______ ____
ROOT
ATOM      1  F   UNL     1      33.042 -22.202 -19.106  0.00  0.00    -0.204 F 
ATOM      2  C   UNL     1      35.633 -22.877 -16.642  0.00  0.00    +0.059 C 
ATOM      3  C   UNL     1      34.418 -22.929 -17.331  0.00  0.00    +0.045 C 
ATOM      4  C   UNL     1      36.646 -22.025 -17.095  0.00  0.00    +0.015 C 
ATOM      5  C   UNL     1      35.229 -21.290 -18.909  0.00  0.00    +0.029 C 
ATOM      6  C   UNL     1      34.216 -22.138 -18.461  0.00  0.00    +0.141 C 
ATOM      7  C   UNL     1      36.444 -21.233 -18.226  0.00  0.00    +0.004 C 
ENDROOT
BRANCH   2  10
ATOM      8  O   UNL     1      36.783 -24.673 -13.691  0.00  0.00    -0.434 OA
ATOM      9  O   UNL     1      38.071 -23.214 -14.854  0.00  0.00    -0.226 OA
ATOM     10  N   UNL     1      35.840 -23.684 -15.488  0.00  0.00    -0.221 N 
ATOM     11  C   UNL     1      35.390 -25.013 -13.647  0.00  0.00    +0.221 C 
ATOM     12  C   UNL     1      34.868 -24.633 -15.016  0.00  0.00    +0.148 C 
ATOM     13  C   UNL     1      36.994 -23.775 -14.713  0.00  0.00    +0.409 C 
BRANCH  11  14
ATOM     14  C   UNL     1      34.730 -24.235 -12.517  0.00  0.00    +0.199 C 
BRANCH  14  15
ATOM     15  O   UNL     1      35.738 -23.577 -11.770  0.00  0.00    -0.269 OA
BRANCH  15  16
ATOM     16  P   UNL     1      36.211 -24.232 -10.367  0.00  0.00    +0.473 P 
ATOM     17  O   UNL     1      35.203 -25.134  -9.716  0.00  0.00    -0.227 OA
BRANCH  16  18
ATOM     18  O   UNL     1      36.671 -22.958  -9.484  0.00  0.00    -0.303 OA
ATOM     19  H   UNL     1      36.016 -22.247  -9.576  0.00  0.00    +0.222 HD
ENDBRANCH  16  18
BRANCH  16  20
ATOM     20  O   UNL     1      37.613 -24.941 -10.753  0.00  0.00    -0.303 OA
ATOM     21  H   UNL     1      37.892 -24.645 -11.634  0.00  0.00    +0.222 HD
ENDBRANCH  16  20
ENDBRANCH  15  16
ENDBRANCH  14  15
ENDBRANCH  11  14
ENDBRANCH   2  10
BRANCH   5  23
ATOM     22  N   UNL     1      33.509 -19.587 -21.743  0.00  0.00    -0.234 NA
ATOM     23  C   UNL     1      35.024 -20.466 -20.081  0.00  0.00    +0.021 C 
ATOM     24  C   UNL     1      36.082 -19.785 -20.669  0.00  0.00    +0.004 C 
ATOM     25  C   UNL     1      33.770 -20.337 -20.650  0.00  0.00    +0.100 C 
ATOM     26  C   UNL     1      35.854 -19.002 -21.795  0.00  0.00    +0.029 C 
ATOM     27  C   UNL     1      34.561 -18.937 -22.289  0.00  0.00    +0.146 C 
BRANCH  27  32
ATOM     28  N   UNL     1      34.717 -16.900 -23.622  0.00  0.00    -0.105 NA
ATOM     29  N   UNL     1      34.173 -16.640 -24.819  0.00  0.00    -0.113 N 
ATOM     30  N   UNL     1      33.503 -18.610 -24.476  0.00  0.00    -0.085 NA
ATOM     31  N   UNL     1      33.445 -17.625 -25.364  0.00  0.00    -0.018 NA
ATOM     32  C   UNL     1      34.269 -18.146 -23.450  0.00  0.00    +0.092 C 
ATOM     33  C   UNL     1      34.358 -15.376 -25.483  0.00  0.00    +0.163 C 
ENDBRANCH  27  32
ENDBRANCH   5  23
TORSDOF 8
ENDMDL
MODEL 5
REMARK VINA RESULT:     -10.8      5.707      6.653
REMARK  Name = 11476460
REMARK  8 active torsions:
REMARK  status: ('A' for Active; 'I' for Inactive)
REMARK    1  A    between atoms: C_2  and  N_10
REMARK    2  A    between atoms: C_5  and  C_23
REMARK    3  A    between atoms: C_11  and  C_14
REMARK    4  A    between atoms: C_14  and  O_15
REMARK    5  A    between atoms: O_15  and  P_16
REMARK    6  A    between atoms: P_16  and  O_18
REMARK    7  A    between atoms: P_16  and  O_20
REMARK    8  A    between atoms: C_27  and  C_32
REMARK                            x       y       z     vdW  Elec       q    Type
REMARK                         _______ _______ _______ _____ _____    ______ ____
ROOT
ATOM      1  F   UNL     1      31.431 -25.391 -12.934  0.00  0.00    -0.204 F 
ATOM      2  C   UNL     1      34.827 -24.088 -12.822  0.00  0.00    +0.059 C 
ATOM      3  C   UNL     1      33.708 -24.887 -12.567  0.00  0.00    +0.045 C 
ATOM      4  C   UNL     1      34.717 -23.012 -13.709  0.00  0.00    +0.015 C 
ATOM      5  C   UNL     1      32.388 -23.539 -14.077  0.00  0.00    +0.029 C 
ATOM      6  C   UNL     1      32.491 -24.613 -13.193  0.00  0.00    +0.141 C 
ATOM      7  C   UNL     1      33.501 -22.738 -14.335  0.00  0.00    +0.004 C 
ENDROOT
BRANCH   2  10
ATOM      8  O   UNL     1      37.618 -24.948 -10.649  0.00  0.00    -0.434 OA
ATOM      9  O   UNL     1      35.448 -25.025  -9.996  0.00  0.00    -0.226 OA
ATOM     10  N   UNL     1      36.068 -24.366 -12.183  0.00  0.00    -0.221 N 
ATOM     11  C   UNL     1      38.318 -24.826 -11.895  0.00  0.00    +0.221 C 
ATOM     12  C   UNL     1      37.339 -24.116 -12.806  0.00  0.00    +0.148 C 
ATOM     13  C   UNL     1      36.268 -24.805 -10.876  0.00  0.00    +0.409 C 
BRANCH  11  14
ATOM     14  C   UNL     1      38.693 -26.217 -12.386  0.00  0.00    +0.199 C 
BRANCH  14  15
ATOM     15  O   UNL     1      38.929 -26.157 -13.782  0.00  0.00    -0.269 OA
BRANCH  15  16
ATOM     16  P   UNL     1      40.459 -26.075 -14.304  0.00  0.00    +0.473 P 
ATOM     17  O   UNL     1      41.368 -27.146 -13.775  0.00  0.00    -0.227 OA
BRANCH  16  18
ATOM     18  O   UNL     1      40.903 -24.559 -13.958  0.00  0.00    -0.303 OA
ATOM     19  H   UNL     1      40.755 -24.386 -13.014  0.00  0.00    +0.222 HD
ENDBRANCH  16  18
BRANCH  16  20
ATOM     20  O   UNL     1      40.292 -26.054 -15.913  0.00  0.00    -0.303 OA
ATOM     21  H   UNL     1      39.352 -25.974 -16.138  0.00  0.00    +0.222 HD
ENDBRANCH  16  20
ENDBRANCH  15  16
ENDBRANCH  14  15
ENDBRANCH  11  14
ENDBRANCH   2  10
BRANCH   5  23
ATOM     22  N   UNL     1      29.946 -22.571 -16.721  0.00  0.00    -0.234 NA
ATOM     23  C   UNL     1      31.128 -23.251 -14.728  0.00  0.00    +0.021 C 
ATOM     24  C   UNL     1      29.928 -23.358 -14.039  0.00  0.00    +0.004 C 
ATOM     25  C   UNL     1      31.086 -22.857 -16.054  0.00  0.00    +0.100 C 
ATOM     26  C   UNL     1      28.733 -23.072 -14.691  0.00  0.00    +0.029 C 
ATOM     27  C   UNL     1      28.796 -22.687 -16.020  0.00  0.00    +0.146 C 
BRANCH  27  32
ATOM     28  N   UNL     1      27.481 -22.502 -18.066  0.00  0.00    -0.105 NA
ATOM     29  N   UNL     1      26.210 -22.100 -18.210  0.00  0.00    -0.113 N 
ATOM     30  N   UNL     1      26.466 -21.930 -16.124  0.00  0.00    -0.085 NA
ATOM     31  N   UNL     1      25.569 -21.751 -17.085  0.00  0.00    -0.018 NA
ATOM     32  C   UNL     1      27.594 -22.378 -16.742  0.00  0.00    +0.092 C 
ATOM     33  C   UNL     1      25.569 -22.044 -19.498  0.00  0.00    +0.163 C 
ENDBRANCH  27  32
ENDBRANCH   5  23
TORSDOF 8
ENDMDL
MODEL 6
REMARK VINA RESULT:     -10.1      2.651      3.892
REMARK  Name = 11476460
REMARK  8 active torsions:
REMARK  status: ('A' for Active; 'I' for Inactive)
REMARK    1  A    between atoms: C_2  and  N_10
REMARK    2  A    between atoms: C_5  and  C_23
REMARK    3  A    between atoms: C_11  and  C_14
REMARK    4  A    between atoms: C_14  and  O_15
REMARK    5  A    between atoms: O_15  and  P_16
REMARK    6  A    between atoms: P_16  and  O_18
REMARK    7  A    between atoms: P_16  and  O_20
REMARK    8  A    between atoms: C_27  and  C_32
REMARK                            x       y       z     vdW  Elec       q    Type
REMARK                         _______ _______ _______ _____ _____    ______ ____
ROOT
ATOM      1  F   UNL     1      37.373 -20.627 -18.525  0.00  0.00    -0.204 F 
ATOM      2  C   UNL     1      35.506 -22.917 -16.401  0.00  0.00    +0.059 C 
ATOM      3  C   UNL     1      36.547 -22.130 -16.903  0.00  0.00    +0.045 C 
ATOM      4  C   UNL     1      34.276 -22.940 -17.067  0.00  0.00    +0.015 C 
ATOM      5  C   UNL     1      35.133 -21.401 -18.721  0.00  0.00    +0.029 C 
ATOM      6  C   UNL     1      36.361 -21.374 -18.060  0.00  0.00    +0.141 C 
ATOM      7  C   UNL     1      34.091 -22.184 -18.225  0.00  0.00    +0.004 C 
ENDROOT
BRANCH   2  10
ATOM      8  O   UNL     1      36.496 -24.459 -13.254  0.00  0.00    -0.434 OA
ATOM      9  O   UNL     1      37.520 -22.639 -14.139  0.00  0.00    -0.226 OA
ATOM     10  N   UNL     1      35.695 -23.689 -15.220  0.00  0.00    -0.221 N 
ATOM     11  C   UNL     1      35.281 -25.180 -13.499  0.00  0.00    +0.221 C 
ATOM     12  C   UNL     1      34.962 -24.896 -14.951  0.00  0.00    +0.148 C 
ATOM     13  C   UNL     1      36.644 -23.488 -14.220  0.00  0.00    +0.409 C 
BRANCH  11  14
ATOM     14  C   UNL     1      34.209 -24.677 -12.541  0.00  0.00    +0.199 C 
BRANCH  14  15
ATOM     15  O   UNL     1      32.944 -25.116 -13.005  0.00  0.00    -0.269 OA
BRANCH  15  16
ATOM     16  P   UNL     1      31.757 -24.026 -13.157  0.00  0.00    +0.473 P 
ATOM     17  O   UNL     1      31.453 -23.612 -14.567  0.00  0.00    -0.227 OA
BRANCH  16  18
ATOM     18  O   UNL     1      32.204 -22.830 -12.166  0.00  0.00    -0.303 OA
ATOM     19  H   UNL     1      31.774 -22.947 -11.303  0.00  0.00    +0.222 HD
ENDBRANCH  16  18
BRANCH  16  20
ATOM     20  O   UNL     1      30.526 -24.721 -12.369  0.00  0.00    -0.303 OA
ATOM     21  H   UNL     1      29.924 -24.034 -12.042  0.00  0.00    +0.222 HD
ENDBRANCH  16  20
ENDBRANCH  15  16
ENDBRANCH  14  15
ENDBRANCH  11  14
ENDBRANCH   2  10
BRANCH   5  23
ATOM     22  N   UNL     1      33.412 -19.684 -21.547  0.00  0.00    -0.234 NA
ATOM     23  C   UNL     1      34.935 -20.619 -19.923  0.00  0.00    +0.021 C 
ATOM     24  C   UNL     1      36.014 -20.068 -20.601  0.00  0.00    +0.004 C 
ATOM     25  C   UNL     1      33.667 -20.401 -20.430  0.00  0.00    +0.100 C 
ATOM     26  C   UNL     1      35.794 -19.323 -21.754  0.00  0.00    +0.029 C 
ATOM     27  C   UNL     1      34.485 -19.161 -22.182  0.00  0.00    +0.146 C 
BRANCH  27  32
ATOM     28  N   UNL     1      34.650 -17.164 -23.571  0.00  0.00    -0.105 NA
ATOM     29  N   UNL     1      34.111 -16.938 -24.778  0.00  0.00    -0.113 N 
ATOM     30  N   UNL     1      33.437 -18.896 -24.381  0.00  0.00    -0.085 NA
ATOM     31  N   UNL     1      33.384 -17.937 -25.297  0.00  0.00    -0.018 NA
ATOM     32  C   UNL     1      34.199 -18.404 -23.366  0.00  0.00    +0.092 C 
ATOM     33  C   UNL     1      34.301 -15.693 -25.477  0.00  0.00    +0.163 C 
ENDBRANCH  27  32
ENDBRANCH   5  23
TORSDOF 8
ENDMDL
MODEL 7
REMARK VINA RESULT:     -10.0     12.589     15.859
REMARK  Name = 11476460
REMARK  8 active torsions:
REMARK  status: ('A' for Active; 'I' for Inactive)
REMARK    1  A    between atoms: C_2  and  N_10
REMARK    2  A    between atoms: C_5  and  C_23
REMARK    3  A    between atoms: C_11  and  C_14
REMARK    4  A    between atoms: C_14  and  O_15
REMARK    5  A    between atoms: O_15  and  P_16
REMARK    6  A    between atoms: P_16  and  O_18
REMARK    7  A    between atoms: P_16  and  O_20
REMARK    8  A    between atoms: C_27  and  C_32
REMARK                            x       y       z     vdW  Elec       q    Type
REMARK                         _______ _______ _______ _____ _____    ______ ____
ROOT
ATOM      1  F   UNL     1      31.573 -12.754 -20.330  0.00  0.00    -0.204 F 
ATOM      2  C   UNL     1      32.025  -9.618 -22.121  0.00  0.00    +0.059 C 
ATOM      3  C   UNL     1      31.535 -10.567 -21.218  0.00  0.00    +0.045 C 
ATOM      4  C   UNL     1      33.043  -9.976 -23.011  0.00  0.00    +0.015 C 
ATOM      5  C   UNL     1      33.074 -12.211 -22.093  0.00  0.00    +0.029 C 
ATOM      6  C   UNL     1      32.058 -11.860 -21.204  0.00  0.00    +0.141 C 
ATOM      7  C   UNL     1      33.566 -11.269 -22.997  0.00  0.00    +0.004 C 
ENDROOT
BRANCH   2  10
ATOM      8  O   UNL     1      30.884  -6.213 -21.521  0.00  0.00    -0.434 OA
ATOM      9  O   UNL     1      31.965  -7.468 -19.971  0.00  0.00    -0.226 OA
ATOM     10  N   UNL     1      31.491  -8.299 -22.136  0.00  0.00    -0.221 N 
ATOM     11  C   UNL     1      30.643  -6.297 -22.932  0.00  0.00    +0.221 C 
ATOM     12  C   UNL     1      30.731  -7.777 -23.239  0.00  0.00    +0.148 C 
ATOM     13  C   UNL     1      31.513  -7.365 -21.103  0.00  0.00    +0.409 C 
BRANCH  11  14
ATOM     14  C   UNL     1      31.695  -5.471 -23.660  0.00  0.00    +0.199 C 
BRANCH  14  15
ATOM     15  O   UNL     1      31.968  -4.310 -22.896  0.00  0.00    -0.269 OA
BRANCH  15  16
ATOM     16  P   UNL     1      30.947  -3.057 -23.003  0.00  0.00    +0.473 P 
ATOM     17  O   UNL     1      30.232  -2.933 -24.317  0.00  0.00    -0.227 OA
BRANCH  16  18
ATOM     18  O   UNL     1      31.855  -1.786 -22.587  0.00  0.00    -0.303 OA
ATOM     19  H   UNL     1      32.691  -2.097 -22.204  0.00  0.00    +0.222 HD
ENDBRANCH  16  18
BRANCH  16  20
ATOM     20  O   UNL     1      29.986  -3.263 -21.719  0.00  0.00    -0.303 OA
ATOM     21  H   UNL     1      29.091  -3.485 -22.018  0.00  0.00    +0.222 HD
ENDBRANCH  16  20
ENDBRANCH  15  16
ENDBRANCH  14  15
ENDBRANCH  11  14
ENDBRANCH   2  10
BRANCH   5  23
ATOM     22  N   UNL     1      34.455 -15.427 -20.813  0.00  0.00    -0.234 NA
ATOM     23  C   UNL     1      33.619 -13.551 -22.083  0.00  0.00    +0.021 C 
ATOM     24  C   UNL     1      33.836 -14.242 -23.268  0.00  0.00    +0.004 C 
ATOM     25  C   UNL     1      33.941 -14.180 -20.894  0.00  0.00    +0.100 C 
ATOM     26  C   UNL     1      34.363 -15.528 -23.227  0.00  0.00    +0.029 C 
ATOM     27  C   UNL     1      34.653 -16.071 -21.985  0.00  0.00    +0.146 C 
BRANCH  27  32
ATOM     28  N   UNL     1      35.537 -17.962 -20.724  0.00  0.00    -0.105 NA
ATOM     29  N   UNL     1      35.975 -19.143 -21.183  0.00  0.00    -0.113 N 
ATOM     30  N   UNL     1      35.418 -18.179 -22.974  0.00  0.00    -0.085 NA
ATOM     31  N   UNL     1      35.923 -19.316 -22.511  0.00  0.00    -0.018 NA
ATOM     32  C   UNL     1      35.199 -17.394 -21.883  0.00  0.00    +0.092 C 
ATOM     33  C   UNL     1      36.473 -20.167 -20.301  0.00  0.00    +0.163 C 
ENDBRANCH  27  32
ENDBRANCH   5  23
TORSDOF 8
ENDMDL
MODEL 8
REMARK VINA RESULT:      -9.9     12.882     16.162
REMARK  Name = 11476460
REMARK  8 active torsions:
REMARK  status: ('A' for Active; 'I' for Inactive)
REMARK    1  A    between atoms: C_2  and  N_10
REMARK    2  A    between atoms: C_5  and  C_23
REMARK    3  A    between atoms: C_11  and  C_14
REMARK    4  A    between atoms: C_14  and  O_15
REMARK    5  A    between atoms: O_15  and  P_16
REMARK    6  A    between atoms: P_16  and  O_18
REMARK    7  A    between atoms: P_16  and  O_20
REMARK    8  A    between atoms: C_27  and  C_32
REMARK                            x       y       z     vdW  Elec       q    Type
REMARK                         _______ _______ _______ _____ _____    ______ ____
ROOT
ATOM      1  F   UNL     1      34.416 -11.058 -24.154  0.00  0.00    -0.204 F 
ATOM      2  C   UNL     1      32.046  -9.246 -22.069  0.00  0.00    +0.059 C 
ATOM      3  C   UNL     1      33.031  -9.515 -23.025  0.00  0.00    +0.045 C 
ATOM      4  C   UNL     1      31.505 -10.298 -21.323  0.00  0.00    +0.015 C 
ATOM      5  C   UNL     1      32.926 -11.868 -22.486  0.00  0.00    +0.029 C 
ATOM      6  C   UNL     1      33.470 -10.822 -23.233  0.00  0.00    +0.141 C 
ATOM      7  C   UNL     1      31.944 -11.605 -21.531  0.00  0.00    +0.004 C 
ENDROOT
BRANCH   2  10
ATOM      8  O   UNL     1      31.154  -5.914 -20.902  0.00  0.00    -0.434 OA
ATOM      9  O   UNL     1      32.218  -7.452 -19.619  0.00  0.00    -0.226 OA
ATOM     10  N   UNL     1      31.598  -7.912 -21.856  0.00  0.00    -0.221 N 
ATOM     11  C   UNL     1      30.846  -5.767 -22.295  0.00  0.00    +0.221 C 
ATOM     12  C   UNL     1      30.825  -7.185 -22.826  0.00  0.00    +0.148 C 
ATOM     13  C   UNL     1      31.725  -7.150 -20.697  0.00  0.00    +0.409 C 
BRANCH  11  14
ATOM     14  C   UNL     1      31.915  -4.900 -22.946  0.00  0.00    +0.199 C 
BRANCH  14  15
ATOM     15  O   UNL     1      31.281  -3.957 -23.792  0.00  0.00    -0.269 OA
BRANCH  15  16
ATOM     16  P   UNL     1      30.673  -2.611 -23.129  0.00  0.00    +0.473 P 
ATOM     17  O   UNL     1      29.754  -1.825 -24.018  0.00  0.00    -0.227 OA
BRANCH  16  18
ATOM     18  O   UNL     1      31.980  -1.814 -22.609  0.00  0.00    -0.303 OA
ATOM     19  H   UNL     1      32.769  -2.157 -23.060  0.00  0.00    +0.222 HD
ENDBRANCH  16  18
BRANCH  16  20
ATOM     20  O   UNL     1      30.001  -3.153 -21.761  0.00  0.00    -0.303 OA
ATOM     21  H   UNL     1      29.040  -3.220 -21.878  0.00  0.00    +0.222 HD
ENDBRANCH  16  20
ENDBRANCH  15  16
ENDBRANCH  14  15
ENDBRANCH  11  14
ENDBRANCH   2  10
BRANCH   5  23
ATOM     22  N   UNL     1      34.515 -15.177 -21.840  0.00  0.00    -0.234 NA
ATOM     23  C   UNL     1      33.380 -13.226 -22.698  0.00  0.00    +0.021 C 
ATOM     24  C   UNL     1      33.145 -13.878 -23.901  0.00  0.00    +0.004 C 
ATOM     25  C   UNL     1      34.063 -13.910 -21.708  0.00  0.00    +0.100 C 
ATOM     26  C   UNL     1      33.594 -15.182 -24.075  0.00  0.00    +0.029 C 
ATOM     27  C   UNL     1      34.268 -15.782 -23.024  0.00  0.00    +0.146 C 
BRANCH  27  32
ATOM     28  N   UNL     1      34.276 -18.001 -24.035  0.00  0.00    -0.105 NA
ATOM     29  N   UNL     1      35.049 -19.054 -23.736  0.00  0.00    -0.113 N 
ATOM     30  N   UNL     1      35.754 -17.616 -22.364  0.00  0.00    -0.085 NA
ATOM     31  N   UNL     1      35.941 -18.872 -22.752  0.00  0.00    -0.018 NA
ATOM     32  C   UNL     1      34.755 -17.126 -23.149  0.00  0.00    +0.092 C 
ATOM     33  C   UNL     1      34.931 -20.310 -24.431  0.00  0.00    +0.163 C 
ENDBRANCH  27  32
ENDBRANCH   5  23
TORSDOF 8
ENDMDL
MODEL 9
REMARK VINA RESULT:      -9.7      3.011      4.595
REMARK  Name = 11476460
REMARK  8 active torsions:
REMARK  status: ('A' for Active; 'I' for Inactive)
REMARK    1  A    between atoms: C_2  and  N_10
REMARK    2  A    between atoms: C_5  and  C_23
REMARK    3  A    between atoms: C_11  and  C_14
REMARK    4  A    between atoms: C_14  and  O_15
REMARK    5  A    between atoms: O_15  and  P_16
REMARK    6  A    between atoms: P_16  and  O_18
REMARK    7  A    between atoms: P_16  and  O_20
REMARK    8  A    between atoms: C_27  and  C_32
REMARK                            x       y       z     vdW  Elec       q    Type
REMARK                         _______ _______ _______ _____ _____    ______ ____
ROOT
ATOM      1  F   UNL     1      37.161 -19.898 -20.100  0.00  0.00    -0.204 F 
ATOM      2  C   UNL     1      35.061 -22.032 -18.031  0.00  0.00    +0.059 C 
ATOM      3  C   UNL     1      36.194 -21.416 -18.572  0.00  0.00    +0.045 C 
ATOM      4  C   UNL     1      33.795 -21.698 -18.522  0.00  0.00    +0.015 C 
ATOM      5  C   UNL     1      34.797 -20.146 -20.080  0.00  0.00    +0.029 C 
ATOM      6  C   UNL     1      36.062 -20.476 -19.594  0.00  0.00    +0.141 C 
ATOM      7  C   UNL     1      33.663 -20.758 -19.544  0.00  0.00    +0.004 C 
ENDROOT
BRANCH   2  10
ATOM      8  O   UNL     1      36.031 -24.237 -15.301  0.00  0.00    -0.434 OA
ATOM      9  O   UNL     1      37.402 -22.668 -16.196  0.00  0.00    -0.226 OA
ATOM     10  N   UNL     1      35.196 -22.992 -16.989  0.00  0.00    -0.221 N 
ATOM     11  C   UNL     1      34.632 -24.544 -15.367  0.00  0.00    +0.221 C 
ATOM     12  C   UNL     1      34.185 -23.971 -16.695  0.00  0.00    +0.148 C 
ATOM     13  C   UNL     1      36.309 -23.215 -16.181  0.00  0.00    +0.409 C 
BRANCH  11  14
ATOM     14  C   UNL     1      33.932 -23.908 -14.174  0.00  0.00    +0.199 C 
BRANCH  14  15
ATOM     15  O   UNL     1      32.620 -23.540 -14.561  0.00  0.00    -0.269 OA
BRANCH  15  16
ATOM     16  P   UNL     1      31.368 -24.236 -13.806  0.00  0.00    +0.473 P 
ATOM     17  O   UNL     1      30.104 -24.310 -14.612  0.00  0.00    -0.227 OA
BRANCH  16  18
ATOM     18  O   UNL     1      31.255 -23.418 -12.416  0.00  0.00    -0.303 OA
ATOM     19  H   UNL     1      31.036 -24.032 -11.696  0.00  0.00    +0.222 HD
ENDBRANCH  16  18
BRANCH  16  20
ATOM     20  O   UNL     1      31.971 -25.665 -13.348  0.00  0.00    -0.303 OA
ATOM     21  H   UNL     1      31.248 -26.304 -13.250  0.00  0.00    +0.222 HD
ENDBRANCH  16  20
ENDBRANCH  15  16
ENDBRANCH  14  15
ENDBRANCH  11  14
ENDBRANCH   2  10
BRANCH   5  23
ATOM     22  N   UNL     1      33.867 -18.642 -23.361  0.00  0.00    -0.234 NA
ATOM     23  C   UNL     1      34.655 -19.172 -21.140  0.00  0.00    +0.021 C 
ATOM     24  C   UNL     1      35.144 -17.880 -20.994  0.00  0.00    +0.004 C 
ATOM     25  C   UNL     1      34.031 -19.501 -22.330  0.00  0.00    +0.100 C 
ATOM     26  C   UNL     1      34.994 -16.967 -22.031  0.00  0.00    +0.029 C 
ATOM     27  C   UNL     1      34.354 -17.394 -23.184  0.00  0.00    +0.146 C 
BRANCH  27  32
ATOM     28  N   UNL     1      33.565 -15.311 -24.177  0.00  0.00    -0.105 NA
ATOM     29  N   UNL     1      33.665 -14.900 -25.449  0.00  0.00    -0.113 N 
ATOM     30  N   UNL     1      34.613 -16.781 -25.543  0.00  0.00    -0.085 NA
ATOM     31  N   UNL     1      34.279 -15.740 -26.295  0.00  0.00    -0.018 NA
ATOM     32  C   UNL     1      34.173 -16.493 -24.287  0.00  0.00    +0.092 C 
ATOM     33  C   UNL     1      33.142 -13.631 -25.885  0.00  0.00    +0.163 C 
ENDBRANCH  27  32
ENDBRANCH   5  23
TORSDOF 8
ENDMDL
