MODEL 1
REMARK VINA RESULT:     -12.3      0.000      0.000
REMARK  Name = 107971
REMARK  9 active torsions:
REMARK  status: ('A' for Active; 'I' for Inactive)
REMARK    1  A    between atoms: C_3  and  O_20
REMARK    2  A    between atoms: C_10  and  C_12
REMARK    3  A    between atoms: C_17  and  O_18
REMARK    4  A    between atoms: O_20  and  C_26
REMARK    5  A    between atoms: C_22  and  O_27
REMARK    6  A    between atoms: C_23  and  O_29
REMARK    7  A    between atoms: C_24  and  O_31
REMARK    8  A    between atoms: C_25  and  C_33
REMARK    9  A    between atoms: C_33  and  O_34
REMARK                            x       y       z     vdW  Elec       q    Type
REMARK                         _______ _______ _______ _____ _____    ______ ____
ROOT
ATOM      1  O   UNL     1      32.807 -21.218 -19.718  0.00  0.00    -0.450 OA
ATOM      2  O   UNL     1      36.565 -19.775 -20.382  0.00  0.00    -0.286 OA
ATOM      3  C   UNL     1      34.591 -23.006 -17.093  0.00  0.00    +0.144 C 
ATOM      4  C   UNL     1      33.567 -22.546 -17.920  0.00  0.00    +0.075 C 
ATOM      5  C   UNL     1      35.899 -22.556 -17.280  0.00  0.00    +0.037 C 
ATOM      6  C   UNL     1      33.853 -21.635 -18.936  0.00  0.00    +0.151 C 
ATOM      7  C   UNL     1      35.160 -21.185 -19.124  0.00  0.00    +0.074 C 
ATOM      8  C   UNL     1      36.188 -21.644 -18.296  0.00  0.00    +0.009 C 
ATOM      9  C   UNL     1      35.438 -20.218 -20.203  0.00  0.00    +0.202 C 
ATOM     10  C   UNL     1      34.277 -19.808 -21.040  0.00  0.00    +0.077 C 
ATOM     11  C   UNL     1      33.082 -20.333 -20.733  0.00  0.00    +0.183 C 
ENDROOT
BRANCH  10  12
ATOM     12  C   UNL     1      34.424 -18.879 -22.173  0.00  0.00    +0.006 C 
ATOM     13  C   UNL     1      34.951 -17.601 -21.969  0.00  0.00    +0.003 C 
ATOM     14  C   UNL     1      34.035 -19.272 -23.456  0.00  0.00    +0.003 C 
ATOM     15  C   UNL     1      35.089 -16.722 -23.043  0.00  0.00    +0.037 C 
ATOM     16  C   UNL     1      34.172 -18.392 -24.529  0.00  0.00    +0.037 C 
ATOM     17  C   UNL     1      34.699 -17.117 -24.323  0.00  0.00    +0.134 C 
BRANCH  17  18
ATOM     18  O   UNL     1      34.834 -16.259 -25.370  0.00  0.00    -0.506 OA
ATOM     19  H   UNL     1      34.665 -16.555 -26.243  0.00  0.00    +0.292 HD
ENDBRANCH  17  18
ENDBRANCH  10  12
BRANCH   3  20
ATOM     20  O   UNL     1      34.316 -23.898 -16.099  0.00  0.00    -0.450 OA
BRANCH  20  26
ATOM     21  O   UNL     1      36.239 -24.864 -15.200  0.00  0.00    -0.316 OA
ATOM     22  C   UNL     1      35.302 -24.442 -12.518  0.00  0.00    +0.173 C 
ATOM     23  C   UNL     1      36.487 -25.352 -12.838  0.00  0.00    +0.169 C 
ATOM     24  C   UNL     1      34.397 -24.264 -13.737  0.00  0.00    +0.210 C 
ATOM     25  C   UNL     1      37.182 -24.906 -14.127  0.00  0.00    +0.177 C 
ATOM     26  C   UNL     1      35.206 -23.906 -14.983  0.00  0.00    +0.318 C 
BRANCH  22  27
ATOM     27  O   UNL     1      34.557 -25.043 -11.457  0.00  0.00    -0.379 OA
ATOM     28  H   UNL     1      35.167 -25.477 -10.839  0.00  0.00    +0.211 HD
ENDBRANCH  22  27
BRANCH  23  29
ATOM     29  O   UNL     1      37.420 -25.308 -11.761  0.00  0.00    -0.379 OA
ATOM     30  H   UNL     1      38.303 -25.540 -12.088  0.00  0.00    +0.211 HD
ENDBRANCH  23  29
BRANCH  24  31
ATOM     31  O   UNL     1      33.470 -23.207 -13.488  0.00  0.00    -0.377 OA
ATOM     32  H   UNL     1      32.604 -23.443 -13.855  0.00  0.00    +0.211 HD
ENDBRANCH  24  31
BRANCH  25  33
ATOM     33  C   UNL     1      38.296 -25.867 -14.530  0.00  0.00    +0.169 C 
BRANCH  33  34
ATOM     34  O   UNL     1      37.921 -27.178 -14.146  0.00  0.00    -0.379 OA
ATOM     35  H   UNL     1      37.538 -27.155 -13.255  0.00  0.00    +0.211 HD
ENDBRANCH  33  34
ENDBRANCH  25  33
ENDBRANCH  20  26
ENDBRANCH   3  20
TORSDOF 9
ENDMDL
MODEL 2
REMARK VINA RESULT:     -12.1      1.122      2.081
REMARK  Name = 107971
REMARK  9 active torsions:
REMARK  status: ('A' for Active; 'I' for Inactive)
REMARK    1  A    between atoms: C_3  and  O_20
REMARK    2  A    between atoms: C_10  and  C_12
REMARK    3  A    between atoms: C_17  and  O_18
REMARK    4  A    between atoms: O_20  and  C_26
REMARK    5  A    between atoms: C_22  and  O_27
REMARK    6  A    between atoms: C_23  and  O_29
REMARK    7  A    between atoms: C_24  and  O_31
REMARK    8  A    between atoms: C_25  and  C_33
REMARK    9  A    between atoms: C_33  and  O_34
REMARK                            x       y       z     vdW  Elec       q    Type
REMARK                         _______ _______ _______ _____ _____    ______ ____
ROOT
ATOM      1  O   UNL     1      36.152 -21.701 -18.480  0.00  0.00    -0.450 OA
ATOM      2  O   UNL     1      32.507 -20.673 -19.995  0.00  0.00    -0.286 OA
ATOM      3  C   UNL     1      34.023 -23.610 -16.222  0.00  0.00    +0.144 C 
ATOM      4  C   UNL     1      35.153 -23.069 -16.835  0.00  0.00    +0.075 C 
ATOM      5  C   UNL     1      32.749 -23.284 -16.691  0.00  0.00    +0.037 C 
ATOM      6  C   UNL     1      35.006 -22.202 -17.918  0.00  0.00    +0.151 C 
ATOM      7  C   UNL     1      33.734 -21.876 -18.386  0.00  0.00    +0.074 C 
ATOM      8  C   UNL     1      32.600 -22.417 -17.773  0.00  0.00    +0.009 C 
ATOM      9  C   UNL     1      33.604 -20.960 -19.534  0.00  0.00    +0.202 C 
ATOM     10  C   UNL     1      34.872 -20.425 -20.101  0.00  0.00    +0.077 C 
ATOM     11  C   UNL     1      36.018 -20.833 -19.536  0.00  0.00    +0.183 C 
ENDROOT
BRANCH  10  12
ATOM     12  C   UNL     1      34.883 -19.473 -21.224  0.00  0.00    +0.006 C 
ATOM     13  C   UNL     1      34.510 -19.892 -22.503  0.00  0.00    +0.003 C 
ATOM     14  C   UNL     1      35.266 -18.146 -21.013  0.00  0.00    +0.003 C 
ATOM     15  C   UNL     1      34.521 -18.988 -23.566  0.00  0.00    +0.037 C 
ATOM     16  C   UNL     1      35.277 -17.243 -22.076  0.00  0.00    +0.037 C 
ATOM     17  C   UNL     1      34.904 -17.664 -23.353  0.00  0.00    +0.134 C 
BRANCH  17  18
ATOM     18  O   UNL     1      34.915 -16.783 -24.390  0.00  0.00    -0.506 OA
ATOM     19  H   UNL     1      35.506 -16.056 -24.380  0.00  0.00    +0.292 HD
ENDBRANCH  17  18
ENDBRANCH  10  12
BRANCH   3  20
ATOM     20  O   UNL     1      34.162 -24.456 -15.163  0.00  0.00    -0.450 OA
BRANCH  20  26
ATOM     21  O   UNL     1      36.326 -24.747 -14.344  0.00  0.00    -0.316 OA
ATOM     22  C   UNL     1      35.479 -24.179 -11.659  0.00  0.00    +0.173 C 
ATOM     23  C   UNL     1      36.844 -24.791 -11.976  0.00  0.00    +0.169 C 
ATOM     24  C   UNL     1      34.485 -24.427 -12.793  0.00  0.00    +0.210 C 
ATOM     25  C   UNL     1      37.311 -24.381 -13.375  0.00  0.00    +0.177 C 
ATOM     26  C   UNL     1      35.090 -24.066 -14.150  0.00  0.00    +0.318 C 
BRANCH  22  27
ATOM     27  O   UNL     1      34.992 -24.784 -10.460  0.00  0.00    -0.379 OA
ATOM     28  H   UNL     1      34.400 -24.166 -10.003  0.00  0.00    +0.211 HD
ENDBRANCH  22  27
BRANCH  23  29
ATOM     29  O   UNL     1      37.795 -24.345 -11.012  0.00  0.00    -0.379 OA
ATOM     30  H   UNL     1      37.438 -23.581 -10.535  0.00  0.00    +0.211 HD
ENDBRANCH  23  29
BRANCH  24  31
ATOM     31  O   UNL     1      33.326 -23.620 -12.591  0.00  0.00    -0.377 OA
ATOM     32  H   UNL     1      32.530 -24.148 -12.761  0.00  0.00    +0.211 HD
ENDBRANCH  24  31
BRANCH  25  33
ATOM     33  C   UNL     1      38.615 -25.072 -13.760  0.00  0.00    +0.169 C 
BRANCH  33  34
ATOM     34  O   UNL     1      38.767 -26.228 -12.955  0.00  0.00    -0.379 OA
ATOM     35  H   UNL     1      39.320 -26.874 -13.420  0.00  0.00    +0.211 HD
ENDBRANCH  33  34
ENDBRANCH  25  33
ENDBRANCH  20  26
ENDBRANCH   3  20
TORSDOF 9
ENDMDL
MODEL 3
REMARK VINA RESULT:     -11.5      1.295      3.084
REMARK  Name = 107971
REMARK  9 active torsions:
REMARK  status: ('A' for Active; 'I' for Inactive)
REMARK    1  A    between atoms: C_3  and  O_20
REMARK    2  A    between atoms: C_10  and  C_12
REMARK    3  A    between atoms: C_17  and  O_18
REMARK    4  A    between atoms: O_20  and  C_26
REMARK    5  A    between atoms: C_22  and  O_27
REMARK    6  A    between atoms: C_23  and  O_29
REMARK    7  A    between atoms: C_24  and  O_31
REMARK    8  A    between atoms: C_25  and  C_33
REMARK    9  A    between atoms: C_33  and  O_34
REMARK                            x       y       z     vdW  Elec       q    Type
REMARK                         _______ _______ _______ _____ _____    ______ ____
ROOT
ATOM      1  O   UNL     1      36.925 -19.806 -19.955  0.00  0.00    -0.450 OA
ATOM      2  O   UNL     1      33.083 -20.075 -21.303  0.00  0.00    -0.286 OA
ATOM      3  C   UNL     1      35.639 -22.244 -17.572  0.00  0.00    +0.144 C 
ATOM      4  C   UNL     1      36.501 -21.380 -18.246  0.00  0.00    +0.075 C 
ATOM      5  C   UNL     1      34.311 -22.368 -17.981  0.00  0.00    +0.037 C 
ATOM      6  C   UNL     1      36.032 -20.639 -19.331  0.00  0.00    +0.151 C 
ATOM      7  C   UNL     1      34.705 -20.763 -19.741  0.00  0.00    +0.074 C 
ATOM      8  C   UNL     1      33.839 -21.629 -19.067  0.00  0.00    +0.009 C 
ATOM      9  C   UNL     1      34.232 -19.974 -20.893  0.00  0.00    +0.202 C 
ATOM     10  C   UNL     1      35.228 -19.068 -21.528  0.00  0.00    +0.077 C 
ATOM     11  C   UNL     1      36.467 -19.061 -21.014  0.00  0.00    +0.183 C 
ENDROOT
BRANCH  10  12
ATOM     12  C   UNL     1      34.878 -18.196 -22.662  0.00  0.00    +0.006 C 
ATOM     13  C   UNL     1      35.215 -16.841 -22.635  0.00  0.00    +0.003 C 
ATOM     14  C   UNL     1      34.207 -18.723 -23.768  0.00  0.00    +0.003 C 
ATOM     15  C   UNL     1      34.882 -16.017 -23.710  0.00  0.00    +0.037 C 
ATOM     16  C   UNL     1      33.873 -17.898 -24.842  0.00  0.00    +0.037 C 
ATOM     17  C   UNL     1      34.211 -16.544 -24.813  0.00  0.00    +0.134 C 
BRANCH  17  18
ATOM     18  O   UNL     1      33.886 -15.739 -25.861  0.00  0.00    -0.506 OA
ATOM     19  H   UNL     1      33.307 -15.014 -25.732  0.00  0.00    +0.292 HD
ENDBRANCH  17  18
ENDBRANCH  10  12
BRANCH   3  20
ATOM     20  O   UNL     1      36.093 -22.968 -16.510  0.00  0.00    -0.450 OA
BRANCH  20  26
ATOM     21  O   UNL     1      34.052 -22.957 -15.381  0.00  0.00    -0.316 OA
ATOM     22  C   UNL     1      34.835 -25.199 -13.766  0.00  0.00    +0.173 C 
ATOM     23  C   UNL     1      33.613 -24.340 -13.439  0.00  0.00    +0.169 C 
ATOM     24  C   UNL     1      35.829 -24.436 -14.640  0.00  0.00    +0.210 C 
ATOM     25  C   UNL     1      33.038 -23.707 -14.709  0.00  0.00    +0.177 C 
ATOM     26  C   UNL     1      35.131 -23.773 -15.827  0.00  0.00    +0.318 C 
BRANCH  22  27
ATOM     27  O   UNL     1      35.463 -25.560 -12.534  0.00  0.00    -0.379 OA
ATOM     28  H   UNL     1      36.187 -24.941 -12.347  0.00  0.00    +0.211 HD
ENDBRANCH  22  27
BRANCH  23  29
ATOM     29  O   UNL     1      32.616 -25.153 -12.825  0.00  0.00    -0.379 OA
ATOM     30  H   UNL     1      32.383 -24.781 -11.960  0.00  0.00    +0.211 HD
ENDBRANCH  23  29
BRANCH  24  31
ATOM     31  O   UNL     1      36.808 -25.343 -15.146  0.00  0.00    -0.377 OA
ATOM     32  H   UNL     1      37.123 -25.913 -14.427  0.00  0.00    +0.211 HD
ENDBRANCH  24  31
BRANCH  25  33
ATOM     33  C   UNL     1      31.890 -22.754 -14.395  0.00  0.00    +0.169 C 
BRANCH  33  34
ATOM     34  O   UNL     1      31.931 -22.439 -13.015  0.00  0.00    -0.379 OA
ATOM     35  H   UNL     1      32.623 -22.965 -12.584  0.00  0.00    +0.211 HD
ENDBRANCH  33  34
ENDBRANCH  25  33
ENDBRANCH  20  26
ENDBRANCH   3  20
TORSDOF 9
ENDMDL
MODEL 4
REMARK VINA RESULT:     -11.3      1.561      2.451
REMARK  Name = 107971
REMARK  9 active torsions:
REMARK  status: ('A' for Active; 'I' for Inactive)
REMARK    1  A    between atoms: C_3  and  O_20
REMARK    2  A    between atoms: C_10  and  C_12
REMARK    3  A    between atoms: C_17  and  O_18
REMARK    4  A    between atoms: O_20  and  C_26
REMARK    5  A    between atoms: C_22  and  O_27
REMARK    6  A    between atoms: C_23  and  O_29
REMARK    7  A    between atoms: C_24  and  O_31
REMARK    8  A    between atoms: C_25  and  C_33
REMARK    9  A    between atoms: C_33  and  O_34
REMARK                            x       y       z     vdW  Elec       q    Type
REMARK                         _______ _______ _______ _____ _____    ______ ____
ROOT
ATOM      1  O   UNL     1      36.460 -20.645 -19.630  0.00  0.00    -0.450 OA
ATOM      2  O   UNL     1      32.641 -20.003 -20.914  0.00  0.00    -0.286 OA
ATOM      3  C   UNL     1      34.710 -22.976 -17.445  0.00  0.00    +0.144 C 
ATOM      4  C   UNL     1      35.729 -22.248 -18.058  0.00  0.00    +0.075 C 
ATOM      5  C   UNL     1      33.383 -22.790 -17.835  0.00  0.00    +0.037 C 
ATOM      6  C   UNL     1      35.418 -21.332 -19.063  0.00  0.00    +0.151 C 
ATOM      7  C   UNL     1      34.092 -21.145 -19.454  0.00  0.00    +0.074 C 
ATOM      8  C   UNL     1      33.069 -21.874 -18.840  0.00  0.00    +0.009 C 
ATOM      9  C   UNL     1      33.788 -20.175 -20.521  0.00  0.00    +0.202 C 
ATOM     10  C   UNL     1      34.946 -19.437 -21.095  0.00  0.00    +0.077 C 
ATOM     11  C   UNL     1      36.162 -19.729 -20.609  0.00  0.00    +0.183 C 
ENDROOT
BRANCH  10  12
ATOM     12  C   UNL     1      34.778 -18.413 -22.139  0.00  0.00    +0.006 C 
ATOM     13  C   UNL     1      34.319 -18.774 -23.408  0.00  0.00    +0.003 C 
ATOM     14  C   UNL     1      35.076 -17.076 -21.864  0.00  0.00    +0.003 C 
ATOM     15  C   UNL     1      34.160 -17.803 -24.397  0.00  0.00    +0.037 C 
ATOM     16  C   UNL     1      34.918 -16.106 -22.854  0.00  0.00    +0.037 C 
ATOM     17  C   UNL     1      34.460 -16.469 -24.120  0.00  0.00    +0.134 C 
BRANCH  17  18
ATOM     18  O   UNL     1      34.304 -15.522 -25.086  0.00  0.00    -0.506 OA
ATOM     19  H   UNL     1      34.122 -14.635 -24.845  0.00  0.00    +0.292 HD
ENDBRANCH  17  18
ENDBRANCH  10  12
BRANCH   3  20
ATOM     20  O   UNL     1      35.010 -23.871 -16.461  0.00  0.00    -0.450 OA
BRANCH  20  26
ATOM     21  O   UNL     1      35.982 -23.599 -14.358  0.00  0.00    -0.316 OA
ATOM     22  C   UNL     1      33.460 -24.004 -13.044  0.00  0.00    +0.173 C 
ATOM     23  C   UNL     1      34.789 -24.026 -12.290  0.00  0.00    +0.169 C 
ATOM     24  C   UNL     1      33.662 -24.297 -14.531  0.00  0.00    +0.210 C 
ATOM     25  C   UNL     1      35.833 -23.163 -13.005  0.00  0.00    +0.177 C 
ATOM     26  C   UNL     1      34.786 -23.442 -15.117  0.00  0.00    +0.318 C 
BRANCH  22  27
ATOM     27  O   UNL     1      32.613 -25.004 -12.475  0.00  0.00    -0.379 OA
ATOM     28  H   UNL     1      32.800 -25.861 -12.889  0.00  0.00    +0.211 HD
ENDBRANCH  22  27
BRANCH  23  29
ATOM     29  O   UNL     1      34.590 -23.527 -10.970  0.00  0.00    -0.379 OA
ATOM     30  H   UNL     1      33.657 -23.624 -10.725  0.00  0.00    +0.211 HD
ENDBRANCH  23  29
BRANCH  24  31
ATOM     31  O   UNL     1      32.459 -24.001 -15.240  0.00  0.00    -0.377 OA
ATOM     32  H   UNL     1      32.645 -23.349 -15.933  0.00  0.00    +0.211 HD
ENDBRANCH  24  31
BRANCH  25  33
ATOM     33  C   UNL     1      37.200 -23.260 -12.336  0.00  0.00    +0.169 C 
BRANCH  33  34
ATOM     34  O   UNL     1      37.204 -22.422 -11.195  0.00  0.00    -0.379 OA
ATOM     35  H   UNL     1      36.357 -22.508 -10.729  0.00  0.00    +0.211 HD
ENDBRANCH  33  34
ENDBRANCH  25  33
ENDBRANCH  20  26
ENDBRANCH   3  20
TORSDOF 9
ENDMDL
MODEL 5
REMARK VINA RESULT:     -10.6      2.173     10.476
REMARK  Name = 107971
REMARK  9 active torsions:
REMARK  status: ('A' for Active; 'I' for Inactive)
REMARK    1  A    between atoms: C_3  and  O_20
REMARK    2  A    between atoms: C_10  and  C_12
REMARK    3  A    between atoms: C_17  and  O_18
REMARK    4  A    between atoms: O_20  and  C_26
REMARK    5  A    between atoms: C_22  and  O_27
REMARK    6  A    between atoms: C_23  and  O_29
REMARK    7  A    between atoms: C_24  and  O_31
REMARK    8  A    between atoms: C_25  and  C_33
REMARK    9  A    between atoms: C_33  and  O_34
REMARK                            x       y       z     vdW  Elec       q    Type
REMARK                         _______ _______ _______ _____ _____    ______ ____
ROOT
ATOM      1  O   UNL     1      33.386 -20.852 -20.289  0.00  0.00    -0.450 OA
ATOM      2  O   UNL     1      37.075 -20.934 -18.548  0.00  0.00    -0.286 OA
ATOM      3  C   UNL     1      35.163 -18.648 -22.582  0.00  0.00    +0.144 C 
ATOM      4  C   UNL     1      34.150 -19.399 -21.986  0.00  0.00    +0.075 C 
ATOM      5  C   UNL     1      36.442 -18.629 -22.024  0.00  0.00    +0.037 C 
ATOM      6  C   UNL     1      34.419 -20.132 -20.830  0.00  0.00    +0.151 C 
ATOM      7  C   UNL     1      35.698 -20.114 -20.272  0.00  0.00    +0.074 C 
ATOM      8  C   UNL     1      36.714 -19.362 -20.868  0.00  0.00    +0.009 C 
ATOM      9  C   UNL     1      35.960 -20.899 -19.052  0.00  0.00    +0.202 C 
ATOM     10  C   UNL     1      34.805 -21.650 -18.487  0.00  0.00    +0.077 C 
ATOM     11  C   UNL     1      33.637 -21.564 -19.141  0.00  0.00    +0.183 C 
ENDROOT
BRANCH  10  12
ATOM     12  C   UNL     1      34.920 -22.443 -17.252  0.00  0.00    +0.006 C 
ATOM     13  C   UNL     1      36.130 -22.483 -16.555  0.00  0.00    +0.003 C 
ATOM     14  C   UNL     1      33.820 -23.157 -16.773  0.00  0.00    +0.003 C 
ATOM     15  C   UNL     1      36.239 -23.235 -15.385  0.00  0.00    +0.037 C 
ATOM     16  C   UNL     1      33.929 -23.909 -15.603  0.00  0.00    +0.037 C 
ATOM     17  C   UNL     1      35.138 -23.948 -14.909  0.00  0.00    +0.134 C 
BRANCH  17  18
ATOM     18  O   UNL     1      35.245 -24.682 -13.767  0.00  0.00    -0.506 OA
ATOM     19  H   UNL     1      35.098 -24.276 -12.935  0.00  0.00    +0.292 HD
ENDBRANCH  17  18
ENDBRANCH  10  12
BRANCH   3  20
ATOM     20  O   UNL     1      34.903 -17.929 -23.711  0.00  0.00    -0.450 OA
BRANCH  20  26
ATOM     21  O   UNL     1      34.483 -16.162 -22.247  0.00  0.00    -0.316 OA
ATOM     22  C   UNL     1      33.682 -14.448 -24.408  0.00  0.00    +0.173 C 
ATOM     23  C   UNL     1      33.417 -14.099 -22.943  0.00  0.00    +0.169 C 
ATOM     24  C   UNL     1      33.883 -15.952 -24.590  0.00  0.00    +0.210 C 
ATOM     25  C   UNL     1      34.461 -14.750 -22.032  0.00  0.00    +0.177 C 
ATOM     26  C   UNL     1      34.878 -16.508 -23.571  0.00  0.00    +0.318 C 
BRANCH  22  27
ATOM     27  O   UNL     1      32.555 -14.023 -25.175  0.00  0.00    -0.379 OA
ATOM     28  H   UNL     1      31.888 -13.638 -24.584  0.00  0.00    +0.211 HD
ENDBRANCH  22  27
BRANCH  23  29
ATOM     29  O   UNL     1      33.465 -12.684 -22.780  0.00  0.00    -0.379 OA
ATOM     30  H   UNL     1      34.170 -12.455 -22.155  0.00  0.00    +0.211 HD
ENDBRANCH  23  29
BRANCH  24  31
ATOM     31  O   UNL     1      34.394 -16.207 -25.899  0.00  0.00    -0.377 OA
ATOM     32  H   UNL     1      34.112 -15.499 -26.499  0.00  0.00    +0.211 HD
ENDBRANCH  24  31
BRANCH  25  33
ATOM     33  C   UNL     1      34.150 -14.512 -20.558  0.00  0.00    +0.169 C 
BRANCH  33  34
ATOM     34  O   UNL     1      32.836 -13.995 -20.453  0.00  0.00    -0.379 OA
ATOM     35  H   UNL     1      32.251 -14.674 -20.082  0.00  0.00    +0.211 HD
ENDBRANCH  33  34
ENDBRANCH  25  33
ENDBRANCH  20  26
ENDBRANCH   3  20
TORSDOF 9
ENDMDL
MODEL 6
REMARK VINA RESULT:     -10.5      1.254      2.252
REMARK  Name = 107971
REMARK  9 active torsions:
REMARK  status: ('A' for Active; 'I' for Inactive)
REMARK    1  A    between atoms: C_3  and  O_20
REMARK    2  A    between atoms: C_10  and  C_12
REMARK    3  A    between atoms: C_17  and  O_18
REMARK    4  A    between atoms: O_20  and  C_26
REMARK    5  A    between atoms: C_22  and  O_27
REMARK    6  A    between atoms: C_23  and  O_29
REMARK    7  A    between atoms: C_24  and  O_31
REMARK    8  A    between atoms: C_25  and  C_33
REMARK    9  A    between atoms: C_33  and  O_34
REMARK                            x       y       z     vdW  Elec       q    Type
REMARK                         _______ _______ _______ _____ _____    ______ ____
ROOT
ATOM      1  O   UNL     1      35.837 -21.419 -19.268  0.00  0.00    -0.450 OA
ATOM      2  O   UNL     1      32.202 -20.169 -20.636  0.00  0.00    -0.286 OA
ATOM      3  C   UNL     1      33.690 -23.159 -16.894  0.00  0.00    +0.144 C 
ATOM      4  C   UNL     1      34.824 -22.701 -17.562  0.00  0.00    +0.075 C 
ATOM      5  C   UNL     1      32.421 -22.756 -17.310  0.00  0.00    +0.037 C 
ATOM      6  C   UNL     1      34.687 -21.837 -18.649  0.00  0.00    +0.151 C 
ATOM      7  C   UNL     1      33.418 -21.434 -19.066  0.00  0.00    +0.074 C 
ATOM      8  C   UNL     1      32.280 -21.892 -18.397  0.00  0.00    +0.009 C 
ATOM      9  C   UNL     1      33.297 -20.524 -20.219  0.00  0.00    +0.202 C 
ATOM     10  C   UNL     1      34.571 -20.079 -20.849  0.00  0.00    +0.077 C 
ATOM     11  C   UNL     1      35.712 -20.555 -20.329  0.00  0.00    +0.183 C 
ENDROOT
BRANCH  10  12
ATOM     12  C   UNL     1      34.594 -19.141 -21.984  0.00  0.00    +0.006 C 
ATOM     13  C   UNL     1      34.028 -19.506 -23.207  0.00  0.00    +0.003 C 
ATOM     14  C   UNL     1      35.182 -17.882 -21.840  0.00  0.00    +0.003 C 
ATOM     15  C   UNL     1      34.050 -18.617 -24.281  0.00  0.00    +0.037 C 
ATOM     16  C   UNL     1      35.204 -16.993 -22.915  0.00  0.00    +0.037 C 
ATOM     17  C   UNL     1      34.638 -17.360 -24.136  0.00  0.00    +0.134 C 
BRANCH  17  18
ATOM     18  O   UNL     1      34.660 -16.493 -25.184  0.00  0.00    -0.506 OA
ATOM     19  H   UNL     1      35.345 -16.547 -25.821  0.00  0.00    +0.292 HD
ENDBRANCH  17  18
ENDBRANCH  10  12
BRANCH   3  20
ATOM     20  O   UNL     1      33.821 -24.002 -15.830  0.00  0.00    -0.450 OA
BRANCH  20  26
ATOM     21  O   UNL     1      36.114 -23.694 -15.537  0.00  0.00    -0.316 OA
ATOM     22  C   UNL     1      35.969 -24.562 -12.803  0.00  0.00    +0.173 C 
ATOM     23  C   UNL     1      37.297 -24.414 -13.546  0.00  0.00    +0.169 C 
ATOM     24  C   UNL     1      34.806 -24.738 -13.778  0.00  0.00    +0.210 C 
ATOM     25  C   UNL     1      37.185 -23.360 -14.652  0.00  0.00    +0.177 C 
ATOM     26  C   UNL     1      34.846 -23.686 -14.887  0.00  0.00    +0.318 C 
BRANCH  22  27
ATOM     27  O   UNL     1      36.061 -25.711 -11.960  0.00  0.00    -0.379 OA
ATOM     28  H   UNL     1      35.932 -26.513 -12.491  0.00  0.00    +0.211 HD
ENDBRANCH  22  27
BRANCH  23  29
ATOM     29  O   UNL     1      38.312 -24.024 -12.625  0.00  0.00    -0.379 OA
ATOM     30  H   UNL     1      38.638 -24.807 -12.154  0.00  0.00    +0.211 HD
ENDBRANCH  23  29
BRANCH  24  31
ATOM     31  O   UNL     1      33.572 -24.597 -13.074  0.00  0.00    -0.377 OA
ATOM     32  H   UNL     1      33.311 -25.456 -12.706  0.00  0.00    +0.211 HD
ENDBRANCH  24  31
BRANCH  25  33
ATOM     33  C   UNL     1      38.462 -23.277 -15.483  0.00  0.00    +0.169 C 
BRANCH  33  34
ATOM     34  O   UNL     1      38.314 -22.237 -16.432  0.00  0.00    -0.379 OA
ATOM     35  H   UNL     1      39.163 -21.784 -16.549  0.00  0.00    +0.211 HD
ENDBRANCH  33  34
ENDBRANCH  25  33
ENDBRANCH  20  26
ENDBRANCH   3  20
TORSDOF 9
ENDMDL
MODEL 7
REMARK VINA RESULT:     -10.3      1.733     10.261
REMARK  Name = 107971
REMARK  9 active torsions:
REMARK  status: ('A' for Active; 'I' for Inactive)
REMARK    1  A    between atoms: C_3  and  O_20
REMARK    2  A    between atoms: C_10  and  C_12
REMARK    3  A    between atoms: C_17  and  O_18
REMARK    4  A    between atoms: O_20  and  C_26
REMARK    5  A    between atoms: C_22  and  O_27
REMARK    6  A    between atoms: C_23  and  O_29
REMARK    7  A    between atoms: C_24  and  O_31
REMARK    8  A    between atoms: C_25  and  C_33
REMARK    9  A    between atoms: C_33  and  O_34
REMARK                            x       y       z     vdW  Elec       q    Type
REMARK                         _______ _______ _______ _____ _____    ______ ____
ROOT
ATOM      1  O   UNL     1      33.412 -22.783 -17.396  0.00  0.00    -0.450 OA
ATOM      2  O   UNL     1      37.371 -22.506 -16.448  0.00  0.00    -0.286 OA
ATOM      3  C   UNL     1      34.540 -20.738 -20.192  0.00  0.00    +0.144 C 
ATOM      4  C   UNL     1      33.721 -21.474 -19.337  0.00  0.00    +0.075 C 
ATOM      5  C   UNL     1      35.900 -20.599 -19.912  0.00  0.00    +0.037 C 
ATOM      6  C   UNL     1      34.265 -22.072 -18.200  0.00  0.00    +0.151 C 
ATOM      7  C   UNL     1      35.625 -21.934 -17.920  0.00  0.00    +0.074 C 
ATOM      8  C   UNL     1      36.447 -21.196 -18.775  0.00  0.00    +0.009 C 
ATOM      9  C   UNL     1      36.178 -22.578 -16.714  0.00  0.00    +0.202 C 
ATOM     10  C   UNL     1      35.214 -23.324 -15.860  0.00  0.00    +0.077 C 
ATOM     11  C   UNL     1      33.936 -23.362 -16.265  0.00  0.00    +0.183 C 
ENDROOT
BRANCH  10  12
ATOM     12  C   UNL     1      35.628 -23.981 -14.609  0.00  0.00    +0.006 C 
ATOM     13  C   UNL     1      36.049 -25.313 -14.622  0.00  0.00    +0.003 C 
ATOM     14  C   UNL     1      35.601 -23.274 -13.404  0.00  0.00    +0.003 C 
ATOM     15  C   UNL     1      36.441 -25.934 -13.437  0.00  0.00    +0.037 C 
ATOM     16  C   UNL     1      35.992 -23.896 -12.219  0.00  0.00    +0.037 C 
ATOM     17  C   UNL     1      36.412 -25.226 -12.235  0.00  0.00    +0.134 C 
BRANCH  17  18
ATOM     18  O   UNL     1      36.794 -25.833 -11.078  0.00  0.00    -0.506 OA
ATOM     19  H   UNL     1      37.408 -25.412 -10.509  0.00  0.00    +0.292 HD
ENDBRANCH  17  18
ENDBRANCH  10  12
BRANCH   3  20
ATOM     20  O   UNL     1      34.012 -20.151 -21.303  0.00  0.00    -0.450 OA
BRANCH  20  26
ATOM     21  O   UNL     1      34.339 -17.848 -21.116  0.00  0.00    -0.316 OA
ATOM     22  C   UNL     1      34.956 -17.622 -23.912  0.00  0.00    +0.173 C 
ATOM     23  C   UNL     1      34.663 -16.404 -23.036  0.00  0.00    +0.169 C 
ATOM     24  C   UNL     1      34.361 -18.893 -23.308  0.00  0.00    +0.210 C 
ATOM     25  C   UNL     1      35.029 -16.685 -21.576  0.00  0.00    +0.177 C 
ATOM     26  C   UNL     1      34.716 -19.025 -21.827  0.00  0.00    +0.318 C 
BRANCH  22  27
ATOM     27  O   UNL     1      34.377 -17.391 -25.197  0.00  0.00    -0.379 OA
ATOM     28  H   UNL     1      34.952 -16.801 -25.710  0.00  0.00    +0.211 HD
ENDBRANCH  22  27
BRANCH  23  29
ATOM     29  O   UNL     1      35.422 -15.292 -23.505  0.00  0.00    -0.379 OA
ATOM     30  H   UNL     1      34.985 -14.468 -23.241  0.00  0.00    +0.211 HD
ENDBRANCH  23  29
BRANCH  24  31
ATOM     31  O   UNL     1      34.880 -20.032 -23.994  0.00  0.00    -0.377 OA
ATOM     32  H   UNL     1      35.398 -19.739 -24.760  0.00  0.00    +0.211 HD
ENDBRANCH  24  31
BRANCH  25  33
ATOM     33  C   UNL     1      34.638 -15.526 -20.663  0.00  0.00    +0.169 C 
BRANCH  33  34
ATOM     34  O   UNL     1      33.840 -14.620 -21.403  0.00  0.00    -0.379 OA
ATOM     35  H   UNL     1      32.931 -14.640 -21.066  0.00  0.00    +0.211 HD
ENDBRANCH  33  34
ENDBRANCH  25  33
ENDBRANCH  20  26
ENDBRANCH   3  20
TORSDOF 9
ENDMDL
MODEL 8
REMARK VINA RESULT:     -10.2      1.416      3.060
REMARK  Name = 107971
REMARK  9 active torsions:
REMARK  status: ('A' for Active; 'I' for Inactive)
REMARK    1  A    between atoms: C_3  and  O_20
REMARK    2  A    between atoms: C_10  and  C_12
REMARK    3  A    between atoms: C_17  and  O_18
REMARK    4  A    between atoms: O_20  and  C_26
REMARK    5  A    between atoms: C_22  and  O_27
REMARK    6  A    between atoms: C_23  and  O_29
REMARK    7  A    between atoms: C_24  and  O_31
REMARK    8  A    between atoms: C_25  and  C_33
REMARK    9  A    between atoms: C_33  and  O_34
REMARK                            x       y       z     vdW  Elec       q    Type
REMARK                         _______ _______ _______ _____ _____    ______ ____
ROOT
ATOM      1  O   UNL     1      37.570 -19.500 -19.156  0.00  0.00    -0.450 OA
ATOM      2  O   UNL     1      34.032 -21.022 -20.499  0.00  0.00    -0.286 OA
ATOM      3  C   UNL     1      36.957 -21.953 -16.533  0.00  0.00    +0.144 C 
ATOM      4  C   UNL     1      37.556 -20.947 -17.290  0.00  0.00    +0.075 C 
ATOM      5  C   UNL     1      35.740 -22.503 -16.938  0.00  0.00    +0.037 C 
ATOM      6  C   UNL     1      36.935 -20.491 -18.453  0.00  0.00    +0.151 C 
ATOM      7  C   UNL     1      35.719 -21.041 -18.858  0.00  0.00    +0.074 C 
ATOM      8  C   UNL     1      35.117 -22.049 -18.101  0.00  0.00    +0.009 C 
ATOM      9  C   UNL     1      35.084 -20.546 -20.093  0.00  0.00    +0.202 C 
ATOM     10  C   UNL     1      35.797 -19.457 -20.815  0.00  0.00    +0.077 C 
ATOM     11  C   UNL     1      36.958 -19.033 -20.295  0.00  0.00    +0.183 C 
ENDROOT
BRANCH  10  12
ATOM     12  C   UNL     1      35.253 -18.847 -22.039  0.00  0.00    +0.006 C 
ATOM     13  C   UNL     1      34.701 -19.652 -23.039  0.00  0.00    +0.003 C 
ATOM     14  C   UNL     1      35.287 -17.460 -22.206  0.00  0.00    +0.003 C 
ATOM     15  C   UNL     1      34.186 -19.074 -24.198  0.00  0.00    +0.037 C 
ATOM     16  C   UNL     1      34.772 -16.882 -23.366  0.00  0.00    +0.037 C 
ATOM     17  C   UNL     1      34.222 -17.689 -24.363  0.00  0.00    +0.134 C 
BRANCH  17  18
ATOM     18  O   UNL     1      33.719 -17.125 -25.495  0.00  0.00    -0.506 OA
ATOM     19  H   UNL     1      33.356 -17.668 -26.166  0.00  0.00    +0.292 HD
ENDBRANCH  17  18
ENDBRANCH  10  12
BRANCH   3  20
ATOM     20  O   UNL     1      37.560 -22.399 -15.395  0.00  0.00    -0.450 OA
BRANCH  20  26
ATOM     21  O   UNL     1      36.173 -23.627 -13.977  0.00  0.00    -0.316 OA
ATOM     22  C   UNL     1      38.128 -25.718 -13.734  0.00  0.00    +0.173 C 
ATOM     23  C   UNL     1      36.914 -25.619 -12.810  0.00  0.00    +0.169 C 
ATOM     24  C   UNL     1      38.454 -24.364 -14.365  0.00  0.00    +0.210 C 
ATOM     25  C   UNL     1      35.753 -24.912 -13.513  0.00  0.00    +0.177 C 
ATOM     26  C   UNL     1      37.205 -23.711 -14.957  0.00  0.00    +0.318 C 
BRANCH  22  27
ATOM     27  O   UNL     1      39.241 -26.160 -12.956  0.00  0.00    -0.379 OA
ATOM     28  H   UNL     1      40.016 -25.613 -13.160  0.00  0.00    +0.211 HD
ENDBRANCH  22  27
BRANCH  23  29
ATOM     29  O   UNL     1      36.505 -26.930 -12.427  0.00  0.00    -0.379 OA
ATOM     30  H   UNL     1      37.063 -27.585 -12.874  0.00  0.00    +0.211 HD
ENDBRANCH  23  29
BRANCH  24  31
ATOM     31  O   UNL     1      39.403 -24.548 -15.416  0.00  0.00    -0.377 OA
ATOM     32  H   UNL     1      39.946 -25.329 -15.228  0.00  0.00    +0.211 HD
ENDBRANCH  24  31
BRANCH  25  33
ATOM     33  C   UNL     1      34.570 -24.697 -12.573  0.00  0.00    +0.169 C 
BRANCH  33  34
ATOM     34  O   UNL     1      34.970 -25.047 -11.260  0.00  0.00    -0.379 OA
ATOM     35  H   UNL     1      34.667 -24.368 -10.638  0.00  0.00    +0.211 HD
ENDBRANCH  33  34
ENDBRANCH  25  33
ENDBRANCH  20  26
ENDBRANCH   3  20
TORSDOF 9
ENDMDL
MODEL 9
REMARK VINA RESULT:      -9.9      2.341     10.336
REMARK  Name = 107971
REMARK  9 active torsions:
REMARK  status: ('A' for Active; 'I' for Inactive)
REMARK    1  A    between atoms: C_3  and  O_20
REMARK    2  A    between atoms: C_10  and  C_12
REMARK    3  A    between atoms: C_17  and  O_18
REMARK    4  A    between atoms: O_20  and  C_26
REMARK    5  A    between atoms: C_22  and  O_27
REMARK    6  A    between atoms: C_23  and  O_29
REMARK    7  A    between atoms: C_24  and  O_31
REMARK    8  A    between atoms: C_25  and  C_33
REMARK    9  A    between atoms: C_33  and  O_34
REMARK                            x       y       z     vdW  Elec       q    Type
REMARK                         _______ _______ _______ _____ _____    ______ ____
ROOT
ATOM      1  O   UNL     1      32.740 -21.239 -19.458  0.00  0.00    -0.450 OA
ATOM      2  O   UNL     1      35.978 -22.388 -17.259  0.00  0.00    -0.286 OA
ATOM      3  C   UNL     1      35.373 -19.682 -21.438  0.00  0.00    +0.144 C 
ATOM      4  C   UNL     1      34.115 -20.094 -21.000  0.00  0.00    +0.075 C 
ATOM      5  C   UNL     1      36.515 -20.035 -20.719  0.00  0.00    +0.037 C 
ATOM      6  C   UNL     1      34.002 -20.862 -19.841  0.00  0.00    +0.151 C 
ATOM      7  C   UNL     1      35.144 -21.216 -19.122  0.00  0.00    +0.074 C 
ATOM      8  C   UNL     1      36.405 -20.803 -19.559  0.00  0.00    +0.009 C 
ATOM      9  C   UNL     1      35.000 -22.031 -17.902  0.00  0.00    +0.202 C 
ATOM     10  C   UNL     1      33.611 -22.401 -17.512  0.00  0.00    +0.077 C 
ATOM     11  C   UNL     1      32.617 -21.981 -18.309  0.00  0.00    +0.183 C 
ENDROOT
BRANCH  10  12
ATOM     12  C   UNL     1      33.325 -23.180 -16.296  0.00  0.00    +0.006 C 
ATOM     13  C   UNL     1      32.019 -23.259 -15.805  0.00  0.00    +0.003 C 
ATOM     14  C   UNL     1      34.358 -23.843 -15.630  0.00  0.00    +0.003 C 
ATOM     15  C   UNL     1      31.749 -23.997 -14.653  0.00  0.00    +0.037 C 
ATOM     16  C   UNL     1      34.087 -24.581 -14.477  0.00  0.00    +0.037 C 
ATOM     17  C   UNL     1      32.783 -24.657 -13.988  0.00  0.00    +0.134 C 
BRANCH  17  18
ATOM     18  O   UNL     1      32.518 -25.377 -12.864  0.00  0.00    -0.506 OA
ATOM     19  H   UNL     1      33.058 -26.109 -12.640  0.00  0.00    +0.292 HD
ENDBRANCH  17  18
ENDBRANCH  10  12
BRANCH   3  20
ATOM     20  O   UNL     1      35.487 -18.930 -22.569  0.00  0.00    -0.450 OA
BRANCH  20  26
ATOM     21  O   UNL     1      34.349 -17.595 -24.107  0.00  0.00    -0.316 OA
ATOM     22  C   UNL     1      34.265 -15.393 -22.264  0.00  0.00    +0.173 C 
ATOM     23  C   UNL     1      33.934 -15.233 -23.748  0.00  0.00    +0.169 C 
ATOM     24  C   UNL     1      35.132 -16.629 -22.021  0.00  0.00    +0.210 C 
ATOM     25  C   UNL     1      33.404 -16.546 -24.331  0.00  0.00    +0.177 C 
ATOM     26  C   UNL     1      34.555 -17.859 -22.722  0.00  0.00    +0.318 C 
BRANCH  22  27
ATOM     27  O   UNL     1      34.972 -14.227 -21.841  0.00  0.00    -0.379 OA
ATOM     28  H   UNL     1      35.572 -13.938 -22.546  0.00  0.00    +0.211 HD
ENDBRANCH  22  27
BRANCH  23  29
ATOM     29  O   UNL     1      32.947 -14.217 -23.903  0.00  0.00    -0.379 OA
ATOM     30  H   UNL     1      33.231 -13.416 -23.437  0.00  0.00    +0.211 HD
ENDBRANCH  23  29
BRANCH  24  31
ATOM     31  O   UNL     1      35.190 -16.899 -20.621  0.00  0.00    -0.377 OA
ATOM     32  H   UNL     1      34.630 -17.664 -20.415  0.00  0.00    +0.211 HD
ENDBRANCH  24  31
BRANCH  25  33
ATOM     33  C   UNL     1      33.177 -16.444 -25.836  0.00  0.00    +0.169 C 
BRANCH  33  34
ATOM     34  O   UNL     1      33.781 -15.252 -26.302  0.00  0.00    -0.379 OA
ATOM     35  H   UNL     1      34.305 -14.855 -25.590  0.00  0.00    +0.211 HD
ENDBRANCH  33  34
ENDBRANCH  25  33
ENDBRANCH  20  26
ENDBRANCH   3  20
TORSDOF 9
ENDMDL
