MODEL 1
REMARK VINA RESULT:     -12.0      0.000      0.000
REMARK  Name = 4566
REMARK  6 active torsions:
REMARK  status: ('A' for Active; 'I' for Inactive)
REMARK    1  A    between atoms: N_4  and  C_14
REMARK    2  A    between atoms: C_6  and  O_26
REMARK    3  A    between atoms: C_15  and  S_20
REMARK    4  A    between atoms: S_20  and  N_23
REMARK    5  A    between atoms: O_26  and  C_27
REMARK    6  A    between atoms: C_27  and  C_28
REMARK                            x       y       z     vdW  Elec       q    Type
REMARK                         _______ _______ _______ _____ _____    ______ ____
ROOT
ATOM      1  N   UNL     1      32.326 -23.445 -15.446  0.00  0.00    -0.293 NA
ATOM      2  N   UNL     1      29.050 -22.512 -16.832  0.00  0.00    -0.266 NA
ATOM      3  N   UNL     1      30.449 -23.890 -13.953  0.00  0.00    -0.316 NA
ATOM      4  N   UNL     1      32.647 -24.386 -13.326  0.00  0.00    -0.238 N 
ATOM      5  N   UNL     1      28.288 -23.269 -14.879  0.00  0.00    -0.296 N 
ATOM      6  C   UNL     1      31.506 -22.952 -16.400  0.00  0.00    +0.288 C 
ATOM      7  C   UNL     1      30.152 -22.923 -16.138  0.00  0.00    +0.215 C 
ATOM      8  C   UNL     1      29.653 -23.390 -14.929  0.00  0.00    +0.196 C 
ATOM      9  C   UNL     1      31.754 -23.878 -14.297  0.00  0.00    +0.207 C 
ATOM     10  C   UNL     1      27.957 -22.738 -16.037  0.00  0.00    +0.164 C 
ATOM     11  H   UNL     1      29.041 -22.124 -17.737  0.00  0.00    +0.126 HD
ATOM     12  H   UNL     1      32.203 -24.694 -12.502  0.00  0.00    +0.166 HD
ATOM     13  H   UNL     1      27.688 -23.523 -14.140  0.00  0.00    +0.150 HD
ENDROOT
BRANCH   4  14
ATOM     14  C   UNL     1      34.044 -24.539 -13.307  0.00  0.00    +0.059 C 
ATOM     15  C   UNL     1      36.822 -24.842 -13.270  0.00  0.00    +0.122 C 
ATOM     16  C   UNL     1      34.772 -24.197 -12.165  0.00  0.00    +0.017 C 
ATOM     17  C   UNL     1      34.712 -25.033 -14.431  0.00  0.00    +0.017 C 
ATOM     18  C   UNL     1      36.159 -24.348 -12.146  0.00  0.00    +0.021 C 
ATOM     19  C   UNL     1      36.099 -25.184 -14.411  0.00  0.00    +0.021 C 
BRANCH  15  20
ATOM     20  S   UNL     1      38.558 -25.030 -13.247  0.00  0.00    +0.057 S 
ATOM     21  O   UNL     1      39.100 -24.165 -12.208  0.00  0.00    -0.153 OA
ATOM     22  O   UNL     1      38.867 -26.453 -13.237  0.00  0.00    -0.153 OA
BRANCH  20  23
ATOM     23  N   UNL     1      38.975 -24.389 -14.774  0.00  0.00    -0.203 NA
ATOM     24  H   UNL     1      39.291 -23.425 -14.663  0.00  0.00    +0.144 HD
ATOM     25  H   UNL     1      38.160 -24.411 -15.386  0.00  0.00    +0.144 HD
ENDBRANCH  20  23
ENDBRANCH  15  20
ENDBRANCH   4  14
BRANCH   6  26
ATOM     26  O   UNL     1      32.054 -22.503 -17.577  0.00  0.00    -0.453 OA
BRANCH  26  27
ATOM     27  C   UNL     1      33.400 -22.855 -17.835  0.00  0.00    +0.208 C 
BRANCH  27  28
ATOM     28  C   UNL     1      33.850 -22.144 -19.110  0.00  0.00    +0.044 C 
ATOM     29  C   UNL     1      32.887 -21.003 -19.464  0.00  0.00    +0.004 C 
ATOM     30  C   UNL     1      35.286 -21.622 -18.962  0.00  0.00    +0.004 C 
ATOM     31  C   UNL     1      33.345 -20.243 -20.706  0.00  0.00    +0.000 C 
ATOM     32  C   UNL     1      35.739 -20.860 -20.205  0.00  0.00    +0.000 C 
ATOM     33  C   UNL     1      34.775 -19.732 -20.558  0.00  0.00    +0.000 C 
ENDBRANCH  27  28
ENDBRANCH  26  27
ENDBRANCH   6  26
TORSDOF 6
ENDMDL
MODEL 2
REMARK VINA RESULT:     -12.0      1.351      1.857
REMARK  Name = 4566
REMARK  6 active torsions:
REMARK  status: ('A' for Active; 'I' for Inactive)
REMARK    1  A    between atoms: N_4  and  C_14
REMARK    2  A    between atoms: C_6  and  O_26
REMARK    3  A    between atoms: C_15  and  S_20
REMARK    4  A    between atoms: S_20  and  N_23
REMARK    5  A    between atoms: O_26  and  C_27
REMARK    6  A    between atoms: C_27  and  C_28
REMARK                            x       y       z     vdW  Elec       q    Type
REMARK                         _______ _______ _______ _____ _____    ______ ____
ROOT
ATOM      1  N   UNL     1      33.831 -23.862 -15.518  0.00  0.00    -0.293 NA
ATOM      2  N   UNL     1      30.410 -22.856 -16.421  0.00  0.00    -0.266 NA
ATOM      3  N   UNL     1      32.198 -24.159 -13.729  0.00  0.00    -0.316 NA
ATOM      4  N   UNL     1      34.450 -24.718 -13.428  0.00  0.00    -0.238 N 
ATOM      5  N   UNL     1      29.941 -23.490 -14.336  0.00  0.00    -0.296 N 
ATOM      6  C   UNL     1      32.887 -23.378 -16.356  0.00  0.00    +0.288 C 
ATOM      7  C   UNL     1      31.594 -23.281 -15.887  0.00  0.00    +0.215 C 
ATOM      8  C   UNL     1      31.276 -23.671 -14.593  0.00  0.00    +0.196 C 
ATOM      9  C   UNL     1      33.433 -24.217 -14.273  0.00  0.00    +0.207 C 
ATOM     10  C   UNL     1      29.450 -23.000 -15.454  0.00  0.00    +0.164 C 
ATOM     11  H   UNL     1      30.272 -22.509 -17.332  0.00  0.00    +0.126 HD
ATOM     12  H   UNL     1      34.132 -24.970 -12.530  0.00  0.00    +0.166 HD
ATOM     13  H   UNL     1      29.458 -23.686 -13.501  0.00  0.00    +0.150 HD
ENDROOT
BRANCH   4  14
ATOM     14  C   UNL     1      35.827 -24.928 -13.619  0.00  0.00    +0.059 C 
ATOM     15  C   UNL     1      38.564 -25.346 -13.996  0.00  0.00    +0.122 C 
ATOM     16  C   UNL     1      36.272 -25.972 -14.434  0.00  0.00    +0.017 C 
ATOM     17  C   UNL     1      36.757 -24.094 -12.993  0.00  0.00    +0.017 C 
ATOM     18  C   UNL     1      37.638 -26.181 -14.623  0.00  0.00    +0.021 C 
ATOM     19  C   UNL     1      38.124 -24.304 -13.182  0.00  0.00    +0.021 C 
BRANCH  15  20
ATOM     20  S   UNL     1      40.274 -25.608 -14.232  0.00  0.00    +0.057 S 
ATOM     21  O   UNL     1      40.959 -24.331 -14.091  0.00  0.00    -0.153 OA
ATOM     22  O   UNL     1      40.684 -26.743 -13.416  0.00  0.00    -0.153 OA
BRANCH  20  23
ATOM     23  N   UNL     1      40.308 -26.075 -15.875  0.00  0.00    -0.203 NA
ATOM     24  H   UNL     1      40.682 -25.310 -16.438  0.00  0.00    +0.144 HD
ATOM     25  H   UNL     1      39.362 -26.293 -16.186  0.00  0.00    +0.144 HD
ENDBRANCH  20  23
ENDBRANCH  15  20
ENDBRANCH   4  14
BRANCH   6  26
ATOM     26  O   UNL     1      33.257 -23.007 -17.625  0.00  0.00    -0.453 OA
BRANCH  26  27
ATOM     27  C   UNL     1      34.605 -22.619 -17.815  0.00  0.00    +0.208 C 
BRANCH  27  28
ATOM     28  C   UNL     1      34.718 -21.904 -19.160  0.00  0.00    +0.044 C 
ATOM     29  C   UNL     1      33.473 -21.046 -19.424  0.00  0.00    +0.004 C 
ATOM     30  C   UNL     1      35.992 -21.050 -19.214  0.00  0.00    +0.004 C 
ATOM     31  C   UNL     1      33.585 -20.278 -20.739  0.00  0.00    +0.000 C 
ATOM     32  C   UNL     1      36.100 -20.282 -20.530  0.00  0.00    +0.000 C 
ATOM     33  C   UNL     1      34.857 -19.436 -20.792  0.00  0.00    +0.000 C 
ENDBRANCH  27  28
ENDBRANCH  26  27
ENDBRANCH   6  26
TORSDOF 6
ENDMDL
MODEL 3
REMARK VINA RESULT:     -11.6      2.959      6.794
REMARK  Name = 4566
REMARK  6 active torsions:
REMARK  status: ('A' for Active; 'I' for Inactive)
REMARK    1  A    between atoms: N_4  and  C_14
REMARK    2  A    between atoms: C_6  and  O_26
REMARK    3  A    between atoms: C_15  and  S_20
REMARK    4  A    between atoms: S_20  and  N_23
REMARK    5  A    between atoms: O_26  and  C_27
REMARK    6  A    between atoms: C_27  and  C_28
REMARK                            x       y       z     vdW  Elec       q    Type
REMARK                         _______ _______ _______ _____ _____    ______ ____
ROOT
ATOM      1  N   UNL     1      34.464 -24.052 -14.201  0.00  0.00    -0.293 NA
ATOM      2  N   UNL     1      38.003 -24.353 -13.245  0.00  0.00    -0.266 NA
ATOM      3  N   UNL     1      34.822 -24.504 -11.830  0.00  0.00    -0.316 NA
ATOM      4  N   UNL     1      32.669 -24.266 -12.713  0.00  0.00    -0.238 N 
ATOM      5  N   UNL     1      37.165 -24.702 -11.210  0.00  0.00    -0.296 N 
ATOM      6  C   UNL     1      35.793 -24.053 -14.445  0.00  0.00    +0.288 C 
ATOM      7  C   UNL     1      36.646 -24.280 -13.385  0.00  0.00    +0.215 C 
ATOM      8  C   UNL     1      36.148 -24.499 -12.107  0.00  0.00    +0.196 C 
ATOM      9  C   UNL     1      34.066 -24.276 -12.925  0.00  0.00    +0.207 C 
ATOM     10  C   UNL     1      38.265 -24.608 -11.924  0.00  0.00    +0.164 C 
ATOM     11  H   UNL     1      38.670 -24.243 -13.961  0.00  0.00    +0.126 HD
ATOM     12  H   UNL     1      32.409 -24.430 -11.777  0.00  0.00    +0.166 HD
ATOM     13  H   UNL     1      37.087 -24.878 -10.244  0.00  0.00    +0.150 HD
ENDROOT
BRANCH   4  14
ATOM     14  C   UNL     1      31.577 -24.069 -13.576  0.00  0.00    +0.059 C 
ATOM     15  C   UNL     1      29.408 -23.675 -15.293  0.00  0.00    +0.122 C 
ATOM     16  C   UNL     1      30.746 -25.139 -13.914  0.00  0.00    +0.017 C 
ATOM     17  C   UNL     1      31.319 -22.800 -14.101  0.00  0.00    +0.017 C 
ATOM     18  C   UNL     1      29.663 -24.943 -14.771  0.00  0.00    +0.021 C 
ATOM     19  C   UNL     1      30.235 -22.604 -14.959  0.00  0.00    +0.021 C 
BRANCH  15  20
ATOM     20  S   UNL     1      28.053 -23.429 -16.367  0.00  0.00    +0.057 S 
ATOM     21  O   UNL     1      28.376 -22.336 -17.273  0.00  0.00    -0.153 OA
ATOM     22  O   UNL     1      27.651 -24.721 -16.906  0.00  0.00    -0.153 OA
BRANCH  20  23
ATOM     23  N   UNL     1      26.858 -22.899 -15.267  0.00  0.00    -0.203 NA
ATOM     24  H   UNL     1      26.845 -23.517 -14.455  0.00  0.00    +0.144 HD
ATOM     25  H   UNL     1      25.945 -22.918 -15.722  0.00  0.00    +0.144 HD
ENDBRANCH  20  23
ENDBRANCH  15  20
ENDBRANCH   4  14
BRANCH   6  26
ATOM     26  O   UNL     1      36.230 -23.831 -15.728  0.00  0.00    -0.453 OA
BRANCH  26  27
ATOM     27  C   UNL     1      36.246 -22.490 -16.179  0.00  0.00    +0.208 C 
BRANCH  27  28
ATOM     28  C   UNL     1      35.659 -22.447 -17.589  0.00  0.00    +0.044 C 
ATOM     29  C   UNL     1      34.132 -22.305 -17.537  0.00  0.00    +0.004 C 
ATOM     30  C   UNL     1      36.286 -21.306 -18.403  0.00  0.00    +0.004 C 
ATOM     31  C   UNL     1      33.526 -22.206 -18.935  0.00  0.00    +0.000 C 
ATOM     32  C   UNL     1      35.676 -21.209 -19.799  0.00  0.00    +0.000 C 
ATOM     33  C   UNL     1      34.157 -21.077 -19.742  0.00  0.00    +0.000 C 
ENDBRANCH  27  28
ENDBRANCH  26  27
ENDBRANCH   6  26
TORSDOF 6
ENDMDL
MODEL 4
REMARK VINA RESULT:     -11.1      3.123      6.723
REMARK  Name = 4566
REMARK  6 active torsions:
REMARK  status: ('A' for Active; 'I' for Inactive)
REMARK    1  A    between atoms: N_4  and  C_14
REMARK    2  A    between atoms: C_6  and  O_26
REMARK    3  A    between atoms: C_15  and  S_20
REMARK    4  A    between atoms: S_20  and  N_23
REMARK    5  A    between atoms: O_26  and  C_27
REMARK    6  A    between atoms: C_27  and  C_28
REMARK                            x       y       z     vdW  Elec       q    Type
REMARK                         _______ _______ _______ _____ _____    ______ ____
ROOT
ATOM      1  N   UNL     1      34.183 -23.581 -15.329  0.00  0.00    -0.293 NA
ATOM      2  N   UNL     1      37.842 -23.893 -15.119  0.00  0.00    -0.266 NA
ATOM      3  N   UNL     1      34.974 -24.721 -13.322  0.00  0.00    -0.316 NA
ATOM      4  N   UNL     1      32.692 -24.385 -13.713  0.00  0.00    -0.238 N 
ATOM      5  N   UNL     1      37.394 -24.923 -13.194  0.00  0.00    -0.296 N 
ATOM      6  C   UNL     1      35.446 -23.404 -15.777  0.00  0.00    +0.288 C 
ATOM      7  C   UNL     1      36.481 -23.884 -15.002  0.00  0.00    +0.215 C 
ATOM      8  C   UNL     1      36.227 -24.528 -13.798  0.00  0.00    +0.196 C 
ATOM      9  C   UNL     1      34.028 -24.221 -14.145  0.00  0.00    +0.207 C 
ATOM     10  C   UNL     1      38.344 -24.526 -14.013  0.00  0.00    +0.164 C 
ATOM     11  H   UNL     1      38.366 -23.515 -15.862  0.00  0.00    +0.126 HD
ATOM     12  H   UNL     1      32.610 -24.852 -12.849  0.00  0.00    +0.166 HD
ATOM     13  H   UNL     1      37.496 -25.397 -12.337  0.00  0.00    +0.150 HD
ENDROOT
BRANCH   4  14
ATOM     14  C   UNL     1      31.458 -24.012 -14.274  0.00  0.00    +0.059 C 
ATOM     15  C   UNL     1      29.004 -23.273 -15.387  0.00  0.00    +0.122 C 
ATOM     16  C   UNL     1      31.140 -22.662 -14.437  0.00  0.00    +0.017 C 
ATOM     17  C   UNL     1      30.543 -24.991 -14.671  0.00  0.00    +0.017 C 
ATOM     18  C   UNL     1      29.915 -22.292 -14.993  0.00  0.00    +0.021 C 
ATOM     19  C   UNL     1      29.318 -24.621 -15.227  0.00  0.00    +0.021 C 
BRANCH  15  20
ATOM     20  S   UNL     1      27.471 -22.810 -16.083  0.00  0.00    +0.057 S 
ATOM     21  O   UNL     1      26.450 -22.904 -15.049  0.00  0.00    -0.153 OA
ATOM     22  O   UNL     1      27.652 -21.560 -16.809  0.00  0.00    -0.153 OA
BRANCH  20  23
ATOM     23  N   UNL     1      27.232 -24.069 -17.212  0.00  0.00    -0.203 NA
ATOM     24  H   UNL     1      26.958 -23.673 -18.111  0.00  0.00    +0.144 HD
ATOM     25  H   UNL     1      26.496 -24.691 -16.877  0.00  0.00    +0.144 HD
ENDBRANCH  20  23
ENDBRANCH  15  20
ENDBRANCH   4  14
BRANCH   6  26
ATOM     26  O   UNL     1      35.639 -22.761 -16.975  0.00  0.00    -0.453 OA
BRANCH  26  27
ATOM     27  C   UNL     1      34.519 -22.650 -17.834  0.00  0.00    +0.208 C 
BRANCH  27  28
ATOM     28  C   UNL     1      34.957 -21.932 -19.109  0.00  0.00    +0.044 C 
ATOM     29  C   UNL     1      33.854 -20.988 -19.606  0.00  0.00    +0.004 C 
ATOM     30  C   UNL     1      36.268 -21.168 -18.878  0.00  0.00    +0.004 C 
ATOM     31  C   UNL     1      34.289 -20.218 -20.851  0.00  0.00    +0.000 C 
ATOM     32  C   UNL     1      36.698 -20.398 -20.125  0.00  0.00    +0.000 C 
ATOM     33  C   UNL     1      35.596 -19.466 -20.620  0.00  0.00    +0.000 C 
ENDBRANCH  27  28
ENDBRANCH  26  27
ENDBRANCH   6  26
TORSDOF 6
ENDMDL
MODEL 5
REMARK VINA RESULT:     -11.0      2.704      5.528
REMARK  Name = 4566
REMARK  6 active torsions:
REMARK  status: ('A' for Active; 'I' for Inactive)
REMARK    1  A    between atoms: N_4  and  C_14
REMARK    2  A    between atoms: C_6  and  O_26
REMARK    3  A    between atoms: C_15  and  S_20
REMARK    4  A    between atoms: S_20  and  N_23
REMARK    5  A    between atoms: O_26  and  C_27
REMARK    6  A    between atoms: C_27  and  C_28
REMARK                            x       y       z     vdW  Elec       q    Type
REMARK                         _______ _______ _______ _____ _____    ______ ____
ROOT
ATOM      1  N   UNL     1      34.947 -22.312 -17.363  0.00  0.00    -0.293 NA
ATOM      2  N   UNL     1      33.749 -20.774 -20.482  0.00  0.00    -0.266 NA
ATOM      3  N   UNL     1      36.668 -21.114 -18.609  0.00  0.00    -0.316 NA
ATOM      4  N   UNL     1      37.153 -22.188 -16.589  0.00  0.00    -0.238 N 
ATOM      5  N   UNL     1      35.866 -20.101 -20.669  0.00  0.00    -0.296 N 
ATOM      6  C   UNL     1      34.008 -22.011 -18.287  0.00  0.00    +0.288 C 
ATOM      7  C   UNL     1      34.392 -21.260 -19.379  0.00  0.00    +0.215 C 
ATOM      8  C   UNL     1      35.704 -20.828 -19.518  0.00  0.00    +0.196 C 
ATOM      9  C   UNL     1      36.202 -21.851 -17.579  0.00  0.00    +0.207 C 
ATOM     10  C   UNL     1      34.673 -20.087 -21.225  0.00  0.00    +0.164 C 
ATOM     11  H   UNL     1      32.797 -20.894 -20.703  0.00  0.00    +0.126 HD
ATOM     12  H   UNL     1      38.056 -21.839 -16.771  0.00  0.00    +0.166 HD
ATOM     13  H   UNL     1      36.691 -19.682 -21.004  0.00  0.00    +0.150 HD
ENDROOT
BRANCH   4  14
ATOM     14  C   UNL     1      37.062 -22.924 -15.394  0.00  0.00    +0.059 C 
ATOM     15  C   UNL     1      36.885 -24.386 -13.020  0.00  0.00    +0.122 C 
ATOM     16  C   UNL     1      36.020 -22.681 -14.497  0.00  0.00    +0.017 C 
ATOM     17  C   UNL     1      38.016 -23.902 -15.098  0.00  0.00    +0.017 C 
ATOM     18  C   UNL     1      35.930 -23.411 -13.311  0.00  0.00    +0.021 C 
ATOM     19  C   UNL     1      37.927 -24.631 -13.912  0.00  0.00    +0.021 C 
BRANCH  15  20
ATOM     20  S   UNL     1      36.773 -25.299 -11.535  0.00  0.00    +0.057 S 
ATOM     21  O   UNL     1      37.026 -26.701 -11.837  0.00  0.00    -0.153 OA
ATOM     22  O   UNL     1      37.566 -24.624 -10.517  0.00  0.00    -0.153 OA
BRANCH  20  23
ATOM     23  N   UNL     1      35.118 -25.105 -11.157  0.00  0.00    -0.203 NA
ATOM     24  H   UNL     1      34.678 -26.021 -11.079  0.00  0.00    +0.144 HD
ATOM     25  H   UNL     1      34.661 -24.571 -11.897  0.00  0.00    +0.144 HD
ENDBRANCH  20  23
ENDBRANCH  15  20
ENDBRANCH   4  14
BRANCH   6  26
ATOM     26  O   UNL     1      32.725 -22.464 -18.100  0.00  0.00    -0.453 OA
BRANCH  26  27
ATOM     27  C   UNL     1      32.553 -23.564 -17.226  0.00  0.00    +0.208 C 
BRANCH  27  28
ATOM     28  C   UNL     1      31.911 -23.060 -15.934  0.00  0.00    +0.044 C 
ATOM     29  C   UNL     1      30.392 -23.276 -15.963  0.00  0.00    +0.004 C 
ATOM     30  C   UNL     1      32.539 -23.747 -14.714  0.00  0.00    +0.004 C 
ATOM     31  C   UNL     1      29.734 -22.829 -14.660  0.00  0.00    +0.000 C 
ATOM     32  C   UNL     1      31.876 -23.298 -13.413  0.00  0.00    +0.000 C 
ATOM     33  C   UNL     1      30.365 -23.508 -13.448  0.00  0.00    +0.000 C 
ENDBRANCH  27  28
ENDBRANCH  26  27
ENDBRANCH   6  26
TORSDOF 6
ENDMDL
MODEL 6
REMARK VINA RESULT:     -11.0      3.573      7.326
REMARK  Name = 4566
REMARK  6 active torsions:
REMARK  status: ('A' for Active; 'I' for Inactive)
REMARK    1  A    between atoms: N_4  and  C_14
REMARK    2  A    between atoms: C_6  and  O_26
REMARK    3  A    between atoms: C_15  and  S_20
REMARK    4  A    between atoms: S_20  and  N_23
REMARK    5  A    between atoms: O_26  and  C_27
REMARK    6  A    between atoms: C_27  and  C_28
REMARK                            x       y       z     vdW  Elec       q    Type
REMARK                         _______ _______ _______ _____ _____    ______ ____
ROOT
ATOM      1  N   UNL     1      33.907 -22.701 -16.186  0.00  0.00    -0.293 NA
ATOM      2  N   UNL     1      32.994 -24.584 -13.161  0.00  0.00    -0.266 NA
ATOM      3  N   UNL     1      31.685 -23.707 -16.270  0.00  0.00    -0.316 NA
ATOM      4  N   UNL     1      32.523 -22.454 -18.059  0.00  0.00    -0.238 N 
ATOM      5  N   UNL     1      31.093 -24.950 -14.265  0.00  0.00    -0.296 N 
ATOM      6  C   UNL     1      34.129 -23.191 -14.946  0.00  0.00    +0.288 C 
ATOM      7  C   UNL     1      33.132 -23.943 -14.360  0.00  0.00    +0.215 C 
ATOM      8  C   UNL     1      31.938 -24.184 -15.027  0.00  0.00    +0.196 C 
ATOM      9  C   UNL     1      32.715 -22.986 -16.763  0.00  0.00    +0.207 C 
ATOM     10  C   UNL     1      31.756 -25.172 -13.151  0.00  0.00    +0.164 C 
ATOM     11  H   UNL     1      33.661 -24.617 -12.438  0.00  0.00    +0.126 HD
ATOM     12  H   UNL     1      31.647 -22.676 -18.453  0.00  0.00    +0.166 HD
ATOM     13  H   UNL     1      30.189 -25.262 -14.500  0.00  0.00    +0.150 HD
ENDROOT
BRANCH   4  14
ATOM     14  C   UNL     1      33.336 -21.670 -18.895  0.00  0.00    +0.059 C 
ATOM     15  C   UNL     1      34.955 -20.113 -20.557  0.00  0.00    +0.122 C 
ATOM     16  C   UNL     1      32.761 -20.749 -19.772  0.00  0.00    +0.017 C 
ATOM     17  C   UNL     1      34.727 -21.809 -18.852  0.00  0.00    +0.017 C 
ATOM     18  C   UNL     1      33.568 -19.971 -20.603  0.00  0.00    +0.021 C 
ATOM     19  C   UNL     1      35.534 -21.031 -19.683  0.00  0.00    +0.021 C 
BRANCH  15  20
ATOM     20  S   UNL     1      35.966 -19.140 -21.597  0.00  0.00    +0.057 S 
ATOM     21  O   UNL     1      37.342 -19.247 -21.132  0.00  0.00    -0.153 OA
ATOM     22  O   UNL     1      35.644 -19.456 -22.982  0.00  0.00    -0.153 OA
BRANCH  20  23
ATOM     23  N   UNL     1      35.384 -17.573 -21.243  0.00  0.00    -0.203 NA
ATOM     24  H   UNL     1      35.602 -16.946 -22.018  0.00  0.00    +0.144 HD
ATOM     25  H   UNL     1      35.830 -17.229 -20.393  0.00  0.00    +0.144 HD
ENDBRANCH  20  23
ENDBRANCH  15  20
ENDBRANCH   4  14
BRANCH   6  26
ATOM     26  O   UNL     1      35.327 -22.922 -14.333  0.00  0.00    -0.453 OA
BRANCH  26  27
ATOM     27  C   UNL     1      36.503 -23.293 -15.029  0.00  0.00    +0.208 C 
BRANCH  27  28
ATOM     28  C   UNL     1      37.228 -24.365 -14.217  0.00  0.00    +0.044 C 
ATOM     29  C   UNL     1      37.249 -23.997 -12.728  0.00  0.00    +0.004 C 
ATOM     30  C   UNL     1      36.577 -25.739 -14.431  0.00  0.00    +0.004 C 
ATOM     31  C   UNL     1      37.922 -25.080 -11.888  0.00  0.00    +0.000 C 
ATOM     32  C   UNL     1      37.252 -26.819 -13.588  0.00  0.00    +0.000 C 
ATOM     33  C   UNL     1      37.278 -26.445 -12.109  0.00  0.00    +0.000 C 
ENDBRANCH  27  28
ENDBRANCH  26  27
ENDBRANCH   6  26
TORSDOF 6
ENDMDL
MODEL 7
REMARK VINA RESULT:      -9.7      3.663      7.760
REMARK  Name = 4566
REMARK  6 active torsions:
REMARK  status: ('A' for Active; 'I' for Inactive)
REMARK    1  A    between atoms: N_4  and  C_14
REMARK    2  A    between atoms: C_6  and  O_26
REMARK    3  A    between atoms: C_15  and  S_20
REMARK    4  A    between atoms: S_20  and  N_23
REMARK    5  A    between atoms: O_26  and  C_27
REMARK    6  A    between atoms: C_27  and  C_28
REMARK                            x       y       z     vdW  Elec       q    Type
REMARK                         _______ _______ _______ _____ _____    ______ ____
ROOT
ATOM      1  N   UNL     1      35.009 -22.942 -16.207  0.00  0.00    -0.293 NA
ATOM      2  N   UNL     1      34.995 -24.882 -13.082  0.00  0.00    -0.266 NA
ATOM      3  N   UNL     1      37.222 -23.298 -15.245  0.00  0.00    -0.316 NA
ATOM      4  N   UNL     1      36.937 -22.097 -17.231  0.00  0.00    -0.238 N 
ATOM      5  N   UNL     1      37.201 -24.581 -13.179  0.00  0.00    -0.296 N 
ATOM      6  C   UNL     1      34.416 -23.629 -15.205  0.00  0.00    +0.288 C 
ATOM      7  C   UNL     1      35.221 -24.154 -14.216  0.00  0.00    +0.215 C 
ATOM      8  C   UNL     1      36.598 -23.981 -14.254  0.00  0.00    +0.196 C 
ATOM      9  C   UNL     1      36.357 -22.821 -16.165  0.00  0.00    +0.207 C 
ATOM     10  C   UNL     1      36.212 -25.113 -12.495  0.00  0.00    +0.164 C 
ATOM     11  H   UNL     1      34.120 -25.185 -12.748  0.00  0.00    +0.126 HD
ATOM     12  H   UNL     1      37.918 -22.026 -17.175  0.00  0.00    +0.166 HD
ATOM     13  H   UNL     1      38.163 -24.608 -12.967  0.00  0.00    +0.150 HD
ENDROOT
BRANCH   4  14
ATOM     14  C   UNL     1      36.388 -21.458 -18.357  0.00  0.00    +0.059 C 
ATOM     15  C   UNL     1      35.298 -20.189 -20.595  0.00  0.00    +0.122 C 
ATOM     16  C   UNL     1      35.082 -21.745 -18.760  0.00  0.00    +0.017 C 
ATOM     17  C   UNL     1      37.147 -20.533 -19.079  0.00  0.00    +0.017 C 
ATOM     18  C   UNL     1      34.537 -21.112 -19.877  0.00  0.00    +0.021 C 
ATOM     19  C   UNL     1      36.602 -19.899 -20.196  0.00  0.00    +0.021 C 
BRANCH  15  20
ATOM     20  S   UNL     1      34.616 -19.397 -21.994  0.00  0.00    +0.057 S 
ATOM     21  O   UNL     1      35.385 -19.791 -23.166  0.00  0.00    -0.153 OA
ATOM     22  O   UNL     1      33.173 -19.590 -21.976  0.00  0.00    -0.153 OA
BRANCH  20  23
ATOM     23  N   UNL     1      34.953 -17.760 -21.638  0.00  0.00    -0.203 NA
ATOM     24  H   UNL     1      35.932 -17.561 -21.845  0.00  0.00    +0.144 HD
ATOM     25  H   UNL     1      34.774 -17.584 -20.649  0.00  0.00    +0.144 HD
ENDBRANCH  20  23
ENDBRANCH  15  20
ENDBRANCH   4  14
BRANCH   6  26
ATOM     26  O   UNL     1      33.050 -23.769 -15.217  0.00  0.00    -0.453 OA
BRANCH  26  27
ATOM     27  C   UNL     1      32.324 -23.079 -14.217  0.00  0.00    +0.208 C 
BRANCH  27  28
ATOM     28  C   UNL     1      30.832 -23.296 -14.465  0.00  0.00    +0.044 C 
ATOM     29  C   UNL     1      30.453 -22.882 -15.893  0.00  0.00    +0.004 C 
ATOM     30  C   UNL     1      30.446 -24.758 -14.199  0.00  0.00    +0.004 C 
ATOM     31  C   UNL     1      28.976 -23.140 -16.183  0.00  0.00    +0.000 C 
ATOM     32  C   UNL     1      28.969 -25.013 -14.492  0.00  0.00    +0.000 C 
ATOM     33  C   UNL     1      28.595 -24.592 -15.910  0.00  0.00    +0.000 C 
ENDBRANCH  27  28
ENDBRANCH  26  27
ENDBRANCH   6  26
TORSDOF 6
ENDMDL
MODEL 8
REMARK VINA RESULT:      -9.1     14.315     18.005
REMARK  Name = 4566
REMARK  6 active torsions:
REMARK  status: ('A' for Active; 'I' for Inactive)
REMARK    1  A    between atoms: N_4  and  C_14
REMARK    2  A    between atoms: C_6  and  O_26
REMARK    3  A    between atoms: C_15  and  S_20
REMARK    4  A    between atoms: S_20  and  N_23
REMARK    5  A    between atoms: O_26  and  C_27
REMARK    6  A    between atoms: C_27  and  C_28
REMARK                            x       y       z     vdW  Elec       q    Type
REMARK                         _______ _______ _______ _____ _____    ______ ____
ROOT
ATOM      1  N   UNL     1      32.897  -8.584 -23.088  0.00  0.00    -0.293 NA
ATOM      2  N   UNL     1      31.730 -11.127 -20.701  0.00  0.00    -0.266 NA
ATOM      3  N   UNL     1      32.328  -7.699 -20.887  0.00  0.00    -0.316 NA
ATOM      4  N   UNL     1      33.097  -6.303 -22.599  0.00  0.00    -0.238 N 
ATOM      5  N   UNL     1      31.557  -9.389 -19.318  0.00  0.00    -0.296 N 
ATOM      6  C   UNL     1      32.579  -9.842 -22.712  0.00  0.00    +0.288 C 
ATOM      7  C   UNL     1      32.132 -10.038 -21.421  0.00  0.00    +0.215 C 
ATOM      8  C   UNL     1      32.017  -8.971 -20.540  0.00  0.00    +0.196 C 
ATOM      9  C   UNL     1      32.753  -7.604 -22.165  0.00  0.00    +0.207 C 
ATOM     10  C   UNL     1      31.394 -10.688 -19.447  0.00  0.00    +0.164 C 
ATOM     11  H   UNL     1      31.688 -12.056 -21.023  0.00  0.00    +0.126 HD
ATOM     12  H   UNL     1      32.984  -5.611 -21.907  0.00  0.00    +0.166 HD
ATOM     13  H   UNL     1      31.386  -8.837 -18.519  0.00  0.00    +0.150 HD
ENDROOT
BRANCH   4  14
ATOM     14  C   UNL     1      33.570  -5.804 -23.825  0.00  0.00    +0.059 C 
ATOM     15  C   UNL     1      34.510  -4.814 -26.263  0.00  0.00    +0.122 C 
ATOM     16  C   UNL     1      32.736  -5.034 -24.638  0.00  0.00    +0.017 C 
ATOM     17  C   UNL     1      34.877  -6.077 -24.237  0.00  0.00    +0.017 C 
ATOM     18  C   UNL     1      33.204  -4.539 -25.856  0.00  0.00    +0.021 C 
ATOM     19  C   UNL     1      35.346  -5.582 -25.454  0.00  0.00    +0.021 C 
BRANCH  15  20
ATOM     20  S   UNL     1      35.097  -4.195 -27.787  0.00  0.00    +0.057 S 
ATOM     21  O   UNL     1      36.419  -4.754 -28.032  0.00  0.00    -0.153 OA
ATOM     22  O   UNL     1      34.048  -4.355 -28.785  0.00  0.00    -0.153 OA
BRANCH  20  23
ATOM     23  N   UNL     1      35.258  -2.534 -27.424  0.00  0.00    -0.203 NA
ATOM     24  H   UNL     1      35.510  -2.023 -28.270  0.00  0.00    +0.144 HD
ATOM     25  H   UNL     1      35.989  -2.409 -26.722  0.00  0.00    +0.144 HD
ENDBRANCH  20  23
ENDBRANCH  15  20
ENDBRANCH   4  14
BRANCH   6  26
ATOM     26  O   UNL     1      32.712 -10.860 -23.624  0.00  0.00    -0.453 OA
BRANCH  26  27
ATOM     27  C   UNL     1      33.882 -11.651 -23.540  0.00  0.00    +0.208 C 
BRANCH  27  28
ATOM     28  C   UNL     1      33.504 -13.105 -23.818  0.00  0.00    +0.044 C 
ATOM     29  C   UNL     1      33.501 -13.386 -25.327  0.00  0.00    +0.004 C 
ATOM     30  C   UNL     1      34.456 -14.061 -23.086  0.00  0.00    +0.004 C 
ATOM     31  C   UNL     1      33.178 -14.848 -25.628  0.00  0.00    +0.000 C 
ATOM     32  C   UNL     1      34.131 -15.522 -23.391  0.00  0.00    +0.000 C 
ATOM     33  C   UNL     1      34.121 -15.795 -24.892  0.00  0.00    +0.000 C 
ENDBRANCH  27  28
ENDBRANCH  26  27
ENDBRANCH   6  26
TORSDOF 6
ENDMDL
MODEL 9
REMARK VINA RESULT:      -9.1      1.750      2.470
REMARK  Name = 4566
REMARK  6 active torsions:
REMARK  status: ('A' for Active; 'I' for Inactive)
REMARK    1  A    between atoms: N_4  and  C_14
REMARK    2  A    between atoms: C_6  and  O_26
REMARK    3  A    between atoms: C_15  and  S_20
REMARK    4  A    between atoms: S_20  and  N_23
REMARK    5  A    between atoms: O_26  and  C_27
REMARK    6  A    between atoms: C_27  and  C_28
REMARK                            x       y       z     vdW  Elec       q    Type
REMARK                         _______ _______ _______ _____ _____    ______ ____
ROOT
ATOM      1  N   UNL     1      33.651 -23.897 -15.465  0.00  0.00    -0.293 NA
ATOM      2  N   UNL     1      30.235 -22.798 -16.270  0.00  0.00    -0.266 NA
ATOM      3  N   UNL     1      32.043 -24.239 -13.663  0.00  0.00    -0.316 NA
ATOM      4  N   UNL     1      34.289 -24.847 -13.423  0.00  0.00    -0.238 N 
ATOM      5  N   UNL     1      29.788 -23.509 -14.206  0.00  0.00    -0.296 N 
ATOM      6  C   UNL     1      32.703 -23.364 -16.268  0.00  0.00    +0.288 C 
ATOM      7  C   UNL     1      31.419 -23.265 -15.774  0.00  0.00    +0.215 C 
ATOM      8  C   UNL     1      31.116 -23.701 -14.491  0.00  0.00    +0.196 C 
ATOM      9  C   UNL     1      33.267 -24.296 -14.229  0.00  0.00    +0.207 C 
ATOM     10  C   UNL     1      29.288 -22.966 -15.294  0.00  0.00    +0.164 C 
ATOM     11  H   UNL     1      30.088 -22.413 -17.164  0.00  0.00    +0.126 HD
ATOM     12  H   UNL     1      33.981 -25.129 -12.530  0.00  0.00    +0.166 HD
ATOM     13  H   UNL     1      29.315 -23.730 -13.371  0.00  0.00    +0.150 HD
ENDROOT
BRANCH   4  14
ATOM     14  C   UNL     1      35.659 -25.072 -13.645  0.00  0.00    +0.059 C 
ATOM     15  C   UNL     1      38.381 -25.520 -14.089  0.00  0.00    +0.122 C 
ATOM     16  C   UNL     1      36.614 -24.281 -13.003  0.00  0.00    +0.017 C 
ATOM     17  C   UNL     1      36.071 -26.089 -14.511  0.00  0.00    +0.017 C 
ATOM     18  C   UNL     1      37.973 -24.504 -13.224  0.00  0.00    +0.021 C 
ATOM     19  C   UNL     1      37.431 -26.312 -14.732  0.00  0.00    +0.021 C 
BRANCH  15  20
ATOM     20  S   UNL     1      40.082 -25.799 -14.367  0.00  0.00    +0.057 S 
ATOM     21  O   UNL     1      40.543 -26.809 -13.424  0.00  0.00    -0.153 OA
ATOM     22  O   UNL     1      40.291 -25.993 -15.795  0.00  0.00    -0.153 OA
BRANCH  20  23
ATOM     23  N   UNL     1      40.737 -24.286 -13.919  0.00  0.00    -0.203 NA
ATOM     24  H   UNL     1      40.692 -23.647 -14.713  0.00  0.00    +0.144 HD
ATOM     25  H   UNL     1      41.710 -24.407 -13.636  0.00  0.00    +0.144 HD
ENDBRANCH  20  23
ENDBRANCH  15  20
ENDBRANCH   4  14
BRANCH   6  26
ATOM     26  O   UNL     1      33.059 -22.948 -17.527  0.00  0.00    -0.453 OA
BRANCH  26  27
ATOM     27  C   UNL     1      34.379 -23.234 -17.950  0.00  0.00    +0.208 C 
BRANCH  27  28
ATOM     28  C   UNL     1      35.288 -22.088 -17.508  0.00  0.00    +0.044 C 
ATOM     29  C   UNL     1      36.153 -22.511 -16.313  0.00  0.00    +0.004 C 
ATOM     30  C   UNL     1      36.163 -21.610 -18.674  0.00  0.00    +0.004 C 
ATOM     31  C   UNL     1      37.109 -21.400 -15.886  0.00  0.00    +0.000 C 
ATOM     32  C   UNL     1      37.119 -20.499 -18.243  0.00  0.00    +0.000 C 
ATOM     33  C   UNL     1      37.971 -20.922 -17.050  0.00  0.00    +0.000 C 
ENDBRANCH  27  28
ENDBRANCH  26  27
ENDBRANCH   6  26
TORSDOF 6
ENDMDL
