MODEL 1
REMARK VINA RESULT:     -11.7      0.000      0.000
REMARK  Name = 445770
REMARK  5 active torsions:
REMARK  status: ('A' for Active; 'I' for Inactive)
REMARK    1  A    between atoms: N_2  and  C_17
REMARK    2  A    between atoms: C_3  and  C_5
REMARK    3  A    between atoms: C_6  and  S_11
REMARK    4  A    between atoms: S_11  and  N_14
REMARK    5  A    between atoms: C_17  and  C_23
REMARK                            x       y       z     vdW  Elec       q    Type
REMARK                         _______ _______ _______ _____ _____    ______ ____
ROOT
ATOM      1  O   UNL     1      37.028 -18.764 -21.607  0.00  0.00    -0.270 OA
ATOM      2  N   UNL     1      34.907 -18.263 -22.398  0.00  0.00    -0.297 N 
ATOM      3  C   UNL     1      35.799 -18.955 -21.571  0.00  0.00    +0.246 C 
ATOM      4  H   UNL     1      33.946 -18.464 -22.318  0.00  0.00    +0.150 HD
ENDROOT
BRANCH   3   5
ATOM      5  C   UNL     1      35.231 -19.943 -20.668  0.00  0.00    +0.053 C 
ATOM      6  C   UNL     1      34.141 -21.839 -18.936  0.00  0.00    +0.122 C 
ATOM      7  C   UNL     1      36.070 -20.742 -19.891  0.00  0.00    +0.006 C 
ATOM      8  C   UNL     1      33.847 -20.092 -20.580  0.00  0.00    +0.006 C 
ATOM      9  C   UNL     1      35.525 -21.690 -19.026  0.00  0.00    +0.020 C 
ATOM     10  C   UNL     1      33.302 -21.040 -19.713  0.00  0.00    +0.020 C 
BRANCH   6  11
ATOM     11  S   UNL     1      33.458 -23.025 -17.852  0.00  0.00    +0.057 S 
ATOM     12  O   UNL     1      33.538 -24.333 -18.486  0.00  0.00    -0.153 OA
ATOM     13  O   UNL     1      32.174 -22.529 -17.378  0.00  0.00    -0.153 OA
BRANCH  11  14
ATOM     14  N   UNL     1      34.579 -22.970 -16.563  0.00  0.00    -0.203 NA
ATOM     15  H   UNL     1      34.150 -23.358 -15.723  0.00  0.00    +0.144 HD
ATOM     16  H   UNL     1      34.852 -22.002 -16.390  0.00  0.00    +0.144 HD
ENDBRANCH  11  14
ENDBRANCH   6  11
ENDBRANCH   3   5
BRANCH   2  17
ATOM     17  C   UNL     1      35.320 -17.269 -23.364  0.00  0.00    +0.121 C 
BRANCH  17  23
ATOM     18  F   UNL     1      35.007 -16.045 -20.838  0.00  0.00    -0.202 F 
ATOM     19  F   UNL     1      34.149 -15.850 -25.503  0.00  0.00    -0.202 F 
ATOM     20  F   UNL     1      32.825 -13.492 -25.154  0.00  0.00    -0.199 F 
ATOM     21  F   UNL     1      33.684 -13.686 -20.501  0.00  0.00    -0.199 F 
ATOM     22  F   UNL     1      32.591 -12.406 -22.657  0.00  0.00    -0.199 F 
ATOM     23  C   UNL     1      34.589 -15.967 -23.173  0.00  0.00    +0.057 A 
ATOM     24  C   UNL     1      34.476 -15.425 -21.900  0.00  0.00    +0.170 A 
ATOM     25  C   UNL     1      34.039 -15.325 -24.274  0.00  0.00    +0.170 A 
ATOM     26  C   UNL     1      33.362 -14.119 -24.100  0.00  0.00    +0.197 A 
ATOM     27  C   UNL     1      33.798 -14.219 -21.725  0.00  0.00    +0.197 A 
ATOM     28  C   UNL     1      33.241 -13.565 -22.824  0.00  0.00    +0.199 A 
ENDBRANCH  17  23
ENDBRANCH   2  17
TORSDOF 5
ENDMDL
MODEL 2
REMARK VINA RESULT:     -11.7      0.011      2.129
REMARK  Name = 445770
REMARK  5 active torsions:
REMARK  status: ('A' for Active; 'I' for Inactive)
REMARK    1  A    between atoms: N_2  and  C_17
REMARK    2  A    between atoms: C_3  and  C_5
REMARK    3  A    between atoms: C_6  and  S_11
REMARK    4  A    between atoms: S_11  and  N_14
REMARK    5  A    between atoms: C_17  and  C_23
REMARK                            x       y       z     vdW  Elec       q    Type
REMARK                         _______ _______ _______ _____ _____    ______ ____
ROOT
ATOM      1  O   UNL     1      37.030 -18.777 -21.625  0.00  0.00    -0.270 OA
ATOM      2  N   UNL     1      34.906 -18.255 -22.392  0.00  0.00    -0.297 N 
ATOM      3  C   UNL     1      35.801 -18.957 -21.576  0.00  0.00    +0.246 C 
ATOM      4  H   UNL     1      33.944 -18.447 -22.302  0.00  0.00    +0.150 HD
ENDROOT
BRANCH   3   5
ATOM      5  C   UNL     1      35.234 -19.943 -20.670  0.00  0.00    +0.053 C 
ATOM      6  C   UNL     1      34.146 -21.835 -18.932  0.00  0.00    +0.122 C 
ATOM      7  C   UNL     1      36.074 -20.737 -19.889  0.00  0.00    +0.006 C 
ATOM      8  C   UNL     1      33.850 -20.095 -20.583  0.00  0.00    +0.006 C 
ATOM      9  C   UNL     1      35.529 -21.683 -19.021  0.00  0.00    +0.020 C 
ATOM     10  C   UNL     1      33.306 -21.041 -19.713  0.00  0.00    +0.020 C 
BRANCH   6  11
ATOM     11  S   UNL     1      33.465 -23.017 -17.844  0.00  0.00    +0.057 S 
ATOM     12  O   UNL     1      33.544 -24.327 -18.475  0.00  0.00    -0.153 OA
ATOM     13  O   UNL     1      32.181 -22.520 -17.369  0.00  0.00    -0.153 OA
BRANCH  11  14
ATOM     14  N   UNL     1      34.587 -22.960 -16.557  0.00  0.00    -0.203 NA
ATOM     15  H   UNL     1      35.489 -22.636 -16.906  0.00  0.00    +0.144 HD
ATOM     16  H   UNL     1      34.692 -23.892 -16.156  0.00  0.00    +0.144 HD
ENDBRANCH  11  14
ENDBRANCH   6  11
ENDBRANCH   3   5
BRANCH   2  17
ATOM     17  C   UNL     1      35.317 -17.261 -23.359  0.00  0.00    +0.121 C 
BRANCH  17  23
ATOM     18  F   UNL     1      34.137 -15.847 -25.501  0.00  0.00    -0.202 F 
ATOM     19  F   UNL     1      35.007 -16.036 -20.837  0.00  0.00    -0.202 F 
ATOM     20  F   UNL     1      33.679 -13.678 -20.501  0.00  0.00    -0.199 F 
ATOM     21  F   UNL     1      32.808 -13.492 -25.152  0.00  0.00    -0.199 F 
ATOM     22  F   UNL     1      32.578 -12.404 -22.654  0.00  0.00    -0.199 F 
ATOM     23  C   UNL     1      34.583 -15.961 -23.172  0.00  0.00    +0.057 A 
ATOM     24  C   UNL     1      34.028 -15.322 -24.273  0.00  0.00    +0.170 A 
ATOM     25  C   UNL     1      34.471 -15.418 -21.899  0.00  0.00    +0.170 A 
ATOM     26  C   UNL     1      33.791 -14.212 -21.723  0.00  0.00    +0.197 A 
ATOM     27  C   UNL     1      33.349 -14.117 -24.097  0.00  0.00    +0.197 A 
ATOM     28  C   UNL     1      33.230 -13.561 -22.823  0.00  0.00    +0.199 A 
ENDBRANCH  17  23
ENDBRANCH   2  17
TORSDOF 5
ENDMDL
MODEL 3
REMARK VINA RESULT:     -10.4      6.894     10.826
REMARK  Name = 445770
REMARK  5 active torsions:
REMARK  status: ('A' for Active; 'I' for Inactive)
REMARK    1  A    between atoms: N_2  and  C_17
REMARK    2  A    between atoms: C_3  and  C_5
REMARK    3  A    between atoms: C_6  and  S_11
REMARK    4  A    between atoms: S_11  and  N_14
REMARK    5  A    between atoms: C_17  and  C_23
REMARK                            x       y       z     vdW  Elec       q    Type
REMARK                         _______ _______ _______ _____ _____    ______ ____
ROOT
ATOM      1  O   UNL     1      33.334 -23.984 -17.787  0.00  0.00    -0.270 OA
ATOM      2  N   UNL     1      34.755 -23.084 -16.192  0.00  0.00    -0.297 N 
ATOM      3  C   UNL     1      34.174 -23.125 -17.464  0.00  0.00    +0.246 C 
ATOM      4  H   UNL     1      35.414 -22.377 -16.003  0.00  0.00    +0.150 HD
ENDROOT
BRANCH   3   5
ATOM      5  C   UNL     1      34.615 -22.125 -18.424  0.00  0.00    +0.053 C 
ATOM      6  C   UNL     1      35.461 -20.207 -20.264  0.00  0.00    +0.122 C 
ATOM      7  C   UNL     1      33.682 -21.477 -19.233  0.00  0.00    +0.006 C 
ATOM      8  C   UNL     1      35.970 -21.816 -18.534  0.00  0.00    +0.006 C 
ATOM      9  C   UNL     1      34.105 -20.518 -20.153  0.00  0.00    +0.020 C 
ATOM     10  C   UNL     1      36.393 -20.856 -19.455  0.00  0.00    +0.020 C 
BRANCH   6  11
ATOM     11  S   UNL     1      35.990 -19.006 -21.415  0.00  0.00    +0.057 S 
ATOM     12  O   UNL     1      35.344 -19.272 -22.693  0.00  0.00    -0.153 OA
ATOM     13  O   UNL     1      37.441 -18.910 -21.345  0.00  0.00    -0.153 OA
BRANCH  11  14
ATOM     14  N   UNL     1      35.312 -17.589 -20.742  0.00  0.00    -0.203 NA
ATOM     15  H   UNL     1      35.148 -17.731 -19.746  0.00  0.00    +0.144 HD
ATOM     16  H   UNL     1      34.427 -17.382 -21.206  0.00  0.00    +0.144 HD
ENDBRANCH  11  14
ENDBRANCH   6  11
ENDBRANCH   3   5
BRANCH   2  17
ATOM     17  C   UNL     1      34.439 -24.023 -15.138  0.00  0.00    +0.121 C 
BRANCH  17  23
ATOM     18  F   UNL     1      35.567 -26.552 -15.690  0.00  0.00    -0.202 F 
ATOM     19  F   UNL     1      35.826 -22.524 -13.190  0.00  0.00    -0.202 F 
ATOM     20  F   UNL     1      38.069 -23.449 -11.946  0.00  0.00    -0.199 F 
ATOM     21  F   UNL     1      37.812 -27.465 -14.442  0.00  0.00    -0.199 F 
ATOM     22  F   UNL     1      39.066 -25.916 -12.568  0.00  0.00    -0.199 F 
ATOM     23  C   UNL     1      35.678 -24.531 -14.450  0.00  0.00    +0.057 A 
ATOM     24  C   UNL     1      36.175 -25.786 -14.774  0.00  0.00    +0.170 A 
ATOM     25  C   UNL     1      36.307 -23.736 -13.502  0.00  0.00    +0.170 A 
ATOM     26  C   UNL     1      37.455 -24.206 -12.864  0.00  0.00    +0.197 A 
ATOM     27  C   UNL     1      37.322 -26.256 -14.136  0.00  0.00    +0.197 A 
ATOM     28  C   UNL     1      37.963 -25.466 -13.181  0.00  0.00    +0.199 A 
ENDBRANCH  17  23
ENDBRANCH   2  17
TORSDOF 5
ENDMDL
MODEL 4
REMARK VINA RESULT:     -10.4      6.805     10.669
REMARK  Name = 445770
REMARK  5 active torsions:
REMARK  status: ('A' for Active; 'I' for Inactive)
REMARK    1  A    between atoms: N_2  and  C_17
REMARK    2  A    between atoms: C_3  and  C_5
REMARK    3  A    between atoms: C_6  and  S_11
REMARK    4  A    between atoms: S_11  and  N_14
REMARK    5  A    between atoms: C_17  and  C_23
REMARK                            x       y       z     vdW  Elec       q    Type
REMARK                         _______ _______ _______ _____ _____    ______ ____
ROOT
ATOM      1  O   UNL     1      33.352 -24.003 -17.955  0.00  0.00    -0.270 OA
ATOM      2  N   UNL     1      34.696 -23.089 -16.301  0.00  0.00    -0.297 N 
ATOM      3  C   UNL     1      34.159 -23.128 -17.593  0.00  0.00    +0.246 C 
ATOM      4  H   UNL     1      35.330 -22.369 -16.082  0.00  0.00    +0.150 HD
ENDROOT
BRANCH   3   5
ATOM      5  C   UNL     1      34.606 -22.105 -18.525  0.00  0.00    +0.053 C 
ATOM      6  C   UNL     1      35.463 -20.142 -20.312  0.00  0.00    +0.122 C 
ATOM      7  C   UNL     1      33.674 -21.409 -19.295  0.00  0.00    +0.006 C 
ATOM      8  C   UNL     1      35.966 -21.821 -18.648  0.00  0.00    +0.006 C 
ATOM      9  C   UNL     1      34.104 -20.428 -20.189  0.00  0.00    +0.020 C 
ATOM     10  C   UNL     1      36.395 -20.838 -19.542  0.00  0.00    +0.020 C 
BRANCH   6  11
ATOM     11  S   UNL     1      36.000 -18.913 -21.430  0.00  0.00    +0.057 S 
ATOM     12  O   UNL     1      35.353 -19.141 -22.714  0.00  0.00    -0.153 OA
ATOM     13  O   UNL     1      37.452 -18.828 -21.356  0.00  0.00    -0.153 OA
BRANCH  11  14
ATOM     14  N   UNL     1      35.330 -17.512 -20.719  0.00  0.00    -0.203 NA
ATOM     15  H   UNL     1      34.816 -17.770 -19.877  0.00  0.00    +0.144 HD
ATOM     16  H   UNL     1      34.695 -17.065 -21.381  0.00  0.00    +0.144 HD
ENDBRANCH  11  14
ENDBRANCH   6  11
ENDBRANCH   3   5
BRANCH   2  17
ATOM     17  C   UNL     1      34.369 -24.049 -15.270  0.00  0.00    +0.121 C 
BRANCH  17  23
ATOM     18  F   UNL     1      35.653 -22.442 -13.335  0.00  0.00    -0.202 F 
ATOM     19  F   UNL     1      35.567 -26.572 -15.677  0.00  0.00    -0.202 F 
ATOM     20  F   UNL     1      37.783 -27.384 -14.312  0.00  0.00    -0.199 F 
ATOM     21  F   UNL     1      37.866 -23.267 -11.974  0.00  0.00    -0.199 F 
ATOM     22  F   UNL     1      38.935 -25.737 -12.460  0.00  0.00    -0.199 F 
ATOM     23  C   UNL     1      35.592 -24.500 -14.517  0.00  0.00    +0.057 A 
ATOM     24  C   UNL     1      36.169 -23.655 -13.579  0.00  0.00    +0.170 A 
ATOM     25  C   UNL     1      36.125 -25.756 -14.771  0.00  0.00    +0.170 A 
ATOM     26  C   UNL     1      37.258 -26.175 -14.074  0.00  0.00    +0.197 A 
ATOM     27  C   UNL     1      37.302 -24.073 -12.883  0.00  0.00    +0.197 A 
ATOM     28  C   UNL     1      37.847 -25.334 -13.129  0.00  0.00    +0.199 A 
ENDBRANCH  17  23
ENDBRANCH   2  17
TORSDOF 5
ENDMDL
MODEL 5
REMARK VINA RESULT:     -10.3      6.346     10.379
REMARK  Name = 445770
REMARK  5 active torsions:
REMARK  status: ('A' for Active; 'I' for Inactive)
REMARK    1  A    between atoms: N_2  and  C_17
REMARK    2  A    between atoms: C_3  and  C_5
REMARK    3  A    between atoms: C_6  and  S_11
REMARK    4  A    between atoms: S_11  and  N_14
REMARK    5  A    between atoms: C_17  and  C_23
REMARK                            x       y       z     vdW  Elec       q    Type
REMARK                         _______ _______ _______ _____ _____    ______ ____
ROOT
ATOM      1  O   UNL     1      33.444 -24.074 -18.452  0.00  0.00    -0.270 OA
ATOM      2  N   UNL     1      33.999 -22.783 -16.609  0.00  0.00    -0.297 N 
ATOM      3  C   UNL     1      33.886 -23.009 -17.985  0.00  0.00    +0.246 C 
ATOM      4  H   UNL     1      34.359 -21.916 -16.307  0.00  0.00    +0.150 HD
ENDROOT
BRANCH   3   5
ATOM      5  C   UNL     1      34.338 -21.946 -18.869  0.00  0.00    +0.053 C 
ATOM      6  C   UNL     1      35.206 -19.908 -20.564  0.00  0.00    +0.122 C 
ATOM      7  C   UNL     1      33.409 -21.189 -19.581  0.00  0.00    +0.006 C 
ATOM      8  C   UNL     1      35.702 -21.686 -19.005  0.00  0.00    +0.006 C 
ATOM      9  C   UNL     1      33.843 -20.169 -20.428  0.00  0.00    +0.020 C 
ATOM     10  C   UNL     1      36.136 -20.665 -19.852  0.00  0.00    +0.020 C 
BRANCH   6  11
ATOM     11  S   UNL     1      35.749 -18.631 -21.623  0.00  0.00    +0.057 S 
ATOM     12  O   UNL     1      35.288 -17.358 -21.089  0.00  0.00    -0.153 OA
ATOM     13  O   UNL     1      35.423 -19.000 -22.993  0.00  0.00    -0.153 OA
BRANCH  11  14
ATOM     14  N   UNL     1      37.442 -18.733 -21.415  0.00  0.00    -0.203 NA
ATOM     15  H   UNL     1      37.900 -18.037 -22.003  0.00  0.00    +0.144 HD
ATOM     16  H   UNL     1      37.761 -19.665 -21.678  0.00  0.00    +0.144 HD
ENDBRANCH  11  14
ENDBRANCH   6  11
ENDBRANCH   3   5
BRANCH   2  17
ATOM     17  C   UNL     1      33.616 -23.750 -15.605  0.00  0.00    +0.121 C 
BRANCH  17  23
ATOM     18  F   UNL     1      36.361 -23.436 -16.190  0.00  0.00    -0.202 F 
ATOM     19  F   UNL     1      33.064 -24.467 -12.932  0.00  0.00    -0.202 F 
ATOM     20  F   UNL     1      35.024 -24.828 -11.072  0.00  0.00    -0.199 F 
ATOM     21  F   UNL     1      38.312 -23.796 -14.320  0.00  0.00    -0.199 F 
ATOM     22  F   UNL     1      37.648 -24.493 -11.760  0.00  0.00    -0.199 F 
ATOM     23  C   UNL     1      34.696 -23.948 -14.576  0.00  0.00    +0.057 A 
ATOM     24  C   UNL     1      36.026 -23.776 -14.938  0.00  0.00    +0.170 A 
ATOM     25  C   UNL     1      34.348 -24.301 -13.280  0.00  0.00    +0.170 A 
ATOM     26  C   UNL     1      35.348 -24.485 -12.325  0.00  0.00    +0.197 A 
ATOM     27  C   UNL     1      37.026 -23.961 -13.984  0.00  0.00    +0.197 A 
ATOM     28  C   UNL     1      36.688 -24.315 -12.677  0.00  0.00    +0.199 A 
ENDBRANCH  17  23
ENDBRANCH   2  17
TORSDOF 5
ENDMDL
MODEL 6
REMARK VINA RESULT:     -10.3      6.364     10.231
REMARK  Name = 445770
REMARK  5 active torsions:
REMARK  status: ('A' for Active; 'I' for Inactive)
REMARK    1  A    between atoms: N_2  and  C_17
REMARK    2  A    between atoms: C_3  and  C_5
REMARK    3  A    between atoms: C_6  and  S_11
REMARK    4  A    between atoms: S_11  and  N_14
REMARK    5  A    between atoms: C_17  and  C_23
REMARK                            x       y       z     vdW  Elec       q    Type
REMARK                         _______ _______ _______ _____ _____    ______ ____
ROOT
ATOM      1  O   UNL     1      33.433 -24.092 -18.438  0.00  0.00    -0.270 OA
ATOM      2  N   UNL     1      33.980 -22.802 -16.591  0.00  0.00    -0.297 N 
ATOM      3  C   UNL     1      33.876 -23.029 -17.968  0.00  0.00    +0.246 C 
ATOM      4  H   UNL     1      34.341 -21.937 -16.287  0.00  0.00    +0.150 HD
ENDROOT
BRANCH   3   5
ATOM      5  C   UNL     1      34.340 -21.969 -18.849  0.00  0.00    +0.053 C 
ATOM      6  C   UNL     1      35.227 -19.934 -20.539  0.00  0.00    +0.122 C 
ATOM      7  C   UNL     1      35.704 -21.703 -18.964  0.00  0.00    +0.006 C 
ATOM      8  C   UNL     1      33.418 -21.217 -19.578  0.00  0.00    +0.006 C 
ATOM      9  C   UNL     1      36.148 -20.686 -19.808  0.00  0.00    +0.020 C 
ATOM     10  C   UNL     1      33.863 -20.199 -20.424  0.00  0.00    +0.020 C 
BRANCH   6  11
ATOM     11  S   UNL     1      35.783 -18.662 -21.597  0.00  0.00    +0.057 S 
ATOM     12  O   UNL     1      35.305 -17.387 -21.079  0.00  0.00    -0.153 OA
ATOM     13  O   UNL     1      35.483 -19.042 -22.970  0.00  0.00    -0.153 OA
BRANCH  11  14
ATOM     14  N   UNL     1      37.472 -18.753 -21.356  0.00  0.00    -0.203 NA
ATOM     15  H   UNL     1      37.667 -18.894 -20.366  0.00  0.00    +0.144 HD
ATOM     16  H   UNL     1      37.907 -17.884 -21.668  0.00  0.00    +0.144 HD
ENDBRANCH  11  14
ENDBRANCH   6  11
ENDBRANCH   3   5
BRANCH   2  17
ATOM     17  C   UNL     1      33.584 -23.768 -15.590  0.00  0.00    +0.121 C 
BRANCH  17  23
ATOM     18  F   UNL     1      33.018 -24.501 -12.922  0.00  0.00    -0.202 F 
ATOM     19  F   UNL     1      36.330 -23.451 -16.158  0.00  0.00    -0.202 F 
ATOM     20  F   UNL     1      38.272 -23.821 -14.280  0.00  0.00    -0.199 F 
ATOM     21  F   UNL     1      34.969 -24.873 -11.054  0.00  0.00    -0.199 F 
ATOM     22  F   UNL     1      37.597 -24.533 -11.729  0.00  0.00    -0.199 F 
ATOM     23  C   UNL     1      34.658 -23.973 -14.555  0.00  0.00    +0.057 A 
ATOM     24  C   UNL     1      34.303 -24.334 -13.262  0.00  0.00    +0.170 A 
ATOM     25  C   UNL     1      35.989 -23.799 -14.909  0.00  0.00    +0.170 A 
ATOM     26  C   UNL     1      36.985 -23.989 -13.951  0.00  0.00    +0.197 A 
ATOM     27  C   UNL     1      35.299 -24.523 -12.305  0.00  0.00    +0.197 A 
ATOM     28  C   UNL     1      36.640 -24.351 -12.648  0.00  0.00    +0.199 A 
ENDBRANCH  17  23
ENDBRANCH   2  17
TORSDOF 5
ENDMDL
MODEL 7
REMARK VINA RESULT:     -10.2      1.658      2.755
REMARK  Name = 445770
REMARK  5 active torsions:
REMARK  status: ('A' for Active; 'I' for Inactive)
REMARK    1  A    between atoms: N_2  and  C_17
REMARK    2  A    between atoms: C_3  and  C_5
REMARK    3  A    between atoms: C_6  and  S_11
REMARK    4  A    between atoms: S_11  and  N_14
REMARK    5  A    between atoms: C_17  and  C_23
REMARK                            x       y       z     vdW  Elec       q    Type
REMARK                         _______ _______ _______ _____ _____    ______ ____
ROOT
ATOM      1  O   UNL     1      37.290 -19.148 -21.363  0.00  0.00    -0.270 OA
ATOM      2  N   UNL     1      35.235 -18.087 -21.525  0.00  0.00    -0.297 N 
ATOM      3  C   UNL     1      36.083 -19.101 -21.065  0.00  0.00    +0.246 C 
ATOM      4  H   UNL     1      34.289 -18.110 -21.250  0.00  0.00    +0.150 HD
ENDROOT
BRANCH   3   5
ATOM      5  C   UNL     1      35.487 -20.133 -20.232  0.00  0.00    +0.053 C 
ATOM      6  C   UNL     1      34.344 -22.114 -18.635  0.00  0.00    +0.122 C 
ATOM      7  C   UNL     1      34.109 -20.345 -20.263  0.00  0.00    +0.006 C 
ATOM      8  C   UNL     1      36.295 -20.911 -19.402  0.00  0.00    +0.006 C 
ATOM      9  C   UNL     1      33.538 -21.335 -19.464  0.00  0.00    +0.020 C 
ATOM     10  C   UNL     1      35.723 -21.902 -18.603  0.00  0.00    +0.020 C 
BRANCH   6  11
ATOM     11  S   UNL     1      33.630 -23.354 -17.635  0.00  0.00    +0.057 S 
ATOM     12  O   UNL     1      34.355 -23.408 -16.374  0.00  0.00    -0.153 OA
ATOM     13  O   UNL     1      33.482 -24.561 -18.436  0.00  0.00    -0.153 OA
BRANCH  11  14
ATOM     14  N   UNL     1      32.081 -22.690 -17.350  0.00  0.00    -0.203 NA
ATOM     15  H   UNL     1      31.492 -22.837 -18.169  0.00  0.00    +0.144 HD
ATOM     16  H   UNL     1      32.168 -21.690 -17.169  0.00  0.00    +0.144 HD
ENDBRANCH  11  14
ENDBRANCH   6  11
ENDBRANCH   3   5
BRANCH   2  17
ATOM     17  C   UNL     1      35.672 -17.005 -22.379  0.00  0.00    +0.121 C 
BRANCH  17  23
ATOM     18  F   UNL     1      35.064 -14.375 -23.211  0.00  0.00    -0.202 F 
ATOM     19  F   UNL     1      34.241 -19.022 -23.737  0.00  0.00    -0.202 F 
ATOM     20  F   UNL     1      32.420 -18.471 -25.690  0.00  0.00    -0.199 F 
ATOM     21  F   UNL     1      33.244 -13.837 -25.168  0.00  0.00    -0.199 F 
ATOM     22  F   UNL     1      31.919 -15.882 -26.409  0.00  0.00    -0.199 F 
ATOM     23  C   UNL     1      34.667 -16.703 -23.458  0.00  0.00    +0.057 A 
ATOM     24  C   UNL     1      34.421 -15.384 -23.815  0.00  0.00    +0.170 A 
ATOM     25  C   UNL     1      34.002 -17.748 -24.082  0.00  0.00    +0.170 A 
ATOM     26  C   UNL     1      33.070 -17.470 -25.083  0.00  0.00    +0.197 A 
ATOM     27  C   UNL     1      33.489 -15.106 -24.814  0.00  0.00    +0.197 A 
ATOM     28  C   UNL     1      32.813 -16.148 -25.449  0.00  0.00    +0.199 A 
ENDBRANCH  17  23
ENDBRANCH   2  17
TORSDOF 5
ENDMDL
MODEL 8
REMARK VINA RESULT:     -10.2      1.521      2.733
REMARK  Name = 445770
REMARK  5 active torsions:
REMARK  status: ('A' for Active; 'I' for Inactive)
REMARK    1  A    between atoms: N_2  and  C_17
REMARK    2  A    between atoms: C_3  and  C_5
REMARK    3  A    between atoms: C_6  and  S_11
REMARK    4  A    between atoms: S_11  and  N_14
REMARK    5  A    between atoms: C_17  and  C_23
REMARK                            x       y       z     vdW  Elec       q    Type
REMARK                         _______ _______ _______ _____ _____    ______ ____
ROOT
ATOM      1  O   UNL     1      37.315 -19.132 -21.125  0.00  0.00    -0.270 OA
ATOM      2  N   UNL     1      35.241 -18.382 -21.838  0.00  0.00    -0.297 N 
ATOM      3  C   UNL     1      36.075 -19.208 -21.076  0.00  0.00    +0.246 C 
ATOM      4  H   UNL     1      34.267 -18.496 -21.751  0.00  0.00    +0.150 HD
ENDROOT
BRANCH   3   5
ATOM      5  C   UNL     1      35.429 -20.198 -20.228  0.00  0.00    +0.053 C 
ATOM      6  C   UNL     1      34.189 -22.095 -18.602  0.00  0.00    +0.122 C 
ATOM      7  C   UNL     1      34.042 -20.341 -20.257  0.00  0.00    +0.006 C 
ATOM      8  C   UNL     1      36.197 -21.002 -19.386  0.00  0.00    +0.006 C 
ATOM      9  C   UNL     1      33.422 -21.289 -19.443  0.00  0.00    +0.020 C 
ATOM     10  C   UNL     1      35.576 -21.951 -18.573  0.00  0.00    +0.020 C 
BRANCH   6  11
ATOM     11  S   UNL     1      33.414 -23.283 -17.584  0.00  0.00    +0.057 S 
ATOM     12  O   UNL     1      33.463 -24.573 -18.259  0.00  0.00    -0.153 OA
ATOM     13  O   UNL     1      32.134 -22.746 -17.144  0.00  0.00    -0.153 OA
BRANCH  11  14
ATOM     14  N   UNL     1      34.484 -23.319 -16.252  0.00  0.00    -0.203 NA
ATOM     15  H   UNL     1      34.597 -22.376 -15.882  0.00  0.00    +0.144 HD
ATOM     16  H   UNL     1      35.390 -23.677 -16.554  0.00  0.00    +0.144 HD
ENDBRANCH  11  14
ENDBRANCH   6  11
ENDBRANCH   3   5
BRANCH   2  17
ATOM     17  C   UNL     1      35.732 -17.368 -22.745  0.00  0.00    +0.121 C 
BRANCH  17  23
ATOM     18  F   UNL     1      34.045 -19.168 -24.119  0.00  0.00    -0.202 F 
ATOM     19  F   UNL     1      35.259 -14.648 -23.323  0.00  0.00    -0.202 F 
ATOM     20  F   UNL     1      33.331 -13.830 -25.069  0.00  0.00    -0.199 F 
ATOM     21  F   UNL     1      32.117 -18.338 -25.859  0.00  0.00    -0.199 F 
ATOM     22  F   UNL     1      31.758 -15.670 -26.338  0.00  0.00    -0.199 F 
ATOM     23  C   UNL     1      34.667 -16.915 -23.707  0.00  0.00    +0.057 A 
ATOM     24  C   UNL     1      33.875 -17.859 -24.346  0.00  0.00    +0.170 A 
ATOM     25  C   UNL     1      34.493 -15.558 -23.941  0.00  0.00    +0.170 A 
ATOM     26  C   UNL     1      33.507 -15.136 -24.833  0.00  0.00    +0.197 A 
ATOM     27  C   UNL     1      32.890 -17.437 -25.238  0.00  0.00    +0.197 A 
ATOM     28  C   UNL     1      32.705 -16.075 -25.482  0.00  0.00    +0.199 A 
ENDBRANCH  17  23
ENDBRANCH   2  17
TORSDOF 5
ENDMDL
MODEL 9
REMARK VINA RESULT:     -10.1      4.824      7.481
REMARK  Name = 445770
REMARK  5 active torsions:
REMARK  status: ('A' for Active; 'I' for Inactive)
REMARK    1  A    between atoms: N_2  and  C_17
REMARK    2  A    between atoms: C_3  and  C_5
REMARK    3  A    between atoms: C_6  and  S_11
REMARK    4  A    between atoms: S_11  and  N_14
REMARK    5  A    between atoms: C_17  and  C_23
REMARK                            x       y       z     vdW  Elec       q    Type
REMARK                         _______ _______ _______ _____ _____    ______ ____
ROOT
ATOM      1  O   UNL     1      31.846 -23.201 -15.924  0.00  0.00    -0.270 OA
ATOM      2  N   UNL     1      33.764 -22.832 -17.172  0.00  0.00    -0.297 N 
ATOM      3  C   UNL     1      33.086 -23.229 -16.014  0.00  0.00    +0.246 C 
ATOM      4  H   UNL     1      34.748 -22.879 -17.176  0.00  0.00    +0.150 HD
ENDROOT
BRANCH   3   5
ATOM      5  C   UNL     1      33.899 -23.661 -14.888  0.00  0.00    +0.053 C 
ATOM      6  C   UNL     1      35.458 -24.488 -12.728  0.00  0.00    +0.122 C 
ATOM      7  C   UNL     1      35.282 -23.781 -15.032  0.00  0.00    +0.006 C 
ATOM      8  C   UNL     1      33.296 -23.954 -13.665  0.00  0.00    +0.006 C 
ATOM      9  C   UNL     1      36.061 -24.195 -13.951  0.00  0.00    +0.020 C 
ATOM     10  C   UNL     1      34.076 -24.367 -12.584  0.00  0.00    +0.020 C 
BRANCH   6  11
ATOM     11  S   UNL     1      36.434 -25.004 -11.375  0.00  0.00    +0.057 S 
ATOM     12  O   UNL     1      37.393 -23.952 -11.068  0.00  0.00    -0.153 OA
ATOM     13  O   UNL     1      36.904 -26.357 -11.638  0.00  0.00    -0.153 OA
BRANCH  11  14
ATOM     14  N   UNL     1      35.263 -25.060 -10.132  0.00  0.00    -0.203 NA
ATOM     15  H   UNL     1      34.898 -24.122  -9.966  0.00  0.00    +0.144 HD
ATOM     16  H   UNL     1      35.692 -25.415  -9.277  0.00  0.00    +0.144 HD
ENDBRANCH  11  14
ENDBRANCH   6  11
ENDBRANCH   3   5
BRANCH   2  17
ATOM     17  C   UNL     1      33.099 -22.356 -18.365  0.00  0.00    +0.121 C 
BRANCH  17  23
ATOM     18  F   UNL     1      32.132 -20.649 -20.397  0.00  0.00    -0.202 F 
ATOM     19  F   UNL     1      35.901 -22.314 -18.037  0.00  0.00    -0.202 F 
ATOM     20  F   UNL     1      37.537 -20.754 -19.562  0.00  0.00    -0.199 F 
ATOM     21  F   UNL     1      33.777 -19.090 -21.912  0.00  0.00    -0.199 F 
ATOM     22  F   UNL     1      36.480 -19.140 -21.498  0.00  0.00    -0.199 F 
ATOM     23  C   UNL     1      34.003 -21.494 -19.205  0.00  0.00    +0.057 A 
ATOM     24  C   UNL     1      33.455 -20.679 -20.186  0.00  0.00    +0.170 A 
ATOM     25  C   UNL     1      35.373 -21.527 -18.985  0.00  0.00    +0.170 A 
ATOM     26  C   UNL     1      36.213 -20.729 -19.763  0.00  0.00    +0.197 A 
ATOM     27  C   UNL     1      34.295 -19.882 -20.963  0.00  0.00    +0.197 A 
ATOM     28  C   UNL     1      35.674 -19.906 -20.752  0.00  0.00    +0.199 A 
ENDBRANCH  17  23
ENDBRANCH   2  17
TORSDOF 5
ENDMDL
