MODEL 1
REMARK VINA RESULT:     -12.5      0.000      0.000
REMARK  Name = 448605
REMARK  6 active torsions:
REMARK  status: ('A' for Active; 'I' for Inactive)
REMARK    1  A    between atoms: C_3  and  N_11
REMARK    2  A    between atoms: C_4  and  C_27
REMARK    3  A    between atoms: C_9  and  C_21
REMARK    4  A    between atoms: N_26  and  C_29
REMARK    5  A    between atoms: C_30  and  C_35
REMARK    6  A    between atoms: C_35  and  N_36
REMARK                            x       y       z     vdW  Elec       q    Type
REMARK                         _______ _______ _______ _____ _____    ______ ____
ROOT
ATOM      1  C   UNL     1      34.093 -23.108 -16.005  0.00  0.00    +0.014 C 
ATOM      2  C   UNL     1      33.116 -22.811 -16.985  0.00  0.00    +0.001 C 
ATOM      3  C   UNL     1      35.431 -22.755 -16.240  0.00  0.00    +0.057 C 
ATOM      4  C   UNL     1      34.843 -21.828 -18.390  0.00  0.00    +0.055 C 
ATOM      5  C   UNL     1      33.508 -22.170 -18.173  0.00  0.00    +0.005 C 
ATOM      6  C   UNL     1      35.803 -22.119 -17.425  0.00  0.00    +0.020 C 
ATOM      7  C   UNL     1      33.702 -23.747 -14.818  0.00  0.00    +0.004 C 
ATOM      8  C   UNL     1      31.778 -23.163 -16.750  0.00  0.00    +0.000 C 
ATOM      9  C   UNL     1      32.366 -24.091 -14.600  0.00  0.00    +0.031 C 
ATOM     10  C   UNL     1      31.406 -23.799 -15.565  0.00  0.00    +0.003 C 
ENDROOT
BRANCH   3  11
ATOM     11  N   UNL     1      36.449 -23.028 -15.292  0.00  0.00    -0.257 N 
ATOM     12  N   UNL     1      36.418 -25.373 -15.232  0.00  0.00    -0.180 NA
ATOM     13  N   UNL     1      37.954 -24.121 -13.862  0.00  0.00    -0.203 NA
ATOM     14  C   UNL     1      36.963 -24.227 -14.773  0.00  0.00    +0.091 C 
ATOM     15  C   UNL     1      36.935 -26.505 -14.712  0.00  0.00    +0.108 C 
ATOM     16  C   UNL     1      38.424 -25.292 -13.383  0.00  0.00    +0.165 C 
ATOM     17  C   UNL     1      37.949 -26.526 -13.776  0.00  0.00    +0.022 C 
ATOM     18  H   UNL     1      36.877 -22.221 -14.927  0.00  0.00    +0.164 HD
ENDBRANCH   3  11
BRANCH   9  21
ATOM     19  N   UNL     1      30.644 -25.058 -13.096  0.00  0.00    -0.343 N 
ATOM     20  N   UNL     1      32.896 -25.073 -12.472  0.00  0.00    -0.285 NA
ATOM     21  C   UNL     1      31.977 -24.753 -13.365  0.00  0.00    +0.117 C 
ATOM     22  H   UNL     1      30.402 -25.506 -12.253  0.00  0.00    +0.144 HD
ATOM     23  H   UNL     1      29.943 -24.825 -13.748  0.00  0.00    +0.144 HD
ATOM     24  H   UNL     1      32.634 -25.521 -11.635  0.00  0.00    +0.188 HD
ENDBRANCH   9  21
BRANCH   4  27
ATOM     25  O   UNL     1      36.187 -21.615 -20.276  0.00  0.00    -0.270 OA
ATOM     26  N   UNL     1      34.456 -20.056 -19.993  0.00  0.00    -0.280 N 
ATOM     27  C   UNL     1      35.231 -21.165 -19.625  0.00  0.00    +0.250 C 
ATOM     28  H   UNL     1      33.731 -19.816 -19.373  0.00  0.00    +0.155 HD
BRANCH  26  29
ATOM     29  C   UNL     1      34.581 -19.236 -21.141  0.00  0.00    +0.051 C 
ATOM     30  C   UNL     1      34.823 -17.632 -23.385  0.00  0.00    -0.044 C 
ATOM     31  C   UNL     1      34.059 -19.675 -22.345  0.00  0.00    +0.014 C 
ATOM     32  C   UNL     1      35.221 -18.013 -21.033  0.00  0.00    +0.014 C 
ATOM     33  C   UNL     1      34.182 -18.868 -23.476  0.00  0.00    -0.005 C 
ATOM     34  C   UNL     1      35.343 -17.206 -22.163  0.00  0.00    -0.005 C 
BRANCH  30  35
ATOM     35  C   UNL     1      34.954 -16.769 -24.594  0.00  0.00    -0.059 C 
BRANCH  35  36
ATOM     36  N   UNL     1      33.682 -16.266 -25.047  0.00  0.00    +0.383 N 
ATOM     37  H   UNL     1      33.311 -15.609 -24.361  0.00  0.00    -0.089 HD
ATOM     38  H   UNL     1      33.030 -17.042 -25.162  0.00  0.00    -0.089 HD
ATOM     39  H   UNL     1      33.805 -15.790 -25.941  0.00  0.00    -0.089 HD
ENDBRANCH  35  36
ENDBRANCH  30  35
ENDBRANCH  26  29
ENDBRANCH   4  27
TORSDOF 6
ENDMDL
MODEL 2
REMARK VINA RESULT:     -12.3      1.713      4.592
REMARK  Name = 448605
REMARK  6 active torsions:
REMARK  status: ('A' for Active; 'I' for Inactive)
REMARK    1  A    between atoms: C_3  and  N_11
REMARK    2  A    between atoms: C_4  and  C_27
REMARK    3  A    between atoms: C_9  and  C_21
REMARK    4  A    between atoms: N_26  and  C_29
REMARK    5  A    between atoms: C_30  and  C_35
REMARK    6  A    between atoms: C_35  and  N_36
REMARK                            x       y       z     vdW  Elec       q    Type
REMARK                         _______ _______ _______ _____ _____    ______ ____
ROOT
ATOM      1  C   UNL     1      34.925 -23.150 -16.264  0.00  0.00    +0.014 C 
ATOM      2  C   UNL     1      35.898 -22.369 -16.933  0.00  0.00    +0.001 C 
ATOM      3  C   UNL     1      33.609 -23.175 -16.753  0.00  0.00    +0.057 C 
ATOM      4  C   UNL     1      34.212 -21.673 -18.544  0.00  0.00    +0.055 C 
ATOM      5  C   UNL     1      35.525 -21.636 -18.073  0.00  0.00    +0.005 C 
ATOM      6  C   UNL     1      33.256 -22.441 -17.885  0.00  0.00    +0.020 C 
ATOM      7  C   UNL     1      35.298 -23.883 -15.126  0.00  0.00    +0.004 C 
ATOM      8  C   UNL     1      37.214 -22.344 -16.445  0.00  0.00    +0.000 C 
ATOM      9  C   UNL     1      36.611 -23.846 -14.653  0.00  0.00    +0.031 C 
ATOM     10  C   UNL     1      37.567 -23.079 -15.312  0.00  0.00    +0.003 C 
ENDROOT
BRANCH   3  11
ATOM     11  N   UNL     1      32.597 -23.939 -16.121  0.00  0.00    -0.257 N 
ATOM     12  N   UNL     1      30.701 -22.609 -16.495  0.00  0.00    -0.180 NA
ATOM     13  N   UNL     1      30.535 -24.688 -15.289  0.00  0.00    -0.203 NA
ATOM     14  C   UNL     1      31.217 -23.736 -15.962  0.00  0.00    +0.091 C 
ATOM     15  C   UNL     1      29.373 -22.446 -16.323  0.00  0.00    +0.108 C 
ATOM     16  C   UNL     1      29.211 -24.461 -15.153  0.00  0.00    +0.165 C 
ATOM     17  C   UNL     1      28.570 -23.347 -15.655  0.00  0.00    +0.022 C 
ATOM     18  H   UNL     1      32.925 -24.774 -15.716  0.00  0.00    +0.164 HD
ENDBRANCH   3  11
BRANCH   9  21
ATOM     19  N   UNL     1      36.270 -25.748 -13.094  0.00  0.00    -0.343 N 
ATOM     20  N   UNL     1      38.008 -24.228 -12.736  0.00  0.00    -0.285 NA
ATOM     21  C   UNL     1      36.981 -24.611 -13.473  0.00  0.00    +0.117 C 
ATOM     22  H   UNL     1      36.538 -26.251 -12.292  0.00  0.00    +0.144 HD
ATOM     23  H   UNL     1      35.499 -26.049 -13.629  0.00  0.00    +0.144 HD
ATOM     24  H   UNL     1      38.260 -24.745 -11.937  0.00  0.00    +0.188 HD
ENDBRANCH   9  21
BRANCH   4  27
ATOM     25  O   UNL     1      32.693 -21.017 -20.179  0.00  0.00    -0.270 OA
ATOM     26  N   UNL     1      34.840 -20.073 -20.249  0.00  0.00    -0.280 N 
ATOM     27  C   UNL     1      33.843 -20.908 -19.725  0.00  0.00    +0.250 C 
ATOM     28  H   UNL     1      35.705 -20.094 -19.781  0.00  0.00    +0.155 HD
BRANCH  26  29
ATOM     29  C   UNL     1      34.764 -19.203 -21.364  0.00  0.00    +0.051 C 
ATOM     30  C   UNL     1      34.618 -17.503 -23.544  0.00  0.00    -0.044 C 
ATOM     31  C   UNL     1      35.164 -17.886 -21.222  0.00  0.00    +0.014 C 
ATOM     32  C   UNL     1      34.292 -19.690 -22.572  0.00  0.00    +0.014 C 
ATOM     33  C   UNL     1      35.090 -17.029 -22.321  0.00  0.00    -0.005 C 
ATOM     34  C   UNL     1      34.219 -18.834 -23.669  0.00  0.00    -0.005 C 
BRANCH  30  35
ATOM     35  C   UNL     1      34.539 -16.587 -24.718  0.00  0.00    -0.059 C 
BRANCH  35  36
ATOM     36  N   UNL     1      33.180 -16.316 -25.111  0.00  0.00    +0.383 N 
ATOM     37  H   UNL     1      32.966 -15.333 -24.942  0.00  0.00    -0.089 HD
ATOM     38  H   UNL     1      32.545 -16.901 -24.567  0.00  0.00    -0.089 HD
ATOM     39  H   UNL     1      33.066 -16.522 -26.104  0.00  0.00    -0.089 HD
ENDBRANCH  35  36
ENDBRANCH  30  35
ENDBRANCH  26  29
ENDBRANCH   4  27
TORSDOF 6
ENDMDL
MODEL 3
REMARK VINA RESULT:     -11.7      1.882      4.577
REMARK  Name = 448605
REMARK  6 active torsions:
REMARK  status: ('A' for Active; 'I' for Inactive)
REMARK    1  A    between atoms: C_3  and  N_11
REMARK    2  A    between atoms: C_4  and  C_27
REMARK    3  A    between atoms: C_9  and  C_21
REMARK    4  A    between atoms: N_26  and  C_29
REMARK    5  A    between atoms: C_30  and  C_35
REMARK    6  A    between atoms: C_35  and  N_36
REMARK                            x       y       z     vdW  Elec       q    Type
REMARK                         _______ _______ _______ _____ _____    ______ ____
ROOT
ATOM      1  C   UNL     1      34.945 -23.601 -14.995  0.00  0.00    +0.014 C 
ATOM      2  C   UNL     1      35.992 -22.947 -15.689  0.00  0.00    +0.001 C 
ATOM      3  C   UNL     1      33.667 -23.657 -15.574  0.00  0.00    +0.057 C 
ATOM      4  C   UNL     1      34.452 -22.432 -17.501  0.00  0.00    +0.055 C 
ATOM      5  C   UNL     1      35.728 -22.368 -16.942  0.00  0.00    +0.005 C 
ATOM      6  C   UNL     1      33.423 -23.076 -16.819  0.00  0.00    +0.020 C 
ATOM      7  C   UNL     1      35.208 -24.181 -13.744  0.00  0.00    +0.004 C 
ATOM      8  C   UNL     1      37.269 -22.891 -15.110  0.00  0.00    +0.000 C 
ATOM      9  C   UNL     1      36.485 -24.116 -13.183  0.00  0.00    +0.031 C 
ATOM     10  C   UNL     1      37.513 -23.473 -13.865  0.00  0.00    +0.003 C 
ENDROOT
BRANCH   3  11
ATOM     11  N   UNL     1      32.585 -24.299 -14.924  0.00  0.00    -0.257 N 
ATOM     12  N   UNL     1      30.744 -23.217 -15.895  0.00  0.00    -0.180 NA
ATOM     13  N   UNL     1      30.434 -24.939 -14.238  0.00  0.00    -0.203 NA
ATOM     14  C   UNL     1      31.193 -24.145 -15.024  0.00  0.00    +0.091 C 
ATOM     15  C   UNL     1      29.402 -23.095 -15.965  0.00  0.00    +0.108 C 
ATOM     16  C   UNL     1      29.101 -24.763 -14.359  0.00  0.00    +0.165 C 
ATOM     17  C   UNL     1      28.523 -23.848 -15.215  0.00  0.00    +0.022 C 
ATOM     18  H   UNL     1      32.863 -24.987 -14.277  0.00  0.00    +0.164 HD
ENDBRANCH   3  11
BRANCH   9  21
ATOM     19  N   UNL     1      37.275 -23.982 -10.833  0.00  0.00    -0.343 N 
ATOM     20  N   UNL     1      36.470 -26.000 -11.692  0.00  0.00    -0.285 NA
ATOM     21  C   UNL     1      36.741 -24.722 -11.886  0.00  0.00    +0.117 C 
ATOM     22  H   UNL     1      37.441 -24.412  -9.964  0.00  0.00    +0.144 HD
ATOM     23  H   UNL     1      37.487 -23.028 -10.959  0.00  0.00    +0.144 HD
ATOM     24  H   UNL     1      36.643 -26.412 -10.814  0.00  0.00    +0.188 HD
ENDBRANCH   9  21
BRANCH   4  27
ATOM     25  O   UNL     1      33.197 -22.181 -19.443  0.00  0.00    -0.270 OA
ATOM     26  N   UNL     1      35.116 -20.852 -19.210  0.00  0.00    -0.280 N 
ATOM     27  C   UNL     1      34.196 -21.827 -18.799  0.00  0.00    +0.250 C 
ATOM     28  H   UNL     1      35.861 -20.678 -18.591  0.00  0.00    +0.155 HD
BRANCH  26  29
ATOM     29  C   UNL     1      35.112 -20.083 -20.400  0.00  0.00    +0.051 C 
ATOM     30  C   UNL     1      35.106 -18.581 -22.725  0.00  0.00    -0.044 C 
ATOM     31  C   UNL     1      33.954 -20.009 -21.154  0.00  0.00    +0.014 C 
ATOM     32  C   UNL     1      36.268 -19.423 -20.783  0.00  0.00    +0.014 C 
ATOM     33  C   UNL     1      33.951 -19.252 -22.326  0.00  0.00    -0.005 C 
ATOM     34  C   UNL     1      36.264 -18.666 -21.953  0.00  0.00    -0.005 C 
BRANCH  30  35
ATOM     35  C   UNL     1      35.102 -17.771 -23.978  0.00  0.00    -0.059 C 
BRANCH  35  36
ATOM     36  N   UNL     1      35.438 -16.391 -23.740  0.00  0.00    +0.383 N 
ATOM     37  H   UNL     1      34.959 -16.063 -22.901  0.00  0.00    -0.089 HD
ATOM     38  H   UNL     1      35.147 -15.827 -24.539  0.00  0.00    -0.089 HD
ATOM     39  H   UNL     1      36.446 -16.304 -23.611  0.00  0.00    -0.089 HD
ENDBRANCH  35  36
ENDBRANCH  30  35
ENDBRANCH  26  29
ENDBRANCH   4  27
TORSDOF 6
ENDMDL
MODEL 4
REMARK VINA RESULT:     -10.6      3.058      8.223
REMARK  Name = 448605
REMARK  6 active torsions:
REMARK  status: ('A' for Active; 'I' for Inactive)
REMARK    1  A    between atoms: C_3  and  N_11
REMARK    2  A    between atoms: C_4  and  C_27
REMARK    3  A    between atoms: C_9  and  C_21
REMARK    4  A    between atoms: N_26  and  C_29
REMARK    5  A    between atoms: C_30  and  C_35
REMARK    6  A    between atoms: C_35  and  N_36
REMARK                            x       y       z     vdW  Elec       q    Type
REMARK                         _______ _______ _______ _____ _____    ______ ____
ROOT
ATOM      1  C   UNL     1      30.802 -23.141 -15.924  0.00  0.00    +0.014 C 
ATOM      2  C   UNL     1      30.807 -23.852 -14.699  0.00  0.00    +0.001 C 
ATOM      3  C   UNL     1      32.022 -22.838 -16.547  0.00  0.00    +0.057 C 
ATOM      4  C   UNL     1      33.238 -23.929 -14.769  0.00  0.00    +0.055 C 
ATOM      5  C   UNL     1      32.034 -24.240 -14.135  0.00  0.00    +0.005 C 
ATOM      6  C   UNL     1      33.232 -23.230 -15.973  0.00  0.00    +0.020 C 
ATOM      7  C   UNL     1      29.575 -22.755 -16.488  0.00  0.00    +0.004 C 
ATOM      8  C   UNL     1      29.586 -24.155 -14.076  0.00  0.00    +0.000 C 
ATOM      9  C   UNL     1      28.371 -23.065 -15.854  0.00  0.00    +0.031 C 
ATOM     10  C   UNL     1      28.376 -23.765 -14.651  0.00  0.00    +0.003 C 
ENDROOT
BRANCH   3  11
ATOM     11  N   UNL     1      32.075 -22.129 -17.772  0.00  0.00    -0.257 N 
ATOM     12  N   UNL     1      34.387 -22.017 -18.153  0.00  0.00    -0.180 NA
ATOM     13  N   UNL     1      32.829 -21.038 -19.709  0.00  0.00    -0.203 NA
ATOM     14  C   UNL     1      33.144 -21.710 -18.580  0.00  0.00    +0.091 C 
ATOM     15  C   UNL     1      35.390 -21.600 -18.953  0.00  0.00    +0.108 C 
ATOM     16  C   UNL     1      33.880 -20.651 -20.461  0.00  0.00    +0.165 C 
ATOM     17  C   UNL     1      35.195 -20.906 -20.130  0.00  0.00    +0.022 C 
ATOM     18  H   UNL     1      31.190 -21.881 -18.125  0.00  0.00    +0.164 HD
ENDBRANCH   3  11
BRANCH   9  21
ATOM     19  N   UNL     1      26.119 -22.031 -15.697  0.00  0.00    -0.343 N 
ATOM     20  N   UNL     1      26.883 -22.886 -17.733  0.00  0.00    -0.285 NA
ATOM     21  C   UNL     1      27.109 -22.658 -16.452  0.00  0.00    +0.117 C 
ATOM     22  H   UNL     1      25.272 -21.764 -16.122  0.00  0.00    +0.144 HD
ATOM     23  H   UNL     1      26.266 -21.855 -14.740  0.00  0.00    +0.144 HD
ATOM     24  H   UNL     1      26.029 -22.611 -18.139  0.00  0.00    +0.188 HD
ENDBRANCH   9  21
BRANCH   4  27
ATOM     25  O   UNL     1      34.527 -24.639 -12.968  0.00  0.00    -0.270 OA
ATOM     26  N   UNL     1      35.601 -24.376 -15.037  0.00  0.00    -0.280 N 
ATOM     27  C   UNL     1      34.500 -24.337 -14.171  0.00  0.00    +0.250 C 
ATOM     28  H   UNL     1      35.425 -24.106 -15.967  0.00  0.00    +0.155 HD
BRANCH  26  29
ATOM     29  C   UNL     1      36.937 -24.753 -14.749  0.00  0.00    +0.051 C 
ATOM     30  C   UNL     1      39.544 -25.491 -14.185  0.00  0.00    -0.044 C 
ATOM     31  C   UNL     1      37.961 -23.856 -14.997  0.00  0.00    +0.014 C 
ATOM     32  C   UNL     1      37.186 -26.011 -14.226  0.00  0.00    +0.014 C 
ATOM     33  C   UNL     1      39.275 -24.228 -14.713  0.00  0.00    -0.005 C 
ATOM     34  C   UNL     1      38.499 -26.382 -13.941  0.00  0.00    -0.005 C 
BRANCH  30  35
ATOM     35  C   UNL     1      40.949 -25.887 -13.881  0.00  0.00    -0.059 C 
BRANCH  35  36
ATOM     36  N   UNL     1      41.059 -27.276 -13.513  0.00  0.00    +0.383 N 
ATOM     37  H   UNL     1      41.347 -27.348 -12.537  0.00  0.00    -0.089 HD
ATOM     38  H   UNL     1      41.753 -27.731 -14.106  0.00  0.00    -0.089 HD
ATOM     39  H   UNL     1      40.156 -27.732 -13.636  0.00  0.00    -0.089 HD
ENDBRANCH  35  36
ENDBRANCH  30  35
ENDBRANCH  26  29
ENDBRANCH   4  27
TORSDOF 6
ENDMDL
MODEL 5
REMARK VINA RESULT:      -9.6      9.940     17.315
REMARK  Name = 448605
REMARK  6 active torsions:
REMARK  status: ('A' for Active; 'I' for Inactive)
REMARK    1  A    between atoms: C_3  and  N_11
REMARK    2  A    between atoms: C_4  and  C_27
REMARK    3  A    between atoms: C_9  and  C_21
REMARK    4  A    between atoms: N_26  and  C_29
REMARK    5  A    between atoms: C_30  and  C_35
REMARK    6  A    between atoms: C_35  and  N_36
REMARK                            x       y       z     vdW  Elec       q    Type
REMARK                         _______ _______ _______ _____ _____    ______ ____
ROOT
ATOM      1  C   UNL     1      32.450  -6.321 -23.003  0.00  0.00    +0.014 C 
ATOM      2  C   UNL     1      31.398  -7.022 -22.364  0.00  0.00    +0.001 C 
ATOM      3  C   UNL     1      33.563  -7.035 -23.475  0.00  0.00    +0.057 C 
ATOM      4  C   UNL     1      32.606  -9.108 -22.691  0.00  0.00    +0.055 C 
ATOM      5  C   UNL     1      31.492  -8.416 -22.216  0.00  0.00    +0.005 C 
ATOM      6  C   UNL     1      33.640  -8.419 -23.320  0.00  0.00    +0.020 C 
ATOM      7  C   UNL     1      32.356  -4.928 -23.151  0.00  0.00    +0.004 C 
ATOM      8  C   UNL     1      30.285  -6.308 -21.892  0.00  0.00    +0.000 C 
ATOM      9  C   UNL     1      31.241  -4.235 -22.676  0.00  0.00    +0.031 C 
ATOM     10  C   UNL     1      30.208  -4.924 -22.048  0.00  0.00    +0.003 C 
ENDROOT
BRANCH   3  11
ATOM     11  N   UNL     1      34.642  -6.384 -24.122  0.00  0.00    -0.257 N 
ATOM     12  N   UNL     1      33.570  -5.425 -25.975  0.00  0.00    -0.180 NA
ATOM     13  N   UNL     1      35.937  -5.135 -25.629  0.00  0.00    -0.203 NA
ATOM     14  C   UNL     1      34.719  -5.614 -25.293  0.00  0.00    +0.091 C 
ATOM     15  C   UNL     1      33.680  -4.681 -27.095  0.00  0.00    +0.108 C 
ATOM     16  C   UNL     1      35.975  -4.400 -26.760  0.00  0.00    +0.165 C 
ATOM     17  C   UNL     1      34.868  -4.137 -27.540  0.00  0.00    +0.022 C 
ATOM     18  H   UNL     1      35.505  -6.494 -23.661  0.00  0.00    +0.164 HD
ENDBRANCH   3  11
BRANCH   9  21
ATOM     19  N   UNL     1      30.228  -2.035 -22.127  0.00  0.00    -0.343 N 
ATOM     20  N   UNL     1      31.974  -2.176 -23.675  0.00  0.00    -0.285 NA
ATOM     21  C   UNL     1      31.159  -2.792 -22.838  0.00  0.00    +0.117 C 
ATOM     22  H   UNL     1      30.189  -1.060 -22.252  0.00  0.00    +0.144 HD
ATOM     23  H   UNL     1      29.610  -2.476 -21.501  0.00  0.00    +0.144 HD
ATOM     24  H   UNL     1      31.919  -1.199 -23.785  0.00  0.00    +0.188 HD
ENDBRANCH   9  21
BRANCH   4  27
ATOM     25  O   UNL     1      32.068 -11.091 -21.599  0.00  0.00    -0.270 OA
ATOM     26  N   UNL     1      33.464 -11.230 -23.480  0.00  0.00    -0.280 N 
ATOM     27  C   UNL     1      32.688 -10.552 -22.530  0.00  0.00    +0.250 C 
ATOM     28  H   UNL     1      33.898 -10.666 -24.160  0.00  0.00    +0.155 HD
BRANCH  26  29
ATOM     29  C   UNL     1      33.704 -12.622 -23.591  0.00  0.00    +0.051 C 
ATOM     30  C   UNL     1      34.176 -15.341 -23.807  0.00  0.00    -0.044 C 
ATOM     31  C   UNL     1      33.394 -13.269 -24.774  0.00  0.00    +0.014 C 
ATOM     32  C   UNL     1      34.245 -13.302 -22.513  0.00  0.00    +0.014 C 
ATOM     33  C   UNL     1      33.631 -14.640 -24.883  0.00  0.00    -0.005 C 
ATOM     34  C   UNL     1      34.482 -14.672 -22.622  0.00  0.00    -0.005 C 
BRANCH  30  35
ATOM     35  C   UNL     1      34.429 -16.806 -23.924  0.00  0.00    -0.059 C 
BRANCH  35  36
ATOM     36  N   UNL     1      35.554 -17.232 -23.130  0.00  0.00    +0.383 N 
ATOM     37  H   UNL     1      36.131 -16.425 -22.896  0.00  0.00    -0.089 HD
ATOM     38  H   UNL     1      36.108 -17.905 -23.660  0.00  0.00    -0.089 HD
ATOM     39  H   UNL     1      35.217 -17.670 -22.273  0.00  0.00    -0.089 HD
ENDBRANCH  35  36
ENDBRANCH  30  35
ENDBRANCH  26  29
ENDBRANCH   4  27
TORSDOF 6
ENDMDL
