MODEL 1
REMARK VINA RESULT:     -11.5      0.000      0.000
REMARK  Name = 6450813
REMARK  4 active torsions:
REMARK  status: ('A' for Active; 'I' for Inactive)
REMARK    1  A    between atoms: C_4  and  C_10
REMARK    2  A    between atoms: C_6  and  C_22
REMARK    3  A    between atoms: C_12  and  N_17
REMARK    4  A    between atoms: C_22  and  C_24
REMARK                            x       y       z     vdW  Elec       q    Type
REMARK                         _______ _______ _______ _____ _____    ______ ____
ROOT
ATOM      1  N   UNL     1      34.605 -15.958 -22.434  0.00  0.00    -0.191 N 
ATOM      2  N   UNL     1      34.743 -15.436 -21.183  0.00  0.00    -0.179 NA
ATOM      3  N   UNL     1      33.915 -15.278 -24.643  0.00  0.00    -0.231 NA
ATOM      4  C   UNL     1      34.862 -17.274 -22.854  0.00  0.00    +0.143 C 
ATOM      5  C   UNL     1      34.139 -14.991 -23.330  0.00  0.00    +0.141 C 
ATOM      6  C   UNL     1      33.992 -13.827 -22.609  0.00  0.00    +0.161 C 
ATOM      7  C   UNL     1      34.654 -17.601 -24.141  0.00  0.00    +0.020 C 
ATOM      8  C   UNL     1      34.375 -14.161 -21.305  0.00  0.00    +0.106 C 
ATOM      9  C   UNL     1      34.158 -16.500 -25.004  0.00  0.00    +0.097 C 
ENDROOT
BRANCH   4  10
ATOM     10  C   UNL     1      35.367 -18.301 -21.924  0.00  0.00    +0.003 C 
ATOM     11  C   UNL     1      34.474 -19.158 -21.278  0.00  0.00    +0.013 C 
ATOM     12  C   UNL     1      34.951 -20.129 -20.399  0.00  0.00    +0.054 C 
ATOM     13  C   UNL     1      36.736 -18.418 -21.691  0.00  0.00    -0.002 C 
ATOM     14  C   UNL     1      36.322 -20.245 -20.165  0.00  0.00    +0.015 C 
ATOM     15  C   UNL     1      37.215 -19.389 -20.811  0.00  0.00    +0.001 C 
BRANCH  12  17
ATOM     16  O   UNL     1      35.650 -22.196 -18.496  0.00  0.00    -0.275 OA
ATOM     17  N   UNL     1      34.059 -20.985 -19.751  0.00  0.00    -0.257 N 
ATOM     18  C   UNL     1      32.596 -20.812 -20.003  0.00  0.00    +0.120 C 
ATOM     19  C   UNL     1      34.473 -21.967 -18.786  0.00  0.00    +0.230 C 
ATOM     20  C   UNL     1      33.402 -22.742 -18.053  0.00  0.00    +0.095 C 
ENDBRANCH  12  17
ENDBRANCH   4  10
BRANCH   6  22
ATOM     21  O   UNL     1      33.909 -12.136 -24.230  0.00  0.00    -0.290 OA
ATOM     22  C   UNL     1      33.537 -12.571 -23.123  0.00  0.00    +0.191 C 
BRANCH  22  24
ATOM     23  S   UNL     1      32.592 -10.106 -22.509  0.00  0.00    -0.084 S 
ATOM     24  C   UNL     1      32.593 -11.779 -22.298  0.00  0.00    +0.065 C 
ATOM     25  C   UNL     1      31.724 -12.248 -21.388  0.00  0.00    +0.010 C 
ATOM     26  C   UNL     1      30.991 -11.174 -20.807  0.00  0.00    +0.008 C 
ATOM     27  C   UNL     1      31.363  -9.953 -21.326  0.00  0.00    +0.036 C 
ENDBRANCH  22  24
ENDBRANCH   6  22
TORSDOF 4
ENDMDL
MODEL 2
REMARK VINA RESULT:     -10.9      4.810     10.182
REMARK  Name = 6450813
REMARK  4 active torsions:
REMARK  status: ('A' for Active; 'I' for Inactive)
REMARK    1  A    between atoms: C_4  and  C_10
REMARK    2  A    between atoms: C_6  and  C_22
REMARK    3  A    between atoms: C_12  and  N_17
REMARK    4  A    between atoms: C_22  and  C_24
REMARK                            x       y       z     vdW  Elec       q    Type
REMARK                         _______ _______ _______ _____ _____    ______ ____
ROOT
ATOM      1  N   UNL     1      35.640 -21.554 -18.162  0.00  0.00    -0.191 N 
ATOM      2  N   UNL     1      36.875 -21.182 -17.723  0.00  0.00    -0.179 NA
ATOM      3  N   UNL     1      33.798 -22.959 -17.490  0.00  0.00    -0.231 NA
ATOM      4  C   UNL     1      34.988 -21.160 -19.343  0.00  0.00    +0.143 C 
ATOM      5  C   UNL     1      35.038 -22.440 -17.264  0.00  0.00    +0.141 C 
ATOM      6  C   UNL     1      35.928 -22.616 -16.229  0.00  0.00    +0.161 C 
ATOM      7  C   UNL     1      33.764 -21.649 -19.606  0.00  0.00    +0.020 C 
ATOM      8  C   UNL     1      37.031 -21.823 -16.566  0.00  0.00    +0.106 C 
ATOM      9  C   UNL     1      33.219 -22.581 -18.588  0.00  0.00    +0.097 C 
ENDROOT
BRANCH   4  10
ATOM     10  C   UNL     1      35.605 -20.216 -20.292  0.00  0.00    +0.003 C 
ATOM     11  C   UNL     1      34.842 -19.662 -21.321  0.00  0.00    +0.013 C 
ATOM     12  C   UNL     1      35.425 -18.768 -22.219  0.00  0.00    +0.054 C 
ATOM     13  C   UNL     1      36.951 -19.876 -20.162  0.00  0.00    -0.002 C 
ATOM     14  C   UNL     1      36.772 -18.429 -22.089  0.00  0.00    +0.015 C 
ATOM     15  C   UNL     1      37.535 -18.983 -21.060  0.00  0.00    +0.001 C 
BRANCH  12  17
ATOM     16  O   UNL     1      35.295 -15.963 -22.924  0.00  0.00    -0.275 OA
ATOM     17  N   UNL     1      34.664 -18.214 -23.249  0.00  0.00    -0.257 N 
ATOM     18  C   UNL     1      33.868 -19.133 -24.120  0.00  0.00    +0.120 C 
ATOM     19  C   UNL     1      34.675 -16.813 -23.569  0.00  0.00    +0.230 C 
ATOM     20  C   UNL     1      33.914 -16.353 -24.791  0.00  0.00    +0.095 C 
ENDBRANCH  12  17
ENDBRANCH   4  10
BRANCH   6  22
ATOM     21  O   UNL     1      34.725 -23.331 -14.348  0.00  0.00    -0.290 OA
ATOM     22  C   UNL     1      35.729 -23.444 -15.078  0.00  0.00    +0.191 C 
BRANCH  22  24
ATOM     23  S   UNL     1      36.277 -26.078 -14.753  0.00  0.00    -0.084 S 
ATOM     24  C   UNL     1      36.759 -24.462 -14.763  0.00  0.00    +0.065 C 
ATOM     25  C   UNL     1      38.054 -24.244 -14.481  0.00  0.00    +0.010 C 
ATOM     26  C   UNL     1      38.720 -25.478 -14.234  0.00  0.00    +0.008 C 
ATOM     27  C   UNL     1      37.871 -26.556 -14.349  0.00  0.00    +0.036 C 
ENDBRANCH  22  24
ENDBRANCH   6  22
TORSDOF 4
ENDMDL
MODEL 3
REMARK VINA RESULT:     -10.5      3.243      8.852
REMARK  Name = 6450813
REMARK  4 active torsions:
REMARK  status: ('A' for Active; 'I' for Inactive)
REMARK    1  A    between atoms: C_4  and  C_10
REMARK    2  A    between atoms: C_6  and  C_22
REMARK    3  A    between atoms: C_12  and  N_17
REMARK    4  A    between atoms: C_22  and  C_24
REMARK                            x       y       z     vdW  Elec       q    Type
REMARK                         _______ _______ _______ _____ _____    ______ ____
ROOT
ATOM      1  N   UNL     1      34.212 -15.238 -22.453  0.00  0.00    -0.191 N 
ATOM      2  N   UNL     1      34.396 -15.130 -21.108  0.00  0.00    -0.179 NA
ATOM      3  N   UNL     1      34.594 -16.813 -24.239  0.00  0.00    -0.231 NA
ATOM      4  C   UNL     1      33.660 -14.287 -23.329  0.00  0.00    +0.143 C 
ATOM      5  C   UNL     1      34.666 -16.474 -22.921  0.00  0.00    +0.141 C 
ATOM      6  C   UNL     1      35.141 -17.158 -21.825  0.00  0.00    +0.161 C 
ATOM      7  C   UNL     1      33.570 -14.580 -24.637  0.00  0.00    +0.020 C 
ATOM      8  C   UNL     1      34.950 -16.286 -20.747  0.00  0.00    +0.106 C 
ATOM      9  C   UNL     1      34.082 -15.918 -25.026  0.00  0.00    +0.097 C 
ENDROOT
BRANCH   4  10
ATOM     10  C   UNL     1      33.164 -12.985 -22.848  0.00  0.00    +0.003 C 
ATOM     11  C   UNL     1      33.737 -11.802 -23.318  0.00  0.00    +0.013 C 
ATOM     12  C   UNL     1      33.268 -10.570 -22.864  0.00  0.00    +0.054 C 
ATOM     13  C   UNL     1      32.121 -12.933 -21.923  0.00  0.00    -0.002 C 
ATOM     14  C   UNL     1      32.225 -10.519 -21.939  0.00  0.00    +0.015 C 
ATOM     15  C   UNL     1      31.652 -11.701 -21.468  0.00  0.00    +0.001 C 
BRANCH  12  17
ATOM     16  O   UNL     1      32.257  -7.894 -22.422  0.00  0.00    -0.275 OA
ATOM     17  N   UNL     1      33.841  -9.387 -23.333  0.00  0.00    -0.257 N 
ATOM     18  C   UNL     1      35.124  -9.471 -24.096  0.00  0.00    +0.120 C 
ATOM     19  C   UNL     1      33.305  -8.085 -23.043  0.00  0.00    +0.230 C 
ATOM     20  C   UNL     1      34.090  -6.874 -23.493  0.00  0.00    +0.095 C 
ENDBRANCH  12  17
ENDBRANCH   4  10
BRANCH   6  22
ATOM     21  O   UNL     1      36.709 -18.760 -22.512  0.00  0.00    -0.290 OA
ATOM     22  C   UNL     1      35.703 -18.475 -21.833  0.00  0.00    +0.191 C 
BRANCH  22  24
ATOM     23  S   UNL     1      36.061 -20.490 -20.056  0.00  0.00    -0.084 S 
ATOM     24  C   UNL     1      35.058 -19.516 -20.998  0.00  0.00    +0.065 C 
ATOM     25  C   UNL     1      33.743 -19.776 -20.902  0.00  0.00    +0.010 C 
ATOM     26  C   UNL     1      33.519 -20.851 -19.995  0.00  0.00    +0.008 C 
ATOM     27  C   UNL     1      34.694 -21.333 -19.463  0.00  0.00    +0.036 C 
ENDBRANCH  22  24
ENDBRANCH   6  22
TORSDOF 4
ENDMDL
MODEL 4
REMARK VINA RESULT:     -10.5      3.943      6.780
REMARK  Name = 6450813
REMARK  4 active torsions:
REMARK  status: ('A' for Active; 'I' for Inactive)
REMARK    1  A    between atoms: C_4  and  C_10
REMARK    2  A    between atoms: C_6  and  C_22
REMARK    3  A    between atoms: C_12  and  N_17
REMARK    4  A    between atoms: C_22  and  C_24
REMARK                            x       y       z     vdW  Elec       q    Type
REMARK                         _______ _______ _______ _____ _____    ______ ____
ROOT
ATOM      1  N   UNL     1      33.255  -9.974 -22.909  0.00  0.00    -0.191 N 
ATOM      2  N   UNL     1      32.170 -10.455 -22.240  0.00  0.00    -0.179 NA
ATOM      3  N   UNL     1      34.498  -7.922 -23.158  0.00  0.00    -0.231 NA
ATOM      4  C   UNL     1      34.090 -10.659 -23.808  0.00  0.00    +0.143 C 
ATOM      5  C   UNL     1      33.472  -8.627 -22.603  0.00  0.00    +0.141 C 
ATOM      6  C   UNL     1      32.492  -8.266 -21.706  0.00  0.00    +0.161 C 
ATOM      7  C   UNL     1      35.114 -10.001 -24.378  0.00  0.00    +0.020 C 
ATOM      8  C   UNL     1      31.727  -9.423 -21.524  0.00  0.00    +0.106 C 
ATOM      9  C   UNL     1      35.252  -8.577 -23.985  0.00  0.00    +0.097 C 
ENDROOT
BRANCH   4  10
ATOM     10  C   UNL     1      33.881 -12.082 -24.130  0.00  0.00    +0.003 C 
ATOM     11  C   UNL     1      34.219 -13.067 -23.200  0.00  0.00    +0.013 C 
ATOM     12  C   UNL     1      34.021 -14.413 -23.504  0.00  0.00    +0.054 C 
ATOM     13  C   UNL     1      33.345 -12.447 -25.365  0.00  0.00    -0.002 C 
ATOM     14  C   UNL     1      33.485 -14.776 -24.740  0.00  0.00    +0.015 C 
ATOM     15  C   UNL     1      33.147 -13.793 -25.671  0.00  0.00    +0.001 C 
BRANCH  12  17
ATOM     16  O   UNL     1      34.980 -17.075 -24.115  0.00  0.00    -0.275 OA
ATOM     17  N   UNL     1      34.359 -15.397 -22.575  0.00  0.00    -0.257 N 
ATOM     18  C   UNL     1      34.278 -15.062 -21.121  0.00  0.00    +0.120 C 
ATOM     19  C   UNL     1      34.867 -16.690 -22.949  0.00  0.00    +0.230 C 
ATOM     20  C   UNL     1      35.325 -17.621 -21.850  0.00  0.00    +0.095 C 
ENDBRANCH  12  17
ENDBRANCH   4  10
BRANCH   6  22
ATOM     21  O   UNL     1      32.593  -6.753 -19.918  0.00  0.00    -0.290 OA
ATOM     22  C   UNL     1      32.327  -6.972 -21.116  0.00  0.00    +0.191 C 
BRANCH  22  24
ATOM     23  S   UNL     1      30.386  -5.123 -21.516  0.00  0.00    -0.084 S 
ATOM     24  C   UNL     1      31.826  -5.871 -21.974  0.00  0.00    +0.065 C 
ATOM     25  C   UNL     1      32.396  -5.393 -23.092  0.00  0.00    +0.010 C 
ATOM     26  C   UNL     1      31.612  -4.333 -23.631  0.00  0.00    +0.008 C 
ATOM     27  C   UNL     1      30.490  -4.082 -22.872  0.00  0.00    +0.036 C 
ENDBRANCH  22  24
ENDBRANCH   6  22
TORSDOF 4
ENDMDL
MODEL 5
REMARK VINA RESULT:     -10.5      3.160      8.743
REMARK  Name = 6450813
REMARK  4 active torsions:
REMARK  status: ('A' for Active; 'I' for Inactive)
REMARK    1  A    between atoms: C_4  and  C_10
REMARK    2  A    between atoms: C_6  and  C_22
REMARK    3  A    between atoms: C_12  and  N_17
REMARK    4  A    between atoms: C_22  and  C_24
REMARK                            x       y       z     vdW  Elec       q    Type
REMARK                         _______ _______ _______ _____ _____    ______ ____
ROOT
ATOM      1  N   UNL     1      34.799 -16.143 -22.404  0.00  0.00    -0.191 N 
ATOM      2  N   UNL     1      35.128 -16.770 -23.568  0.00  0.00    -0.179 NA
ATOM      3  N   UNL     1      34.817 -16.553 -20.027  0.00  0.00    -0.231 NA
ATOM      4  C   UNL     1      34.250 -14.860 -22.239  0.00  0.00    +0.143 C 
ATOM      5  C   UNL     1      35.070 -16.960 -21.303  0.00  0.00    +0.141 C 
ATOM      6  C   UNL     1      35.593 -18.132 -21.803  0.00  0.00    +0.161 C 
ATOM      7  C   UNL     1      33.985 -14.418 -20.998  0.00  0.00    +0.020 C 
ATOM      8  C   UNL     1      35.603 -17.956 -23.191  0.00  0.00    +0.106 C 
ATOM      9  C   UNL     1      34.309 -15.366 -19.903  0.00  0.00    +0.097 C 
ENDROOT
BRANCH   4  10
ATOM     10  C   UNL     1      33.971 -13.981 -23.389  0.00  0.00    +0.003 C 
ATOM     11  C   UNL     1      34.317 -12.630 -23.337  0.00  0.00    +0.013 C 
ATOM     12  C   UNL     1      34.054 -11.799 -24.425  0.00  0.00    +0.054 C 
ATOM     13  C   UNL     1      33.362 -14.500 -24.531  0.00  0.00    -0.002 C 
ATOM     14  C   UNL     1      33.444 -12.318 -25.567  0.00  0.00    +0.015 C 
ATOM     15  C   UNL     1      33.098 -13.669 -25.621  0.00  0.00    +0.001 C 
BRANCH  12  17
ATOM     16  O   UNL     1      32.806  -9.783 -22.764  0.00  0.00    -0.275 OA
ATOM     17  N   UNL     1      34.399 -10.448 -24.373  0.00  0.00    -0.257 N 
ATOM     18  C   UNL     1      35.548  -9.974 -25.204  0.00  0.00    +0.120 C 
ATOM     19  C   UNL     1      33.760  -9.506 -23.495  0.00  0.00    +0.230 C 
ATOM     20  C   UNL     1      34.312  -8.101 -23.432  0.00  0.00    +0.095 C 
ENDBRANCH  12  17
ENDBRANCH   4  10
BRANCH   6  22
ATOM     21  O   UNL     1      37.224 -19.526 -20.858  0.00  0.00    -0.290 OA
ATOM     22  C   UNL     1      36.018 -19.261 -21.032  0.00  0.00    +0.191 C 
BRANCH  22  24
ATOM     23  S   UNL     1      35.494 -21.380 -19.426  0.00  0.00    -0.084 S 
ATOM     24  C   UNL     1      34.977 -20.127 -20.429  0.00  0.00    +0.065 C 
ATOM     25  C   UNL     1      33.647 -20.027 -20.591  0.00  0.00    +0.010 C 
ATOM     26  C   UNL     1      32.983 -21.043 -19.846  0.00  0.00    +0.008 C 
ATOM     27  C   UNL     1      33.868 -21.849 -19.166  0.00  0.00    +0.036 C 
ENDBRANCH  22  24
ENDBRANCH   6  22
TORSDOF 4
ENDMDL
MODEL 6
REMARK VINA RESULT:     -10.4      3.243      8.245
REMARK  Name = 6450813
REMARK  4 active torsions:
REMARK  status: ('A' for Active; 'I' for Inactive)
REMARK    1  A    between atoms: C_4  and  C_10
REMARK    2  A    between atoms: C_6  and  C_22
REMARK    3  A    between atoms: C_12  and  N_17
REMARK    4  A    between atoms: C_22  and  C_24
REMARK                            x       y       z     vdW  Elec       q    Type
REMARK                         _______ _______ _______ _____ _____    ______ ____
ROOT
ATOM      1  N   UNL     1      34.119 -14.314 -23.846  0.00  0.00    -0.191 N 
ATOM      2  N   UNL     1      34.596 -14.307 -22.570  0.00  0.00    -0.179 NA
ATOM      3  N   UNL     1      33.625 -15.880 -25.613  0.00  0.00    -0.231 NA
ATOM      4  C   UNL     1      33.723 -13.215 -24.627  0.00  0.00    +0.143 C 
ATOM      5  C   UNL     1      34.063 -15.617 -24.350  0.00  0.00    +0.141 C 
ATOM      6  C   UNL     1      34.514 -16.446 -23.347  0.00  0.00    +0.161 C 
ATOM      7  C   UNL     1      33.285 -13.429 -25.879  0.00  0.00    +0.020 C 
ATOM      8  C   UNL     1      34.825 -15.588 -22.286  0.00  0.00    +0.106 C 
ATOM      9  C   UNL     1      33.268 -14.848 -26.314  0.00  0.00    +0.097 C 
ENDROOT
BRANCH   4  10
ATOM     10  C   UNL     1      33.763 -11.837 -24.105  0.00  0.00    +0.003 C 
ATOM     11  C   UNL     1      32.914 -11.460 -23.063  0.00  0.00    +0.013 C 
ATOM     12  C   UNL     1      32.953 -10.157 -22.569  0.00  0.00    +0.054 C 
ATOM     13  C   UNL     1      34.650 -10.910 -24.651  0.00  0.00    -0.002 C 
ATOM     14  C   UNL     1      33.840  -9.229 -23.115  0.00  0.00    +0.015 C 
ATOM     15  C   UNL     1      34.689  -9.606 -24.157  0.00  0.00    +0.001 C 
BRANCH  12  17
ATOM     16  O   UNL     1      31.994 -11.870 -20.441  0.00  0.00    -0.275 OA
ATOM     17  N   UNL     1      32.104  -9.778 -21.528  0.00  0.00    -0.257 N 
ATOM     18  C   UNL     1      31.670  -8.350 -21.447  0.00  0.00    +0.120 C 
ATOM     19  C   UNL     1      31.696 -10.674 -20.480  0.00  0.00    +0.230 C 
ATOM     20  C   UNL     1      30.885 -10.111 -19.335  0.00  0.00    +0.095 C 
ENDBRANCH  12  17
ENDBRANCH   4  10
BRANCH   6  22
ATOM     21  O   UNL     1      34.169 -18.522 -24.378  0.00  0.00    -0.290 OA
ATOM     22  C   UNL     1      34.627 -17.871 -23.419  0.00  0.00    +0.191 C 
BRANCH  22  24
ATOM     23  S   UNL     1      34.391 -19.596 -21.342  0.00  0.00    -0.084 S 
ATOM     24  C   UNL     1      35.318 -18.574 -22.312  0.00  0.00    +0.065 C 
ATOM     25  C   UNL     1      36.619 -18.491 -21.986  0.00  0.00    +0.010 C 
ATOM     26  C   UNL     1      36.899 -19.317 -20.861  0.00  0.00    +0.008 C 
ATOM     27  C   UNL     1      35.777 -19.975 -20.410  0.00  0.00    +0.036 C 
ENDBRANCH  22  24
ENDBRANCH   6  22
TORSDOF 4
ENDMDL
MODEL 7
REMARK VINA RESULT:     -10.4      3.365      8.547
REMARK  Name = 6450813
REMARK  4 active torsions:
REMARK  status: ('A' for Active; 'I' for Inactive)
REMARK    1  A    between atoms: C_4  and  C_10
REMARK    2  A    between atoms: C_6  and  C_22
REMARK    3  A    between atoms: C_12  and  N_17
REMARK    4  A    between atoms: C_22  and  C_24
REMARK                            x       y       z     vdW  Elec       q    Type
REMARK                         _______ _______ _______ _____ _____    ______ ____
ROOT
ATOM      1  N   UNL     1      34.999 -19.506 -21.231  0.00  0.00    -0.191 N 
ATOM      2  N   UNL     1      33.730 -19.997 -21.149  0.00  0.00    -0.179 NA
ATOM      3  N   UNL     1      37.132 -19.735 -20.128  0.00  0.00    -0.231 NA
ATOM      4  C   UNL     1      35.500 -18.552 -22.132  0.00  0.00    +0.143 C 
ATOM      5  C   UNL     1      35.818 -20.076 -20.252  0.00  0.00    +0.141 C 
ATOM      6  C   UNL     1      35.031 -20.957 -19.546  0.00  0.00    +0.161 C 
ATOM      7  C   UNL     1      36.790 -18.186 -22.046  0.00  0.00    +0.020 C 
ATOM      8  C   UNL     1      33.767 -20.864 -20.139  0.00  0.00    +0.106 C 
ATOM      9  C   UNL     1      37.569 -18.852 -20.972  0.00  0.00    +0.097 C 
ENDROOT
BRANCH   4  10
ATOM     10  C   UNL     1      34.651 -17.952 -23.178  0.00  0.00    +0.003 C 
ATOM     11  C   UNL     1      34.541 -16.564 -23.278  0.00  0.00    +0.013 C 
ATOM     12  C   UNL     1      33.739 -15.996 -24.267  0.00  0.00    +0.054 C 
ATOM     13  C   UNL     1      33.959 -18.771 -24.070  0.00  0.00    -0.002 C 
ATOM     14  C   UNL     1      33.046 -16.816 -25.158  0.00  0.00    +0.015 C 
ATOM     15  C   UNL     1      33.156 -18.204 -25.060  0.00  0.00    +0.001 C 
BRANCH  12  17
ATOM     16  O   UNL     1      34.250 -14.089 -22.151  0.00  0.00    -0.275 OA
ATOM     17  N   UNL     1      33.626 -14.609 -24.366  0.00  0.00    -0.257 N 
ATOM     18  C   UNL     1      33.258 -14.017 -25.689  0.00  0.00    +0.120 C 
ATOM     19  C   UNL     1      33.934 -13.715 -23.283  0.00  0.00    +0.230 C 
ATOM     20  C   UNL     1      33.904 -12.229 -23.553  0.00  0.00    +0.095 C 
ENDBRANCH  12  17
ENDBRANCH   4  10
BRANCH   6  22
ATOM     21  O   UNL     1      36.660 -21.967 -18.196  0.00  0.00    -0.290 OA
ATOM     22  C   UNL     1      35.454 -21.769 -18.446  0.00  0.00    +0.191 C 
BRANCH  22  24
ATOM     23  S   UNL     1      34.884 -22.933 -16.065  0.00  0.00    -0.084 S 
ATOM     24  C   UNL     1      34.413 -22.383 -17.588  0.00  0.00    +0.065 C 
ATOM     25  C   UNL     1      33.114 -22.553 -17.888  0.00  0.00    +0.010 C 
ATOM     26  C   UNL     1      32.436 -23.180 -16.803  0.00  0.00    +0.008 C 
ATOM     27  C   UNL     1      33.280 -23.442 -15.747  0.00  0.00    +0.036 C 
ENDBRANCH  22  24
ENDBRANCH   6  22
TORSDOF 4
ENDMDL
MODEL 8
REMARK VINA RESULT:     -10.3      5.719      9.360
REMARK  Name = 6450813
REMARK  4 active torsions:
REMARK  status: ('A' for Active; 'I' for Inactive)
REMARK    1  A    between atoms: C_4  and  C_10
REMARK    2  A    between atoms: C_6  and  C_22
REMARK    3  A    between atoms: C_12  and  N_17
REMARK    4  A    between atoms: C_22  and  C_24
REMARK                            x       y       z     vdW  Elec       q    Type
REMARK                         _______ _______ _______ _____ _____    ______ ____
ROOT
ATOM      1  N   UNL     1      33.743 -22.909 -16.724  0.00  0.00    -0.191 N 
ATOM      2  N   UNL     1      32.758 -22.792 -17.658  0.00  0.00    -0.179 NA
ATOM      3  N   UNL     1      36.102 -22.471 -16.477  0.00  0.00    -0.231 NA
ATOM      4  C   UNL     1      33.640 -23.419 -15.419  0.00  0.00    +0.143 C 
ATOM      5  C   UNL     1      34.963 -22.448 -17.226  0.00  0.00    +0.141 C 
ATOM      6  C   UNL     1      34.723 -22.022 -18.513  0.00  0.00    +0.161 C 
ATOM      7  C   UNL     1      34.738 -23.461 -14.646  0.00  0.00    +0.020 C 
ATOM      8  C   UNL     1      33.359 -22.258 -18.720  0.00  0.00    +0.106 C 
ATOM      9  C   UNL     1      35.980 -22.948 -15.277  0.00  0.00    +0.097 C 
ENDROOT
BRANCH   4  10
ATOM     10  C   UNL     1      32.357 -23.897 -14.871  0.00  0.00    +0.003 C 
ATOM     11  C   UNL     1      31.159 -23.569 -15.508  0.00  0.00    +0.013 C 
ATOM     12  C   UNL     1      29.946 -24.021 -14.991  0.00  0.00    +0.054 C 
ATOM     13  C   UNL     1      32.339 -24.678 -13.716  0.00  0.00    -0.002 C 
ATOM     14  C   UNL     1      29.929 -24.801 -13.835  0.00  0.00    +0.015 C 
ATOM     15  C   UNL     1      31.126 -25.130 -13.197  0.00  0.00    +0.001 C 
BRANCH  12  17
ATOM     16  O   UNL     1      28.310 -21.695 -14.449  0.00  0.00    -0.275 OA
ATOM     17  N   UNL     1      28.748 -23.692 -15.627  0.00  0.00    -0.257 N 
ATOM     18  C   UNL     1      28.262 -24.576 -16.731  0.00  0.00    +0.120 C 
ATOM     19  C   UNL     1      28.004 -22.498 -15.334  0.00  0.00    +0.230 C 
ATOM     20  C   UNL     1      26.794 -22.184 -16.183  0.00  0.00    +0.095 C 
ENDBRANCH  12  17
ENDBRANCH   4  10
BRANCH   6  22
ATOM     21  O   UNL     1      36.866 -21.881 -19.452  0.00  0.00    -0.290 OA
ATOM     22  C   UNL     1      35.690 -21.468 -19.411  0.00  0.00    +0.191 C 
BRANCH  22  24
ATOM     23  S   UNL     1      36.407 -19.211 -20.728  0.00  0.00    -0.084 S 
ATOM     24  C   UNL     1      35.259 -20.374 -20.314  0.00  0.00    +0.065 C 
ATOM     25  C   UNL     1      34.040 -20.201 -20.851  0.00  0.00    +0.010 C 
ATOM     26  C   UNL     1      34.022 -19.032 -21.664  0.00  0.00    +0.008 C 
ATOM     27  C   UNL     1      35.244 -18.398 -21.686  0.00  0.00    +0.036 C 
ENDBRANCH  22  24
ENDBRANCH   6  22
TORSDOF 4
ENDMDL
MODEL 9
REMARK VINA RESULT:     -10.2      3.720      5.948
REMARK  Name = 6450813
REMARK  4 active torsions:
REMARK  status: ('A' for Active; 'I' for Inactive)
REMARK    1  A    between atoms: C_4  and  C_10
REMARK    2  A    between atoms: C_6  and  C_22
REMARK    3  A    between atoms: C_12  and  N_17
REMARK    4  A    between atoms: C_22  and  C_24
REMARK                            x       y       z     vdW  Elec       q    Type
REMARK                         _______ _______ _______ _____ _____    ______ ____
ROOT
ATOM      1  N   UNL     1      33.454 -11.262 -23.270  0.00  0.00    -0.191 N 
ATOM      2  N   UNL     1      34.410 -10.950 -24.191  0.00  0.00    -0.179 NA
ATOM      3  N   UNL     1      32.112 -10.186 -21.580  0.00  0.00    -0.231 NA
ATOM      4  C   UNL     1      32.898 -12.522 -22.995  0.00  0.00    +0.143 C 
ATOM      5  C   UNL     1      33.055 -10.125 -22.562  0.00  0.00    +0.141 C 
ATOM      6  C   UNL     1      33.782  -9.071 -23.068  0.00  0.00    +0.161 C 
ATOM      7  C   UNL     1      31.965 -12.628 -22.033  0.00  0.00    +0.020 C 
ATOM      8  C   UNL     1      34.592  -9.637 -24.059  0.00  0.00    +0.106 C 
ATOM      9  C   UNL     1      31.616 -11.361 -21.344  0.00  0.00    +0.097 C 
ENDROOT
BRANCH   4  10
ATOM     10  C   UNL     1      33.300 -13.728 -23.742  0.00  0.00    +0.003 C 
ATOM     11  C   UNL     1      33.775 -14.848 -23.059  0.00  0.00    +0.013 C 
ATOM     12  C   UNL     1      34.155 -15.988 -23.765  0.00  0.00    +0.054 C 
ATOM     13  C   UNL     1      33.205 -13.750 -25.133  0.00  0.00    -0.002 C 
ATOM     14  C   UNL     1      34.060 -16.010 -25.157  0.00  0.00    +0.015 C 
ATOM     15  C   UNL     1      33.586 -14.890 -25.842  0.00  0.00    +0.001 C 
BRANCH  12  17
ATOM     16  O   UNL     1      33.469 -18.745 -24.325  0.00  0.00    -0.275 OA
ATOM     17  N   UNL     1      34.630 -17.109 -23.082  0.00  0.00    -0.257 N 
ATOM     18  C   UNL     1      35.626 -16.905 -21.986  0.00  0.00    +0.120 C 
ATOM     19  C   UNL     1      34.277 -18.456 -23.439  0.00  0.00    +0.230 C 
ATOM     20  C   UNL     1      34.962 -19.590 -22.712  0.00  0.00    +0.095 C 
ENDBRANCH  12  17
ENDBRANCH   4  10
BRANCH   6  22
ATOM     21  O   UNL     1      33.561  -7.398 -21.441  0.00  0.00    -0.290 OA
ATOM     22  C   UNL     1      33.698  -7.707 -22.641  0.00  0.00    +0.191 C 
BRANCH  22  24
ATOM     23  S   UNL     1      32.384  -5.755 -23.986  0.00  0.00    -0.084 S 
ATOM     24  C   UNL     1      33.781  -6.645 -23.672  0.00  0.00    +0.065 C 
ATOM     25  C   UNL     1      34.859  -6.303 -24.397  0.00  0.00    +0.010 C 
ATOM     26  C   UNL     1      34.539  -5.235 -25.282  0.00  0.00    +0.008 C 
ATOM     27  C   UNL     1      33.226  -4.839 -25.163  0.00  0.00    +0.036 C 
ENDBRANCH  22  24
ENDBRANCH   6  22
TORSDOF 4
ENDMDL
