MODEL 1
REMARK VINA RESULT:     -12.2      0.000      0.000
REMARK  Name = 51049992
REMARK  10 active torsions:
REMARK  status: ('A' for Active; 'I' for Inactive)
REMARK    1  A    between atoms: C_1  and  C_7
REMARK    2  A    between atoms: C_6  and  C_23
REMARK    3  A    between atoms: C_7  and  N_8
REMARK    4  A    between atoms: C_23  and  O_24
REMARK    5  A    between atoms: O_24  and  C_25
REMARK    6  A    between atoms: C_26  and  C_31
REMARK    7  A    between atoms: C_31  and  C_32
REMARK    8  A    between atoms: C_31  and  C_35
REMARK    9  A    between atoms: C_35  and  C_37
REMARK   10  A    between atoms: C_37  and  O_38
REMARK                            x       y       z     vdW  Elec       q    Type
REMARK                         _______ _______ _______ _____ _____    ______ ____
ROOT
ATOM      1  C   UNL     1      33.783 -13.635 -23.121  0.00  0.00    -0.043 C 
ATOM      2  C   UNL     1      33.826 -12.397 -23.763  0.00  0.00    -0.007 C 
ATOM      3  C   UNL     1      32.995 -13.801 -21.981  0.00  0.00    -0.007 C 
ATOM      4  C   UNL     1      33.082 -11.327 -23.267  0.00  0.00    -0.001 C 
ATOM      5  C   UNL     1      32.251 -12.731 -21.485  0.00  0.00    -0.001 C 
ATOM      6  C   UNL     1      32.295 -11.494 -22.128  0.00  0.00    +0.021 C 
ENDROOT
BRANCH   1   7
ATOM      7  C   UNL     1      34.586 -14.789 -23.657  0.00  0.00    -0.050 C 
BRANCH   7   8
ATOM      8  N   UNL     1      34.357 -16.014 -22.891  0.00  0.00    +0.390 N 
ATOM      9  C   UNL     1      35.132 -18.444 -21.413  0.00  0.00    +0.033 C 
ATOM     10  C   UNL     1      34.666 -17.154 -20.714  0.00  0.00    -0.015 C 
ATOM     11  C   UNL     1      34.598 -18.479 -22.857  0.00  0.00    -0.015 C 
ATOM     12  C   UNL     1      34.886 -17.179 -23.614  0.00  0.00    -0.076 C 
ATOM     13  C   UNL     1      34.952 -15.903 -21.553  0.00  0.00    -0.076 C 
ATOM     14  C   UNL     1      34.732 -19.681 -20.636  0.00  0.00    -0.019 C 
ATOM     15  C   UNL     1      36.652 -18.589 -21.373  0.00  0.00    -0.023 C 
ATOM     16  C   UNL     1      35.881 -20.383 -20.240  0.00  0.00    -0.004 C 
ATOM     17  C   UNL     1      37.060 -19.683 -20.711  0.00  0.00    -0.005 C 
ATOM     18  C   UNL     1      33.469 -20.146 -20.306  0.00  0.00    -0.004 C 
ATOM     19  C   UNL     1      35.792 -21.557 -19.511  0.00  0.00    -0.000 C 
ATOM     20  C   UNL     1      33.368 -21.330 -19.571  0.00  0.00    -0.000 C 
ATOM     21  C   UNL     1      34.520 -22.030 -19.177  0.00  0.00    -0.000 C 
ATOM     22  H   UNL     1      33.353 -16.147 -22.777  0.00  0.00    -0.079 HD
ENDBRANCH   7   8
ENDBRANCH   1   7
BRANCH   6  23
ATOM     23  C   UNL     1      31.497 -10.351 -21.599  0.00  0.00    +0.232 C 
BRANCH  23  24
ATOM     24  O   UNL     1      32.376  -9.360 -21.080  0.00  0.00    -0.471 OA
BRANCH  24  25
ATOM     25  C   UNL     1      32.356  -8.135 -21.694  0.00  0.00    +0.139 C 
ATOM     26  C   UNL     1      32.316  -5.640 -22.941  0.00  0.00    -0.010 C 
ATOM     27  C   UNL     1      33.530  -7.603 -22.228  0.00  0.00    +0.037 C 
ATOM     28  C   UNL     1      31.163  -7.419 -21.783  0.00  0.00    +0.037 C 
ATOM     29  C   UNL     1      33.510  -6.356 -22.852  0.00  0.00    -0.000 C 
ATOM     30  C   UNL     1      31.143  -6.171 -22.407  0.00  0.00    -0.000 C 
BRANCH  26  31
ATOM     31  C   UNL     1      32.294  -4.306 -23.608  0.00  0.00    +0.097 C 
BRANCH  31  32
ATOM     32  C   UNL     1      32.859  -4.370 -24.984  0.00  0.00    -0.087 C 
ATOM     33  C   UNL     1      33.327  -4.433 -26.089  0.00  0.00    -0.090 C 
ATOM     34  C   UNL     1      33.898  -4.508 -27.432  0.00  0.00    +0.090 C 
ENDBRANCH  31  32
BRANCH  31  35
ATOM     35  C   UNL     1      30.869  -3.690 -23.647  0.00  0.00    +0.127 C 
BRANCH  35  37
ATOM     36  O   UNL     1      29.633  -2.189 -22.171  0.00  0.00    -0.250 OA
ATOM     37  C   UNL     1      30.680  -2.506 -22.718  0.00  0.00    +0.315 C 
BRANCH  37  38
ATOM     38  O   UNL     1      31.843  -1.824 -22.544  0.00  0.00    -0.480 OA
ATOM     39  H   UNL     1      32.470  -1.784 -23.237  0.00  0.00    +0.295 HD
ENDBRANCH  37  38
ENDBRANCH  35  37
ENDBRANCH  31  35
ENDBRANCH  26  31
ENDBRANCH  24  25
ENDBRANCH  23  24
ENDBRANCH   6  23
TORSDOF 10
ENDMDL
MODEL 2
REMARK VINA RESULT:     -12.2      6.046     14.544
REMARK  Name = 51049992
REMARK  10 active torsions:
REMARK  status: ('A' for Active; 'I' for Inactive)
REMARK    1  A    between atoms: C_1  and  C_7
REMARK    2  A    between atoms: C_6  and  C_23
REMARK    3  A    between atoms: C_7  and  N_8
REMARK    4  A    between atoms: C_23  and  O_24
REMARK    5  A    between atoms: O_24  and  C_25
REMARK    6  A    between atoms: C_26  and  C_31
REMARK    7  A    between atoms: C_31  and  C_32
REMARK    8  A    between atoms: C_31  and  C_35
REMARK    9  A    between atoms: C_35  and  C_37
REMARK   10  A    between atoms: C_37  and  O_38
REMARK                            x       y       z     vdW  Elec       q    Type
REMARK                         _______ _______ _______ _____ _____    ______ ____
ROOT
ATOM      1  C   UNL     1      35.192 -18.182 -22.658  0.00  0.00    -0.043 C 
ATOM      2  C   UNL     1      34.198 -19.031 -22.171  0.00  0.00    -0.007 C 
ATOM      3  C   UNL     1      36.480 -18.240 -22.126  0.00  0.00    -0.007 C 
ATOM      4  C   UNL     1      34.492 -19.937 -21.152  0.00  0.00    -0.001 C 
ATOM      5  C   UNL     1      36.774 -19.146 -21.108  0.00  0.00    -0.001 C 
ATOM      6  C   UNL     1      35.780 -19.995 -20.621  0.00  0.00    +0.021 C 
ENDROOT
BRANCH   1   7
ATOM      7  C   UNL     1      34.874 -17.204 -23.757  0.00  0.00    -0.050 C 
BRANCH   7   8
ATOM      8  N   UNL     1      34.142 -16.040 -23.256  0.00  0.00    +0.390 N 
ATOM      9  C   UNL     1      33.473 -13.178 -23.035  0.00  0.00    +0.033 C 
ATOM     10  C   UNL     1      32.618 -14.177 -23.837  0.00  0.00    -0.015 C 
ATOM     11  C   UNL     1      34.294 -13.929 -21.971  0.00  0.00    -0.015 C 
ATOM     12  C   UNL     1      35.054 -15.123 -22.558  0.00  0.00    -0.076 C 
ATOM     13  C   UNL     1      33.441 -15.362 -24.354  0.00  0.00    -0.076 C 
ATOM     14  C   UNL     1      32.628 -12.080 -22.423  0.00  0.00    -0.019 C 
ATOM     15  C   UNL     1      34.368 -12.343 -23.949  0.00  0.00    -0.023 C 
ATOM     16  C   UNL     1      33.022 -10.837 -22.940  0.00  0.00    -0.004 C 
ATOM     17  C   UNL     1      34.104 -11.029 -23.886  0.00  0.00    -0.005 C 
ATOM     18  C   UNL     1      31.604 -12.168 -21.493  0.00  0.00    -0.004 C 
ATOM     19  C   UNL     1      32.405  -9.663 -22.542  0.00  0.00    -0.000 C 
ATOM     20  C   UNL     1      30.975 -10.990 -21.085  0.00  0.00    -0.000 C 
ATOM     21  C   UNL     1      31.372  -9.747 -21.605  0.00  0.00    -0.000 C 
ATOM     22  H   UNL     1      33.443 -16.356 -22.586  0.00  0.00    -0.079 HD
ENDBRANCH   7   8
ENDBRANCH   1   7
BRANCH   6  23
ATOM     23  C   UNL     1      36.095 -20.966 -19.534  0.00  0.00    +0.232 C 
BRANCH  23  24
ATOM     24  O   UNL     1      35.073 -21.954 -19.471  0.00  0.00    -0.471 OA
BRANCH  24  25
ATOM     25  C   UNL     1      34.678 -22.355 -18.223  0.00  0.00    +0.139 C 
ATOM     26  C   UNL     1      33.873 -23.168 -15.678  0.00  0.00    -0.010 C 
ATOM     27  C   UNL     1      33.360 -22.755 -18.002  0.00  0.00    +0.037 C 
ATOM     28  C   UNL     1      35.593 -22.361 -17.170  0.00  0.00    +0.037 C 
ATOM     29  C   UNL     1      32.958 -23.162 -16.730  0.00  0.00    -0.000 C 
ATOM     30  C   UNL     1      35.190 -22.767 -15.898  0.00  0.00    -0.000 C 
BRANCH  26  31
ATOM     31  C   UNL     1      33.443 -23.603 -14.318  0.00  0.00    +0.097 C 
BRANCH  31  32
ATOM     32  C   UNL     1      32.050 -24.128 -14.323  0.00  0.00    -0.087 C 
ATOM     33  C   UNL     1      30.927 -24.556 -14.310  0.00  0.00    -0.090 C 
ATOM     34  C   UNL     1      29.563 -25.080 -14.294  0.00  0.00    +0.090 C 
ENDBRANCH  31  32
BRANCH  31  35
ATOM     35  C   UNL     1      34.405 -24.657 -13.704  0.00  0.00    +0.127 C 
BRANCH  35  37
ATOM     36  O   UNL     1      34.769 -24.931 -11.306  0.00  0.00    -0.250 OA
ATOM     37  C   UNL     1      34.936 -24.287 -12.332  0.00  0.00    +0.315 C 
BRANCH  37  38
ATOM     38  O   UNL     1      35.652 -23.133 -12.375  0.00  0.00    -0.480 OA
ATOM     39  H   UNL     1      36.212 -22.903 -11.661  0.00  0.00    +0.295 HD
ENDBRANCH  37  38
ENDBRANCH  35  37
ENDBRANCH  31  35
ENDBRANCH  26  31
ENDBRANCH  24  25
ENDBRANCH  23  24
ENDBRANCH   6  23
TORSDOF 10
ENDMDL
MODEL 3
REMARK VINA RESULT:     -12.0      6.012     14.493
REMARK  Name = 51049992
REMARK  10 active torsions:
REMARK  status: ('A' for Active; 'I' for Inactive)
REMARK    1  A    between atoms: C_1  and  C_7
REMARK    2  A    between atoms: C_6  and  C_23
REMARK    3  A    between atoms: C_7  and  N_8
REMARK    4  A    between atoms: C_23  and  O_24
REMARK    5  A    between atoms: O_24  and  C_25
REMARK    6  A    between atoms: C_26  and  C_31
REMARK    7  A    between atoms: C_31  and  C_32
REMARK    8  A    between atoms: C_31  and  C_35
REMARK    9  A    between atoms: C_35  and  C_37
REMARK   10  A    between atoms: C_37  and  O_38
REMARK                            x       y       z     vdW  Elec       q    Type
REMARK                         _______ _______ _______ _____ _____    ______ ____
ROOT
ATOM      1  C   UNL     1      35.185 -18.145 -22.659  0.00  0.00    -0.043 C 
ATOM      2  C   UNL     1      34.193 -19.027 -22.231  0.00  0.00    -0.007 C 
ATOM      3  C   UNL     1      36.450 -18.180 -22.071  0.00  0.00    -0.007 C 
ATOM      4  C   UNL     1      34.465 -19.944 -21.216  0.00  0.00    -0.001 C 
ATOM      5  C   UNL     1      36.722 -19.097 -21.056  0.00  0.00    -0.001 C 
ATOM      6  C   UNL     1      35.730 -19.979 -20.629  0.00  0.00    +0.021 C 
ENDROOT
BRANCH   1   7
ATOM      7  C   UNL     1      34.890 -17.156 -23.755  0.00  0.00    -0.050 C 
BRANCH   7   8
ATOM      8  N   UNL     1      34.148 -15.997 -23.257  0.00  0.00    +0.390 N 
ATOM      9  C   UNL     1      33.463 -13.139 -23.033  0.00  0.00    +0.033 C 
ATOM     10  C   UNL     1      32.621 -14.139 -23.847  0.00  0.00    -0.015 C 
ATOM     11  C   UNL     1      34.277 -13.890 -21.963  0.00  0.00    -0.015 C 
ATOM     12  C   UNL     1      35.048 -15.078 -22.547  0.00  0.00    -0.076 C 
ATOM     13  C   UNL     1      33.455 -15.318 -24.360  0.00  0.00    -0.076 C 
ATOM     14  C   UNL     1      32.607 -12.047 -22.426  0.00  0.00    -0.019 C 
ATOM     15  C   UNL     1      34.364 -12.297 -23.935  0.00  0.00    -0.023 C 
ATOM     16  C   UNL     1      33.001 -10.800 -22.935  0.00  0.00    -0.004 C 
ATOM     17  C   UNL     1      34.093 -10.984 -23.870  0.00  0.00    -0.005 C 
ATOM     18  C   UNL     1      31.574 -12.143 -21.507  0.00  0.00    -0.004 C 
ATOM     19  C   UNL     1      32.374  -9.630 -22.539  0.00  0.00    -0.000 C 
ATOM     20  C   UNL     1      30.935 -10.969 -21.101  0.00  0.00    -0.000 C 
ATOM     21  C   UNL     1      31.332  -9.723 -21.613  0.00  0.00    -0.000 C 
ATOM     22  H   UNL     1      33.443 -16.319 -22.595  0.00  0.00    -0.079 HD
ENDBRANCH   7   8
ENDBRANCH   1   7
BRANCH   6  23
ATOM     23  C   UNL     1      36.022 -20.961 -19.545  0.00  0.00    +0.232 C 
BRANCH  23  24
ATOM     24  O   UNL     1      34.921 -21.851 -19.404  0.00  0.00    -0.471 OA
BRANCH  24  25
ATOM     25  C   UNL     1      34.689 -22.351 -18.151  0.00  0.00    +0.139 C 
ATOM     26  C   UNL     1      34.216 -23.373 -15.598  0.00  0.00    -0.010 C 
ATOM     27  C   UNL     1      35.707 -22.346 -17.197  0.00  0.00    +0.037 C 
ATOM     28  C   UNL     1      33.434 -22.869 -17.827  0.00  0.00    +0.037 C 
ATOM     29  C   UNL     1      35.470 -22.856 -15.920  0.00  0.00    -0.000 C 
ATOM     30  C   UNL     1      33.198 -23.380 -16.551  0.00  0.00    -0.000 C 
BRANCH  26  31
ATOM     31  C   UNL     1      33.962 -23.919 -14.233  0.00  0.00    +0.097 C 
BRANCH  31  32
ATOM     32  C   UNL     1      35.092 -23.632 -13.307  0.00  0.00    -0.087 C 
ATOM     33  C   UNL     1      35.992 -23.394 -12.547  0.00  0.00    -0.090 C 
ATOM     34  C   UNL     1      37.087 -23.102 -11.624  0.00  0.00    +0.090 C 
ENDBRANCH  31  32
BRANCH  31  35
ATOM     35  C   UNL     1      32.632 -23.396 -13.627  0.00  0.00    +0.127 C 
BRANCH  35  37
ATOM     36  O   UNL     1      30.669 -24.315 -12.504  0.00  0.00    -0.250 OA
ATOM     37  C   UNL     1      31.704 -24.489 -13.132  0.00  0.00    +0.315 C 
BRANCH  37  38
ATOM     38  O   UNL     1      32.157 -25.720 -13.487  0.00  0.00    -0.480 OA
ATOM     39  H   UNL     1      31.644 -26.480 -13.299  0.00  0.00    +0.295 HD
ENDBRANCH  37  38
ENDBRANCH  35  37
ENDBRANCH  31  35
ENDBRANCH  26  31
ENDBRANCH  24  25
ENDBRANCH  23  24
ENDBRANCH   6  23
TORSDOF 10
ENDMDL
MODEL 4
REMARK VINA RESULT:     -11.9      5.975     14.892
REMARK  Name = 51049992
REMARK  10 active torsions:
REMARK  status: ('A' for Active; 'I' for Inactive)
REMARK    1  A    between atoms: C_1  and  C_7
REMARK    2  A    between atoms: C_6  and  C_23
REMARK    3  A    between atoms: C_7  and  N_8
REMARK    4  A    between atoms: C_23  and  O_24
REMARK    5  A    between atoms: O_24  and  C_25
REMARK    6  A    between atoms: C_26  and  C_31
REMARK    7  A    between atoms: C_31  and  C_32
REMARK    8  A    between atoms: C_31  and  C_35
REMARK    9  A    between atoms: C_35  and  C_37
REMARK   10  A    between atoms: C_37  and  O_38
REMARK                            x       y       z     vdW  Elec       q    Type
REMARK                         _______ _______ _______ _____ _____    ______ ____
ROOT
ATOM      1  C   UNL     1      35.290 -18.265 -22.605  0.00  0.00    -0.043 C 
ATOM      2  C   UNL     1      34.373 -19.172 -22.071  0.00  0.00    -0.007 C 
ATOM      3  C   UNL     1      36.593 -18.218 -22.108  0.00  0.00    -0.007 C 
ATOM      4  C   UNL     1      34.760 -20.031 -21.043  0.00  0.00    -0.001 C 
ATOM      5  C   UNL     1      36.979 -19.077 -21.080  0.00  0.00    -0.001 C 
ATOM      6  C   UNL     1      36.063 -19.984 -20.547  0.00  0.00    +0.021 C 
ENDROOT
BRANCH   1   7
ATOM      7  C   UNL     1      34.872 -17.338 -23.714  0.00  0.00    -0.050 C 
BRANCH   7   8
ATOM      8  N   UNL     1      34.148 -16.172 -23.206  0.00  0.00    +0.390 N 
ATOM      9  C   UNL     1      33.477 -13.310 -22.992  0.00  0.00    +0.033 C 
ATOM     10  C   UNL     1      32.608 -14.316 -23.768  0.00  0.00    -0.015 C 
ATOM     11  C   UNL     1      34.323 -14.050 -21.940  0.00  0.00    -0.015 C 
ATOM     12  C   UNL     1      35.072 -15.247 -22.535  0.00  0.00    -0.076 C 
ATOM     13  C   UNL     1      33.422 -15.504 -24.293  0.00  0.00    -0.076 C 
ATOM     14  C   UNL     1      32.643 -12.209 -22.370  0.00  0.00    -0.019 C 
ATOM     15  C   UNL     1      34.350 -12.480 -23.932  0.00  0.00    -0.023 C 
ATOM     16  C   UNL     1      33.023 -10.969 -22.906  0.00  0.00    -0.004 C 
ATOM     17  C   UNL     1      34.085 -11.165 -23.873  0.00  0.00    -0.005 C 
ATOM     18  C   UNL     1      31.639 -12.292 -21.418  0.00  0.00    -0.004 C 
ATOM     19  C   UNL     1      32.411  -9.793 -22.503  0.00  0.00    -0.000 C 
ATOM     20  C   UNL     1      31.016 -11.112 -21.006  0.00  0.00    -0.000 C 
ATOM     21  C   UNL     1      31.399  -9.872 -21.544  0.00  0.00    -0.000 C 
ATOM     22  H   UNL     1      33.464 -16.484 -22.518  0.00  0.00    -0.079 HD
ENDBRANCH   7   8
ENDBRANCH   1   7
BRANCH   6  23
ATOM     23  C   UNL     1      36.477 -20.904 -19.450  0.00  0.00    +0.232 C 
BRANCH  23  24
ATOM     24  O   UNL     1      35.335 -21.274 -18.686  0.00  0.00    -0.471 OA
BRANCH  24  25
ATOM     25  C   UNL     1      35.564 -21.994 -17.543  0.00  0.00    +0.139 C 
ATOM     26  C   UNL     1      36.030 -23.462 -15.217  0.00  0.00    -0.010 C 
ATOM     27  C   UNL     1      36.830 -21.990 -16.958  0.00  0.00    +0.037 C 
ATOM     28  C   UNL     1      34.531 -22.732 -16.965  0.00  0.00    +0.037 C 
ATOM     29  C   UNL     1      37.063 -22.724 -15.794  0.00  0.00    -0.000 C 
ATOM     30  C   UNL     1      34.764 -23.466 -15.803  0.00  0.00    -0.000 C 
BRANCH  26  31
ATOM     31  C   UNL     1      36.278 -24.247 -13.974  0.00  0.00    +0.097 C 
BRANCH  31  32
ATOM     32  C   UNL     1      37.642 -24.843 -13.963  0.00  0.00    -0.087 C 
ATOM     33  C   UNL     1      38.745 -25.322 -13.971  0.00  0.00    -0.090 C 
ATOM     34  C   UNL     1      40.084 -25.907 -13.983  0.00  0.00    +0.090 C 
ENDBRANCH  31  32
BRANCH  31  35
ATOM     35  C   UNL     1      36.057 -23.403 -12.689  0.00  0.00    +0.127 C 
BRANCH  35  37
ATOM     36  O   UNL     1      34.961 -24.984 -11.187  0.00  0.00    -0.250 OA
ATOM     37  C   UNL     1      35.890 -24.226 -11.427  0.00  0.00    +0.315 C 
BRANCH  37  38
ATOM     38  O   UNL     1      36.928 -24.033 -10.571  0.00  0.00    -0.480 OA
ATOM     39  H   UNL     1      37.120 -24.673  -9.915  0.00  0.00    +0.295 HD
ENDBRANCH  37  38
ENDBRANCH  35  37
ENDBRANCH  31  35
ENDBRANCH  26  31
ENDBRANCH  24  25
ENDBRANCH  23  24
ENDBRANCH   6  23
TORSDOF 10
ENDMDL
MODEL 5
REMARK VINA RESULT:     -11.8      3.878     13.590
REMARK  Name = 51049992
REMARK  10 active torsions:
REMARK  status: ('A' for Active; 'I' for Inactive)
REMARK    1  A    between atoms: C_1  and  C_7
REMARK    2  A    between atoms: C_6  and  C_23
REMARK    3  A    between atoms: C_7  and  N_8
REMARK    4  A    between atoms: C_23  and  O_24
REMARK    5  A    between atoms: O_24  and  C_25
REMARK    6  A    between atoms: C_26  and  C_31
REMARK    7  A    between atoms: C_31  and  C_32
REMARK    8  A    between atoms: C_31  and  C_35
REMARK    9  A    between atoms: C_35  and  C_37
REMARK   10  A    between atoms: C_37  and  O_38
REMARK                            x       y       z     vdW  Elec       q    Type
REMARK                         _______ _______ _______ _____ _____    ______ ____
ROOT
ATOM      1  C   UNL     1      32.559 -11.740 -21.870  0.00  0.00    -0.043 C 
ATOM      2  C   UNL     1      33.219 -11.570 -23.087  0.00  0.00    -0.007 C 
ATOM      3  C   UNL     1      32.445 -13.013 -21.311  0.00  0.00    -0.007 C 
ATOM      4  C   UNL     1      33.765 -12.672 -23.744  0.00  0.00    -0.001 C 
ATOM      5  C   UNL     1      32.990 -14.115 -21.969  0.00  0.00    -0.001 C 
ATOM      6  C   UNL     1      33.651 -13.945 -23.185  0.00  0.00    +0.021 C 
ENDROOT
BRANCH   1   7
ATOM      7  C   UNL     1      31.970 -10.550 -21.161  0.00  0.00    -0.050 C 
BRANCH   7   8
ATOM      8  N   UNL     1      32.142  -9.317 -21.930  0.00  0.00    +0.390 N 
ATOM      9  C   UNL     1      31.690  -6.482 -22.600  0.00  0.00    +0.033 C 
ATOM     10  C   UNL     1      32.965  -6.982 -21.895  0.00  0.00    -0.015 C 
ATOM     11  C   UNL     1      31.034  -7.639 -23.376  0.00  0.00    -0.015 C 
ATOM     12  C   UNL     1      30.861  -8.894 -22.513  0.00  0.00    -0.076 C 
ATOM     13  C   UNL     1      32.719  -8.262 -21.088  0.00  0.00    -0.076 C 
ATOM     14  C   UNL     1      31.972  -5.293 -23.494  0.00  0.00    -0.019 C 
ATOM     15  C   UNL     1      30.715  -5.844 -21.612  0.00  0.00    -0.023 C 
ATOM     16  C   UNL     1      31.245  -4.180 -23.043  0.00  0.00    -0.004 C 
ATOM     17  C   UNL     1      30.474  -4.550 -21.873  0.00  0.00    -0.005 C 
ATOM     18  C   UNL     1      32.794  -5.199 -24.606  0.00  0.00    -0.004 C 
ATOM     19  C   UNL     1      31.326  -2.958 -23.690  0.00  0.00    -0.000 C 
ATOM     20  C   UNL     1      32.881  -3.970 -25.265  0.00  0.00    -0.000 C 
ATOM     21  C   UNL     1      32.153  -2.859 -24.811  0.00  0.00    -0.000 C 
ATOM     22  H   UNL     1      32.790  -9.496 -22.696  0.00  0.00    -0.079 HD
ENDBRANCH   7   8
ENDBRANCH   1   7
BRANCH   6  23
ATOM     23  C   UNL     1      34.237 -15.123 -23.886  0.00  0.00    +0.232 C 
BRANCH  23  24
ATOM     24  O   UNL     1      35.317 -15.641 -23.119  0.00  0.00    -0.471 OA
BRANCH  24  25
ATOM     25  C   UNL     1      35.129 -16.865 -22.535  0.00  0.00    +0.139 C 
ATOM     26  C   UNL     1      34.741 -19.359 -21.346  0.00  0.00    -0.010 C 
ATOM     27  C   UNL     1      34.757 -17.961 -23.315  0.00  0.00    +0.037 C 
ATOM     28  C   UNL     1      35.306 -17.018 -21.160  0.00  0.00    +0.037 C 
ATOM     29  C   UNL     1      34.564 -19.207 -22.721  0.00  0.00    -0.000 C 
ATOM     30  C   UNL     1      35.112 -18.264 -20.565  0.00  0.00    -0.000 C 
BRANCH  26  31
ATOM     31  C   UNL     1      34.534 -20.692 -20.709  0.00  0.00    +0.097 C 
BRANCH  31  32
ATOM     32  C   UNL     1      35.529 -20.946 -19.631  0.00  0.00    -0.087 C 
ATOM     33  C   UNL     1      36.320 -21.162 -18.752  0.00  0.00    -0.090 C 
ATOM     34  C   UNL     1      37.280 -21.422 -17.682  0.00  0.00    +0.090 C 
ENDBRANCH  31  32
BRANCH  31  35
ATOM     35  C   UNL     1      33.094 -20.864 -20.155  0.00  0.00    +0.127 C 
BRANCH  35  37
ATOM     36  O   UNL     1      33.374 -23.153 -19.356  0.00  0.00    -0.250 OA
ATOM     37  C   UNL     1      32.935 -22.024 -19.191  0.00  0.00    +0.315 C 
BRANCH  37  38
ATOM     38  O   UNL     1      32.240 -21.653 -18.084  0.00  0.00    -0.480 OA
ATOM     39  H   UNL     1      31.447 -22.096 -17.858  0.00  0.00    +0.295 HD
ENDBRANCH  37  38
ENDBRANCH  35  37
ENDBRANCH  31  35
ENDBRANCH  26  31
ENDBRANCH  24  25
ENDBRANCH  23  24
ENDBRANCH   6  23
TORSDOF 10
ENDMDL
MODEL 6
REMARK VINA RESULT:     -11.4      4.808      9.226
REMARK  Name = 51049992
REMARK  10 active torsions:
REMARK  status: ('A' for Active; 'I' for Inactive)
REMARK    1  A    between atoms: C_1  and  C_7
REMARK    2  A    between atoms: C_6  and  C_23
REMARK    3  A    between atoms: C_7  and  N_8
REMARK    4  A    between atoms: C_23  and  O_24
REMARK    5  A    between atoms: O_24  and  C_25
REMARK    6  A    between atoms: C_26  and  C_31
REMARK    7  A    between atoms: C_31  and  C_32
REMARK    8  A    between atoms: C_31  and  C_35
REMARK    9  A    between atoms: C_35  and  C_37
REMARK   10  A    between atoms: C_37  and  O_38
REMARK                            x       y       z     vdW  Elec       q    Type
REMARK                         _______ _______ _______ _____ _____    ______ ____
ROOT
ATOM      1  C   UNL     1      33.494 -21.819 -18.722  0.00  0.00    -0.043 C 
ATOM      2  C   UNL     1      34.873 -21.850 -18.931  0.00  0.00    -0.007 C 
ATOM      3  C   UNL     1      32.690 -20.981 -19.496  0.00  0.00    -0.007 C 
ATOM      4  C   UNL     1      35.447 -21.044 -19.913  0.00  0.00    -0.001 C 
ATOM      5  C   UNL     1      33.265 -20.175 -20.478  0.00  0.00    -0.001 C 
ATOM      6  C   UNL     1      34.644 -20.207 -20.687  0.00  0.00    +0.021 C 
ENDROOT
BRANCH   1   7
ATOM      7  C   UNL     1      32.874 -22.689 -17.662  0.00  0.00    -0.050 C 
BRANCH   7   8
ATOM      8  N   UNL     1      33.720 -22.783 -16.471  0.00  0.00    +0.390 N 
ATOM      9  C   UNL     1      35.526 -24.109 -14.557  0.00  0.00    +0.033 C 
ATOM     10  C   UNL     1      36.021 -23.110 -15.618  0.00  0.00    -0.015 C 
ATOM     11  C   UNL     1      34.033 -23.869 -14.268  0.00  0.00    -0.015 C 
ATOM     12  C   UNL     1      33.197 -23.801 -15.549  0.00  0.00    -0.076 C 
ATOM     13  C   UNL     1      35.109 -23.071 -16.850  0.00  0.00    -0.076 C 
ATOM     14  C   UNL     1      36.361 -24.048 -13.294  0.00  0.00    -0.019 C 
ATOM     15  C   UNL     1      35.791 -25.555 -14.977  0.00  0.00    -0.023 C 
ATOM     16  C   UNL     1      36.980 -25.289 -13.077  0.00  0.00    -0.004 C 
ATOM     17  C   UNL     1      36.609 -26.206 -14.137  0.00  0.00    -0.005 C 
ATOM     18  C   UNL     1      36.558 -22.994 -12.416  0.00  0.00    -0.004 C 
ATOM     19  C   UNL     1      37.804 -25.500 -11.984  0.00  0.00    -0.000 C 
ATOM     20  C   UNL     1      37.387 -23.198 -11.310  0.00  0.00    -0.000 C 
ATOM     21  C   UNL     1      38.005 -24.440 -11.096  0.00  0.00    -0.000 C 
ATOM     22  H   UNL     1      33.706 -21.886 -15.988  0.00  0.00    -0.079 HD
ENDBRANCH   7   8
ENDBRANCH   1   7
BRANCH   6  23
ATOM     23  C   UNL     1      35.258 -19.347 -21.739  0.00  0.00    +0.232 C 
BRANCH  23  24
ATOM     24  O   UNL     1      35.812 -18.184 -21.136  0.00  0.00    -0.471 OA
BRANCH  24  25
ATOM     25  C   UNL     1      35.258 -16.982 -21.488  0.00  0.00    +0.139 C 
ATOM     26  C   UNL     1      34.132 -14.532 -22.204  0.00  0.00    -0.010 C 
ATOM     27  C   UNL     1      35.190 -16.611 -22.831  0.00  0.00    +0.037 C 
ATOM     28  C   UNL     1      34.764 -16.126 -20.503  0.00  0.00    +0.037 C 
ATOM     29  C   UNL     1      34.626 -15.387 -23.189  0.00  0.00    -0.000 C 
ATOM     30  C   UNL     1      34.201 -14.901 -20.861  0.00  0.00    -0.000 C 
BRANCH  26  31
ATOM     31  C   UNL     1      33.530 -13.222 -22.587  0.00  0.00    +0.097 C 
BRANCH  31  32
ATOM     32  C   UNL     1      33.467 -13.056 -24.065  0.00  0.00    -0.087 C 
ATOM     33  C   UNL     1      33.399 -12.921 -25.257  0.00  0.00    -0.090 C 
ATOM     34  C   UNL     1      33.316 -12.760 -26.707  0.00  0.00    +0.090 C 
ENDBRANCH  31  32
BRANCH  31  35
ATOM     35  C   UNL     1      32.120 -13.019 -21.969  0.00  0.00    +0.127 C 
BRANCH  35  37
ATOM     36  O   UNL     1      31.788 -10.610 -21.761  0.00  0.00    -0.250 OA
ATOM     37  C   UNL     1      31.947 -11.703 -21.236  0.00  0.00    +0.315 C 
BRANCH  37  38
ATOM     38  O   UNL     1      31.977 -11.881 -19.889  0.00  0.00    -0.480 OA
ATOM     39  H   UNL     1      31.499 -12.585 -19.499  0.00  0.00    +0.295 HD
ENDBRANCH  37  38
ENDBRANCH  35  37
ENDBRANCH  31  35
ENDBRANCH  26  31
ENDBRANCH  24  25
ENDBRANCH  23  24
ENDBRANCH   6  23
TORSDOF 10
ENDMDL
MODEL 7
REMARK VINA RESULT:     -11.3      4.898      9.206
REMARK  Name = 51049992
REMARK  10 active torsions:
REMARK  status: ('A' for Active; 'I' for Inactive)
REMARK    1  A    between atoms: C_1  and  C_7
REMARK    2  A    between atoms: C_6  and  C_23
REMARK    3  A    between atoms: C_7  and  N_8
REMARK    4  A    between atoms: C_23  and  O_24
REMARK    5  A    between atoms: O_24  and  C_25
REMARK    6  A    between atoms: C_26  and  C_31
REMARK    7  A    between atoms: C_31  and  C_32
REMARK    8  A    between atoms: C_31  and  C_35
REMARK    9  A    between atoms: C_35  and  C_37
REMARK   10  A    between atoms: C_37  and  O_38
REMARK                            x       y       z     vdW  Elec       q    Type
REMARK                         _______ _______ _______ _____ _____    ______ ____
ROOT
ATOM      1  C   UNL     1      33.647 -21.730 -18.885  0.00  0.00    -0.043 C 
ATOM      2  C   UNL     1      35.028 -21.621 -19.048  0.00  0.00    -0.007 C 
ATOM      3  C   UNL     1      32.791 -20.937 -19.650  0.00  0.00    -0.007 C 
ATOM      4  C   UNL     1      35.553 -20.719 -19.974  0.00  0.00    -0.001 C 
ATOM      5  C   UNL     1      33.315 -20.035 -20.575  0.00  0.00    -0.001 C 
ATOM      6  C   UNL     1      34.696 -19.926 -20.737  0.00  0.00    +0.021 C 
ENDROOT
BRANCH   1   7
ATOM      7  C   UNL     1      33.082 -22.703 -17.886  0.00  0.00    -0.050 C 
BRANCH   7   8
ATOM      8  N   UNL     1      33.893 -22.768 -16.670  0.00  0.00    +0.390 N 
ATOM      9  C   UNL     1      35.628 -24.052 -14.662  0.00  0.00    +0.033 C 
ATOM     10  C   UNL     1      36.165 -23.095 -15.742  0.00  0.00    -0.015 C 
ATOM     11  C   UNL     1      34.131 -23.782 -14.423  0.00  0.00    -0.015 C 
ATOM     12  C   UNL     1      33.331 -23.747 -15.730  0.00  0.00    -0.076 C 
ATOM     13  C   UNL     1      35.288 -23.086 -16.999  0.00  0.00    -0.076 C 
ATOM     14  C   UNL     1      36.428 -23.959 -13.380  0.00  0.00    -0.019 C 
ATOM     15  C   UNL     1      35.884 -25.513 -15.027  0.00  0.00    -0.023 C 
ATOM     16  C   UNL     1      37.024 -25.199 -13.104  0.00  0.00    -0.004 C 
ATOM     17  C   UNL     1      36.670 -26.146 -14.142  0.00  0.00    -0.005 C 
ATOM     18  C   UNL     1      36.614 -22.878 -12.532  0.00  0.00    -0.004 C 
ATOM     19  C   UNL     1      37.814 -25.384 -11.981  0.00  0.00    -0.000 C 
ATOM     20  C   UNL     1      37.410 -23.055 -11.397  0.00  0.00    -0.000 C 
ATOM     21  C   UNL     1      38.005 -24.297 -11.124  0.00  0.00    -0.000 C 
ATOM     22  H   UNL     1      33.878 -21.855 -16.217  0.00  0.00    -0.079 HD
ENDBRANCH   7   8
ENDBRANCH   1   7
BRANCH   6  23
ATOM     23  C   UNL     1      35.257 -18.964 -21.729  0.00  0.00    +0.232 C 
BRANCH  23  24
ATOM     24  O   UNL     1      35.597 -17.750 -21.071  0.00  0.00    -0.471 OA
BRANCH  24  25
ATOM     25  C   UNL     1      35.009 -16.606 -21.542  0.00  0.00    +0.139 C 
ATOM     26  C   UNL     1      33.815 -14.275 -22.503  0.00  0.00    -0.010 C 
ATOM     27  C   UNL     1      34.884 -16.401 -22.916  0.00  0.00    +0.037 C 
ATOM     28  C   UNL     1      34.537 -15.645 -20.648  0.00  0.00    +0.037 C 
ATOM     29  C   UNL     1      34.287 -15.236 -23.396  0.00  0.00    -0.000 C 
ATOM     30  C   UNL     1      33.940 -14.479 -21.129  0.00  0.00    -0.000 C 
BRANCH  26  31
ATOM     31  C   UNL     1      33.175 -13.029 -23.015  0.00  0.00    +0.097 C 
BRANCH  31  32
ATOM     32  C   UNL     1      32.354 -12.362 -21.968  0.00  0.00    -0.087 C 
ATOM     33  C   UNL     1      31.704 -11.812 -21.120  0.00  0.00    -0.090 C 
ATOM     34  C   UNL     1      30.915 -11.144 -20.087  0.00  0.00    +0.090 C 
ENDBRANCH  31  32
BRANCH  31  35
ATOM     35  C   UNL     1      34.213 -12.029 -23.594  0.00  0.00    +0.127 C 
BRANCH  35  37
ATOM     36  O   UNL     1      33.418 -12.491 -25.854  0.00  0.00    -0.250 OA
ATOM     37  C   UNL     1      34.122 -11.841 -25.096  0.00  0.00    +0.315 C 
BRANCH  37  38
ATOM     38  O   UNL     1      34.927 -10.828 -25.515  0.00  0.00    -0.480 OA
ATOM     39  H   UNL     1      34.570  -9.975 -25.658  0.00  0.00    +0.295 HD
ENDBRANCH  37  38
ENDBRANCH  35  37
ENDBRANCH  31  35
ENDBRANCH  26  31
ENDBRANCH  24  25
ENDBRANCH  23  24
ENDBRANCH   6  23
TORSDOF 10
ENDMDL
MODEL 8
REMARK VINA RESULT:     -11.2      1.744      2.411
REMARK  Name = 51049992
REMARK  10 active torsions:
REMARK  status: ('A' for Active; 'I' for Inactive)
REMARK    1  A    between atoms: C_1  and  C_7
REMARK    2  A    between atoms: C_6  and  C_23
REMARK    3  A    between atoms: C_7  and  N_8
REMARK    4  A    between atoms: C_23  and  O_24
REMARK    5  A    between atoms: O_24  and  C_25
REMARK    6  A    between atoms: C_26  and  C_31
REMARK    7  A    between atoms: C_31  and  C_32
REMARK    8  A    between atoms: C_31  and  C_35
REMARK    9  A    between atoms: C_35  and  C_37
REMARK   10  A    between atoms: C_37  and  O_38
REMARK                            x       y       z     vdW  Elec       q    Type
REMARK                         _______ _______ _______ _____ _____    ______ ____
ROOT
ATOM      1  C   UNL     1      33.876 -13.874 -23.423  0.00  0.00    -0.043 C 
ATOM      2  C   UNL     1      33.941 -12.672 -24.128  0.00  0.00    -0.007 C 
ATOM      3  C   UNL     1      33.183 -13.936 -22.213  0.00  0.00    -0.007 C 
ATOM      4  C   UNL     1      33.313 -11.533 -23.624  0.00  0.00    -0.001 C 
ATOM      5  C   UNL     1      32.555 -12.796 -21.710  0.00  0.00    -0.001 C 
ATOM      6  C   UNL     1      32.621 -11.595 -22.415  0.00  0.00    +0.021 C 
ENDROOT
BRANCH   1   7
ATOM      7  C   UNL     1      34.553 -15.103 -23.967  0.00  0.00    -0.050 C 
BRANCH   7   8
ATOM      8  N   UNL     1      34.327 -16.271 -23.115  0.00  0.00    +0.390 N 
ATOM      9  C   UNL     1      35.108 -18.591 -21.473  0.00  0.00    +0.033 C 
ATOM     10  C   UNL     1      34.645 -17.255 -20.865  0.00  0.00    -0.015 C 
ATOM     11  C   UNL     1      34.570 -18.727 -22.909  0.00  0.00    -0.015 C 
ATOM     12  C   UNL     1      34.854 -17.483 -23.757  0.00  0.00    -0.076 C 
ATOM     13  C   UNL     1      34.927 -16.066 -21.791  0.00  0.00    -0.076 C 
ATOM     14  C   UNL     1      34.712 -19.770 -20.608  0.00  0.00    -0.019 C 
ATOM     15  C   UNL     1      36.629 -18.732 -21.428  0.00  0.00    -0.023 C 
ATOM     16  C   UNL     1      35.862 -20.441 -20.168  0.00  0.00    -0.004 C 
ATOM     17  C   UNL     1      37.039 -19.776 -20.691  0.00  0.00    -0.005 C 
ATOM     18  C   UNL     1      33.450 -20.211 -20.242  0.00  0.00    -0.004 C 
ATOM     19  C   UNL     1      35.777 -21.561 -19.358  0.00  0.00    -0.000 C 
ATOM     20  C   UNL     1      33.353 -21.340 -19.425  0.00  0.00    -0.000 C 
ATOM     21  C   UNL     1      34.506 -22.009 -18.986  0.00  0.00    -0.000 C 
ATOM     22  H   UNL     1      33.323 -16.396 -22.989  0.00  0.00    -0.079 HD
ENDBRANCH   7   8
ENDBRANCH   1   7
BRANCH   6  23
ATOM     23  C   UNL     1      31.947 -10.378 -21.878  0.00  0.00    +0.232 C 
BRANCH  23  24
ATOM     24  O   UNL     1      32.918  -9.364 -21.646  0.00  0.00    -0.471 OA
BRANCH  24  25
ATOM     25  C   UNL     1      32.899  -8.287 -22.492  0.00  0.00    +0.139 C 
ATOM     26  C   UNL     1      32.861  -6.091 -24.212  0.00  0.00    -0.010 C 
ATOM     27  C   UNL     1      34.060  -7.541 -22.698  0.00  0.00    +0.037 C 
ATOM     28  C   UNL     1      31.719  -7.934 -23.146  0.00  0.00    +0.037 C 
ATOM     29  C   UNL     1      34.041  -6.443 -23.558  0.00  0.00    -0.000 C 
ATOM     30  C   UNL     1      31.700  -6.836 -24.006  0.00  0.00    -0.000 C 
BRANCH  26  31
ATOM     31  C   UNL     1      32.840  -4.917 -25.133  0.00  0.00    +0.097 C 
BRANCH  31  32
ATOM     32  C   UNL     1      32.058  -3.786 -24.563  0.00  0.00    -0.087 C 
ATOM     33  C   UNL     1      31.415  -2.884 -24.097  0.00  0.00    -0.090 C 
ATOM     34  C   UNL     1      30.631  -1.787 -23.532  0.00  0.00    +0.090 C 
ENDBRANCH  31  32
BRANCH  31  35
ATOM     35  C   UNL     1      34.267  -4.439 -25.512  0.00  0.00    +0.127 C 
BRANCH  35  37
ATOM     36  O   UNL     1      33.766  -4.412 -27.901  0.00  0.00    -0.250 OA
ATOM     37  C   UNL     1      34.578  -4.527 -26.994  0.00  0.00    +0.315 C 
BRANCH  37  38
ATOM     38  O   UNL     1      35.903  -4.742 -27.208  0.00  0.00    -0.480 OA
ATOM     39  H   UNL     1      36.540  -4.285 -26.698  0.00  0.00    +0.295 HD
ENDBRANCH  37  38
ENDBRANCH  35  37
ENDBRANCH  31  35
ENDBRANCH  26  31
ENDBRANCH  24  25
ENDBRANCH  23  24
ENDBRANCH   6  23
TORSDOF 10
ENDMDL
MODEL 9
REMARK VINA RESULT:     -11.0      4.917     13.850
REMARK  Name = 51049992
REMARK  10 active torsions:
REMARK  status: ('A' for Active; 'I' for Inactive)
REMARK    1  A    between atoms: C_1  and  C_7
REMARK    2  A    between atoms: C_6  and  C_23
REMARK    3  A    between atoms: C_7  and  N_8
REMARK    4  A    between atoms: C_23  and  O_24
REMARK    5  A    between atoms: O_24  and  C_25
REMARK    6  A    between atoms: C_26  and  C_31
REMARK    7  A    between atoms: C_31  and  C_32
REMARK    8  A    between atoms: C_31  and  C_35
REMARK    9  A    between atoms: C_35  and  C_37
REMARK   10  A    between atoms: C_37  and  O_38
REMARK                            x       y       z     vdW  Elec       q    Type
REMARK                         _______ _______ _______ _____ _____    ______ ____
ROOT
ATOM      1  C   UNL     1      34.075 -14.527 -23.260  0.00  0.00    -0.043 C 
ATOM      2  C   UNL     1      34.441 -15.697 -23.925  0.00  0.00    -0.007 C 
ATOM      3  C   UNL     1      34.160 -14.461 -21.868  0.00  0.00    -0.007 C 
ATOM      4  C   UNL     1      34.892 -16.800 -23.200  0.00  0.00    -0.001 C 
ATOM      5  C   UNL     1      34.611 -15.564 -21.144  0.00  0.00    -0.001 C 
ATOM      6  C   UNL     1      34.977 -16.733 -21.810  0.00  0.00    +0.021 C 
ENDROOT
BRANCH   1   7
ATOM      7  C   UNL     1      33.588 -13.337 -24.042  0.00  0.00    -0.050 C 
BRANCH   7   8
ATOM      8  N   UNL     1      33.457 -12.148 -23.200  0.00  0.00    +0.390 N 
ATOM      9  C   UNL     1      32.417  -9.498 -22.435  0.00  0.00    +0.033 C 
ATOM     10  C   UNL     1      31.936 -10.805 -21.780  0.00  0.00    -0.015 C 
ATOM     11  C   UNL     1      33.815  -9.702 -23.046  0.00  0.00    -0.015 C 
ATOM     12  C   UNL     1      33.886 -10.949 -23.933  0.00  0.00    -0.076 C 
ATOM     13  C   UNL     1      32.077 -12.011 -22.716  0.00  0.00    -0.076 C 
ATOM     14  C   UNL     1      32.392  -8.338 -21.462  0.00  0.00    -0.019 C 
ATOM     15  C   UNL     1      31.419  -8.990 -23.476  0.00  0.00    -0.023 C 
ATOM     16  C   UNL     1      31.505  -7.353 -21.923  0.00  0.00    -0.004 C 
ATOM     17  C   UNL     1      30.915  -7.784 -23.175  0.00  0.00    -0.005 C 
ATOM     18  C   UNL     1      33.087  -8.166 -20.276  0.00  0.00    -0.004 C 
ATOM     19  C   UNL     1      31.296  -6.183 -21.212  0.00  0.00    -0.000 C 
ATOM     20  C   UNL     1      32.884  -6.988 -19.552  0.00  0.00    -0.000 C 
ATOM     21  C   UNL     1      31.996  -6.005 -20.016  0.00  0.00    -0.000 C 
ATOM     22  H   UNL     1      34.065 -12.252 -22.388  0.00  0.00    -0.079 HD
ENDBRANCH   7   8
ENDBRANCH   1   7
BRANCH   6  23
ATOM     23  C   UNL     1      35.462 -17.911 -21.035  0.00  0.00    +0.232 C 
BRANCH  23  24
ATOM     24  O   UNL     1      34.796 -19.084 -21.490  0.00  0.00    -0.471 OA
BRANCH  24  25
ATOM     25  C   UNL     1      34.484 -20.023 -20.543  0.00  0.00    +0.139 C 
ATOM     26  C   UNL     1      33.849 -21.934 -18.612  0.00  0.00    -0.010 C 
ATOM     27  C   UNL     1      33.150 -20.274 -20.221  0.00  0.00    +0.037 C 
ATOM     28  C   UNL     1      35.501 -20.728 -19.898  0.00  0.00    +0.037 C 
ATOM     29  C   UNL     1      32.833 -21.229 -19.256  0.00  0.00    -0.000 C 
ATOM     30  C   UNL     1      35.183 -21.683 -18.932  0.00  0.00    -0.000 C 
BRANCH  26  31
ATOM     31  C   UNL     1      33.511 -22.956 -17.579  0.00  0.00    +0.097 C 
BRANCH  31  32
ATOM     32  C   UNL     1      34.560 -23.042 -16.527  0.00  0.00    -0.087 C 
ATOM     33  C   UNL     1      35.395 -23.118 -15.665  0.00  0.00    -0.090 C 
ATOM     34  C   UNL     1      36.409 -23.207 -14.617  0.00  0.00    +0.090 C 
ENDBRANCH  31  32
BRANCH  31  35
ATOM     35  C   UNL     1      32.125 -22.700 -16.928  0.00  0.00    +0.127 C 
BRANCH  35  37
ATOM     36  O   UNL     1      31.741 -24.478 -15.300  0.00  0.00    -0.250 OA
ATOM     37  C   UNL     1      31.969 -23.301 -15.545  0.00  0.00    +0.315 C 
BRANCH  37  38
ATOM     38  O   UNL     1      32.129 -22.361 -14.577  0.00  0.00    -0.480 OA
ATOM     39  H   UNL     1      31.653 -21.556 -14.622  0.00  0.00    +0.295 HD
ENDBRANCH  37  38
ENDBRANCH  35  37
ENDBRANCH  31  35
ENDBRANCH  26  31
ENDBRANCH  24  25
ENDBRANCH  23  24
ENDBRANCH   6  23
TORSDOF 10
ENDMDL
