MODEL 1
REMARK VINA RESULT:     -11.4      0.000      0.000
REMARK  Name = 25118925
REMARK  3 active torsions:
REMARK  status: ('A' for Active; 'I' for Inactive)
REMARK    1  A    between atoms: C_3  and  C_12
REMARK    2  A    between atoms: C_5  and  C_24
REMARK    3  A    between atoms: C_27  and  C_33
REMARK                            x       y       z     vdW  Elec       q    Type
REMARK                         _______ _______ _______ _____ _____    ______ ____
ROOT
ATOM      1  N   UNL     1      31.889 -11.225 -21.139  0.00  0.00    -0.279 N 
ATOM      2  N   UNL     1      33.114 -11.263 -22.992  0.00  0.00    -0.394 NA
ATOM      3  C   UNL     1      32.511 -10.493 -22.112  0.00  0.00    +0.160 C 
ATOM      4  C   UNL     1      32.110 -12.545 -21.416  0.00  0.00    +0.152 C 
ATOM      5  C   UNL     1      32.868 -12.543 -22.563  0.00  0.00    +0.130 C 
ATOM      6  C   UNL     1      31.135 -10.714 -20.020  0.00  0.00    +0.115 C 
ENDROOT
BRANCH   3  12
ATOM      7  N   UNL     1      32.342  -6.363 -23.366  0.00  0.00    -0.296 N 
ATOM      8  N   UNL     1      31.424  -4.161 -23.339  0.00  0.00    -0.233 NA
ATOM      9  N   UNL     1      33.676  -3.303 -26.560  0.00  0.00    -0.223 N 
ATOM     10  N   UNL     1      32.052  -2.462 -24.973  0.00  0.00    -0.232 NA
ATOM     11  N   UNL     1      34.357  -4.431 -26.836  0.00  0.00    -0.183 NA
ATOM     12  C   UNL     1      32.478  -8.977 -22.129  0.00  0.00    +0.070 C 
ATOM     13  C   UNL     1      31.170  -8.433 -22.721  0.00  0.00    +0.030 C 
ATOM     14  C   UNL     1      33.672  -8.381 -22.890  0.00  0.00    +0.030 C 
ATOM     15  C   UNL     1      31.147  -6.905 -22.704  0.00  0.00    +0.092 C 
ATOM     16  C   UNL     1      33.636  -6.852 -22.878  0.00  0.00    +0.092 C 
ATOM     17  C   UNL     1      32.251  -5.074 -23.903  0.00  0.00    +0.118 C 
ATOM     18  C   UNL     1      33.002  -4.709 -25.016  0.00  0.00    +0.152 C 
ATOM     19  C   UNL     1      32.850  -3.414 -25.481  0.00  0.00    +0.133 C 
ATOM     20  C   UNL     1      33.942  -5.283 -25.892  0.00  0.00    +0.105 C 
ATOM     21  C   UNL     1      31.377  -2.930 -23.900  0.00  0.00    +0.252 C 
ATOM     22  H   UNL     1      33.765  -2.476 -27.086  0.00  0.00    +0.176 HD
ENDBRANCH   3  12
BRANCH   5  24
ATOM     23  F   UNL     1      34.705 -17.094 -25.175  0.00  0.00    -0.204 F 
ATOM     24  C   UNL     1      33.342 -13.715 -23.232  0.00  0.00    +0.027 C 
ATOM     25  C   UNL     1      33.934 -14.745 -22.502  0.00  0.00    +0.008 C 
ATOM     26  C   UNL     1      33.209 -13.828 -24.616  0.00  0.00    +0.005 C 
ATOM     27  C   UNL     1      34.396 -15.887 -23.154  0.00  0.00    +0.099 C 
ATOM     28  C   UNL     1      33.671 -14.970 -25.270  0.00  0.00    +0.030 C 
ATOM     29  C   UNL     1      34.264 -16.000 -24.538  0.00  0.00    +0.144 C 
BRANCH  27  33
ATOM     30  F   UNL     1      34.378 -18.182 -22.482  0.00  0.00    -0.166 F 
ATOM     31  F   UNL     1      36.318 -17.249 -22.742  0.00  0.00    -0.166 F 
ATOM     32  F   UNL     1      35.079 -16.719 -21.034  0.00  0.00    -0.166 F 
ATOM     33  C   UNL     1      35.030 -16.987 -22.372  0.00  0.00    +0.421 C 
ENDBRANCH  27  33
ENDBRANCH   5  24
TORSDOF 3
ENDMDL
MODEL 2
REMARK VINA RESULT:     -11.0      3.258      5.936
REMARK  Name = 25118925
REMARK  3 active torsions:
REMARK  status: ('A' for Active; 'I' for Inactive)
REMARK    1  A    between atoms: C_3  and  C_12
REMARK    2  A    between atoms: C_5  and  C_24
REMARK    3  A    between atoms: C_27  and  C_33
REMARK                            x       y       z     vdW  Elec       q    Type
REMARK                         _______ _______ _______ _____ _____    ______ ____
ROOT
ATOM      1  N   UNL     1      34.087 -15.768 -24.518  0.00  0.00    -0.279 N 
ATOM      2  N   UNL     1      34.174 -15.727 -22.299  0.00  0.00    -0.394 NA
ATOM      3  C   UNL     1      33.805 -15.070 -23.377  0.00  0.00    +0.160 C 
ATOM      4  C   UNL     1      34.673 -16.945 -24.144  0.00  0.00    +0.152 C 
ATOM      5  C   UNL     1      34.716 -16.896 -22.771  0.00  0.00    +0.130 C 
ATOM      6  C   UNL     1      33.822 -15.353 -25.875  0.00  0.00    +0.115 C 
ENDROOT
BRANCH   3  12
ATOM      7  N   UNL     1      32.663 -10.997 -22.501  0.00  0.00    -0.296 N 
ATOM      8  N   UNL     1      32.324  -8.706 -23.075  0.00  0.00    -0.233 NA
ATOM      9  N   UNL     1      31.853  -7.911 -19.159  0.00  0.00    -0.223 N 
ATOM     10  N   UNL     1      31.889  -6.989 -21.398  0.00  0.00    -0.232 NA
ATOM     11  N   UNL     1      32.000  -9.092 -18.531  0.00  0.00    -0.183 NA
ATOM     12  C   UNL     1      33.145 -13.704 -23.406  0.00  0.00    +0.070 C 
ATOM     13  C   UNL     1      34.158 -12.578 -23.659  0.00  0.00    +0.030 C 
ATOM     14  C   UNL     1      32.364 -13.412 -22.116  0.00  0.00    +0.030 C 
ATOM     15  C   UNL     1      33.469 -11.215 -23.711  0.00  0.00    +0.092 C 
ATOM     16  C   UNL     1      31.687 -12.042 -22.171  0.00  0.00    +0.092 C 
ATOM     17  C   UNL     1      32.407  -9.673 -22.129  0.00  0.00    +0.118 C 
ATOM     18  C   UNL     1      32.233  -9.327 -20.792  0.00  0.00    +0.152 C 
ATOM     19  C   UNL     1      31.983  -7.994 -20.514  0.00  0.00    +0.133 C 
ATOM     20  C   UNL     1      32.231  -9.951 -19.531  0.00  0.00    +0.105 C 
ATOM     21  C   UNL     1      32.073  -7.443 -22.657  0.00  0.00    +0.252 C 
ATOM     22  H   UNL     1      31.669  -7.068 -18.687  0.00  0.00    +0.176 HD
ENDBRANCH   3  12
BRANCH   5  24
ATOM     23  F   UNL     1      36.815 -20.885 -19.516  0.00  0.00    -0.204 F 
ATOM     24  C   UNL     1      35.253 -17.923 -21.933  0.00  0.00    +0.027 C 
ATOM     25  C   UNL     1      34.413 -18.903 -21.404  0.00  0.00    +0.008 C 
ATOM     26  C   UNL     1      36.618 -17.946 -21.647  0.00  0.00    +0.005 C 
ATOM     27  C   UNL     1      34.937 -19.905 -20.587  0.00  0.00    +0.099 C 
ATOM     28  C   UNL     1      37.143 -18.947 -20.830  0.00  0.00    +0.030 C 
ATOM     29  C   UNL     1      36.302 -19.926 -20.300  0.00  0.00    +0.144 C 
BRANCH  27  33
ATOM     30  F   UNL     1      34.457 -22.226 -20.271  0.00  0.00    -0.166 F 
ATOM     31  F   UNL     1      33.902 -20.880 -18.664  0.00  0.00    -0.166 F 
ATOM     32  F   UNL     1      32.769 -20.879 -20.521  0.00  0.00    -0.166 F 
ATOM     33  C   UNL     1      34.037 -20.950 -20.021  0.00  0.00    +0.421 C 
ENDBRANCH  27  33
ENDBRANCH   5  24
TORSDOF 3
ENDMDL
MODEL 3
REMARK VINA RESULT:     -10.8      7.632     13.451
REMARK  Name = 25118925
REMARK  3 active torsions:
REMARK  status: ('A' for Active; 'I' for Inactive)
REMARK    1  A    between atoms: C_3  and  C_12
REMARK    2  A    between atoms: C_5  and  C_24
REMARK    3  A    between atoms: C_27  and  C_33
REMARK                            x       y       z     vdW  Elec       q    Type
REMARK                         _______ _______ _______ _____ _____    ______ ____
ROOT
ATOM      1  N   UNL     1      34.705 -19.312 -23.690  0.00  0.00    -0.279 N 
ATOM      2  N   UNL     1      34.315 -17.905 -22.016  0.00  0.00    -0.394 NA
ATOM      3  C   UNL     1      34.508 -19.164 -22.345  0.00  0.00    +0.160 C 
ATOM      4  C   UNL     1      34.631 -18.070 -24.255  0.00  0.00    +0.152 C 
ATOM      5  C   UNL     1      34.390 -17.219 -23.202  0.00  0.00    +0.130 C 
ATOM      6  C   UNL     1      34.945 -20.546 -24.400  0.00  0.00    +0.115 C 
ENDROOT
BRANCH   3  12
ATOM      7  N   UNL     1      34.848 -21.646 -18.827  0.00  0.00    -0.296 N 
ATOM      8  N   UNL     1      34.025 -23.237 -17.251  0.00  0.00    -0.233 NA
ATOM      9  N   UNL     1      37.195 -22.401 -14.920  0.00  0.00    -0.223 N 
ATOM     10  N   UNL     1      35.178 -23.719 -15.155  0.00  0.00    -0.232 NA
ATOM     11  N   UNL     1      37.899 -21.468 -15.587  0.00  0.00    -0.183 NA
ATOM     12  C   UNL     1      34.522 -20.342 -21.391  0.00  0.00    +0.070 C 
ATOM     13  C   UNL     1      33.480 -20.193 -20.272  0.00  0.00    +0.030 C 
ATOM     14  C   UNL     1      35.909 -20.570 -20.772  0.00  0.00    +0.030 C 
ATOM     15  C   UNL     1      33.492 -21.403 -19.339  0.00  0.00    +0.092 C 
ATOM     16  C   UNL     1      35.910 -21.775 -19.830  0.00  0.00    +0.092 C 
ATOM     17  C   UNL     1      34.963 -22.328 -17.610  0.00  0.00    +0.118 C 
ATOM     18  C   UNL     1      36.035 -22.089 -16.755  0.00  0.00    +0.152 C 
ATOM     19  C   UNL     1      36.070 -22.807 -15.573  0.00  0.00    +0.133 C 
ATOM     20  C   UNL     1      37.187 -21.282 -16.705  0.00  0.00    +0.105 C 
ATOM     21  C   UNL     1      34.189 -23.867 -16.063  0.00  0.00    +0.252 C 
ATOM     22  H   UNL     1      37.467 -22.756 -14.043  0.00  0.00    +0.176 HD
ENDBRANCH   3  12
BRANCH   5  24
ATOM     23  F   UNL     1      33.787 -11.708 -23.630  0.00  0.00    -0.204 F 
ATOM     24  C   UNL     1      34.235 -15.801 -23.316  0.00  0.00    +0.027 C 
ATOM     25  C   UNL     1      33.872 -15.234 -24.537  0.00  0.00    +0.008 C 
ATOM     26  C   UNL     1      34.444 -14.986 -22.203  0.00  0.00    +0.005 C 
ATOM     27  C   UNL     1      33.720 -13.852 -24.647  0.00  0.00    +0.099 C 
ATOM     28  C   UNL     1      34.293 -13.605 -22.312  0.00  0.00    +0.030 C 
ATOM     29  C   UNL     1      33.931 -13.038 -23.535  0.00  0.00    +0.144 C 
BRANCH  27  33
ATOM     30  F   UNL     1      32.010 -13.400 -26.256  0.00  0.00    -0.166 F 
ATOM     31  F   UNL     1      33.562 -11.903 -26.023  0.00  0.00    -0.166 F 
ATOM     32  F   UNL     1      34.013 -13.790 -27.006  0.00  0.00    -0.166 F 
ATOM     33  C   UNL     1      33.333 -13.248 -25.954  0.00  0.00    +0.421 C 
ENDBRANCH  27  33
ENDBRANCH   5  24
TORSDOF 3
ENDMDL
MODEL 4
REMARK VINA RESULT:     -10.6      1.101      2.086
REMARK  Name = 25118925
REMARK  3 active torsions:
REMARK  status: ('A' for Active; 'I' for Inactive)
REMARK    1  A    between atoms: C_3  and  C_12
REMARK    2  A    between atoms: C_5  and  C_24
REMARK    3  A    between atoms: C_27  and  C_33
REMARK                            x       y       z     vdW  Elec       q    Type
REMARK                         _______ _______ _______ _____ _____    ______ ____
ROOT
ATOM      1  N   UNL     1      31.626 -10.816 -20.415  0.00  0.00    -0.279 N 
ATOM      2  N   UNL     1      32.827 -10.959 -22.279  0.00  0.00    -0.394 NA
ATOM      3  C   UNL     1      32.178 -10.147 -21.473  0.00  0.00    +0.160 C 
ATOM      4  C   UNL     1      31.944 -12.138 -20.556  0.00  0.00    +0.152 C 
ATOM      5  C   UNL     1      32.685 -12.201 -21.712  0.00  0.00    +0.130 C 
ATOM      6  C   UNL     1      30.849 -10.246 -19.341  0.00  0.00    +0.115 C 
ENDROOT
BRANCH   3  12
ATOM      7  N   UNL     1      31.948  -6.172 -23.145  0.00  0.00    -0.296 N 
ATOM      8  N   UNL     1      30.873  -4.076 -23.526  0.00  0.00    -0.233 NA
ATOM      9  N   UNL     1      33.677  -3.267 -26.295  0.00  0.00    -0.223 N 
ATOM     10  N   UNL     1      31.694  -2.464 -25.162  0.00  0.00    -0.232 NA
ATOM     11  N   UNL     1      34.488  -4.341 -26.312  0.00  0.00    -0.183 NA
ATOM     12  C   UNL     1      32.029  -8.648 -21.649  0.00  0.00    +0.070 C 
ATOM     13  C   UNL     1      30.835  -8.287 -22.546  0.00  0.00    +0.030 C 
ATOM     14  C   UNL     1      33.305  -8.002 -22.208  0.00  0.00    +0.030 C 
ATOM     15  C   UNL     1      30.688  -6.772 -22.687  0.00  0.00    +0.092 C 
ATOM     16  C   UNL     1      33.145  -6.489 -22.358  0.00  0.00    +0.092 C 
ATOM     17  C   UNL     1      31.870  -4.946 -23.817  0.00  0.00    +0.118 C 
ATOM     18  C   UNL     1      32.807  -4.601 -24.786  0.00  0.00    +0.152 C 
ATOM     19  C   UNL     1      32.654  -3.371 -25.400  0.00  0.00    +0.133 C 
ATOM     20  C   UNL     1      33.954  -5.150 -25.391  0.00  0.00    +0.105 C 
ATOM     21  C   UNL     1      30.847  -2.906 -24.207  0.00  0.00    +0.252 C 
ATOM     22  H   UNL     1      33.810  -2.482 -26.873  0.00  0.00    +0.176 HD
ENDBRANCH   3  12
BRANCH   5  24
ATOM     23  F   UNL     1      34.847 -16.858 -23.846  0.00  0.00    -0.204 F 
ATOM     24  C   UNL     1      33.239 -13.399 -22.263  0.00  0.00    +0.027 C 
ATOM     25  C   UNL     1      32.986 -13.738 -23.592  0.00  0.00    +0.008 C 
ATOM     26  C   UNL     1      34.035 -14.227 -21.472  0.00  0.00    +0.005 C 
ATOM     27  C   UNL     1      33.527 -14.905 -24.130  0.00  0.00    +0.099 C 
ATOM     28  C   UNL     1      34.576 -15.394 -22.008  0.00  0.00    +0.030 C 
ATOM     29  C   UNL     1      34.322 -15.734 -23.338  0.00  0.00    +0.144 C 
BRANCH  27  33
ATOM     30  F   UNL     1      32.587 -16.450 -25.695  0.00  0.00    -0.166 F 
ATOM     31  F   UNL     1      32.492 -14.346 -26.212  0.00  0.00    -0.166 F 
ATOM     32  F   UNL     1      34.395 -15.397 -26.288  0.00  0.00    -0.166 F 
ATOM     33  C   UNL     1      33.254 -15.267 -25.551  0.00  0.00    +0.421 C 
ENDBRANCH  27  33
ENDBRANCH   5  24
TORSDOF 3
ENDMDL
MODEL 5
REMARK VINA RESULT:      -9.9      7.699     13.735
REMARK  Name = 25118925
REMARK  3 active torsions:
REMARK  status: ('A' for Active; 'I' for Inactive)
REMARK    1  A    between atoms: C_3  and  C_12
REMARK    2  A    between atoms: C_5  and  C_24
REMARK    3  A    between atoms: C_27  and  C_33
REMARK                            x       y       z     vdW  Elec       q    Type
REMARK                         _______ _______ _______ _____ _____    ______ ____
ROOT
ATOM      1  N   UNL     1      36.364 -18.561 -21.691  0.00  0.00    -0.279 N 
ATOM      2  N   UNL     1      34.231 -18.538 -22.308  0.00  0.00    -0.394 NA
ATOM      3  C   UNL     1      35.143 -19.170 -21.604  0.00  0.00    +0.160 C 
ATOM      4  C   UNL     1      36.221 -17.470 -22.502  0.00  0.00    +0.152 C 
ATOM      5  C   UNL     1      34.896 -17.477 -22.870  0.00  0.00    +0.130 C 
ATOM      6  C   UNL     1      37.589 -18.978 -21.052  0.00  0.00    +0.115 C 
ENDROOT
BRANCH   3  12
ATOM      7  N   UNL     1      34.730 -21.967 -18.339  0.00  0.00    -0.296 N 
ATOM      8  N   UNL     1      33.555 -23.621 -17.082  0.00  0.00    -0.233 NA
ATOM      9  N   UNL     1      36.332 -23.237 -14.196  0.00  0.00    -0.223 N 
ATOM     10  N   UNL     1      34.306 -24.370 -14.885  0.00  0.00    -0.232 NA
ATOM     11  N   UNL     1      37.195 -22.307 -14.646  0.00  0.00    -0.183 NA
ATOM     12  C   UNL     1      34.923 -20.425 -20.781  0.00  0.00    +0.070 C 
ATOM     13  C   UNL     1      33.718 -20.293 -19.838  0.00  0.00    +0.030 C 
ATOM     14  C   UNL     1      36.169 -20.812 -19.971  0.00  0.00    +0.030 C 
ATOM     15  C   UNL     1      33.497 -21.576 -19.038  0.00  0.00    +0.092 C 
ATOM     16  C   UNL     1      35.936 -22.090 -19.164  0.00  0.00    +0.092 C 
ATOM     17  C   UNL     1      34.595 -22.759 -17.193  0.00  0.00    +0.118 C 
ATOM     18  C   UNL     1      35.520 -22.678 -16.156  0.00  0.00    +0.152 C 
ATOM     19  C   UNL     1      35.310 -23.497 -15.060  0.00  0.00    +0.133 C 
ATOM     20  C   UNL     1      36.695 -21.971 -15.840  0.00  0.00    +0.105 C 
ATOM     21  C   UNL     1      33.477 -24.362 -15.951  0.00  0.00    +0.252 C 
ATOM     22  H   UNL     1      36.429 -23.687 -13.326  0.00  0.00    +0.176 HD
ENDBRANCH   3  12
BRANCH   5  24
ATOM     23  F   UNL     1      32.502 -13.732 -26.211  0.00  0.00    -0.204 F 
ATOM     24  C   UNL     1      34.280 -16.512 -23.727  0.00  0.00    +0.027 C 
ATOM     25  C   UNL     1      34.256 -15.166 -23.360  0.00  0.00    +0.008 C 
ATOM     26  C   UNL     1      33.706 -16.915 -24.933  0.00  0.00    +0.005 C 
ATOM     27  C   UNL     1      33.656 -14.225 -24.196  0.00  0.00    +0.099 C 
ATOM     28  C   UNL     1      33.106 -15.975 -25.769  0.00  0.00    +0.030 C 
ATOM     29  C   UNL     1      33.081 -14.630 -25.401  0.00  0.00    +0.144 C 
BRANCH  27  33
ATOM     30  F   UNL     1      33.831 -11.930 -24.845  0.00  0.00    -0.166 F 
ATOM     31  F   UNL     1      32.447 -12.396 -23.241  0.00  0.00    -0.166 F 
ATOM     32  F   UNL     1      34.591 -12.478 -22.883  0.00  0.00    -0.166 F 
ATOM     33  C   UNL     1      33.630 -12.788 -23.801  0.00  0.00    +0.421 C 
ENDBRANCH  27  33
ENDBRANCH   5  24
TORSDOF 3
ENDMDL
MODEL 6
REMARK VINA RESULT:      -9.8      1.826      3.051
REMARK  Name = 25118925
REMARK  3 active torsions:
REMARK  status: ('A' for Active; 'I' for Inactive)
REMARK    1  A    between atoms: C_3  and  C_12
REMARK    2  A    between atoms: C_5  and  C_24
REMARK    3  A    between atoms: C_27  and  C_33
REMARK                            x       y       z     vdW  Elec       q    Type
REMARK                         _______ _______ _______ _____ _____    ______ ____
ROOT
ATOM      1  N   UNL     1      33.495 -12.958 -25.044  0.00  0.00    -0.279 N 
ATOM      2  N   UNL     1      34.041 -13.898 -23.106  0.00  0.00    -0.394 NA
ATOM      3  C   UNL     1      33.756 -12.767 -23.715  0.00  0.00    +0.160 C 
ATOM      4  C   UNL     1      33.622 -14.295 -25.298  0.00  0.00    +0.152 C 
ATOM      5  C   UNL     1      33.959 -14.854 -24.088  0.00  0.00    +0.130 C 
ATOM      6  C   UNL     1      33.148 -11.946 -26.013  0.00  0.00    +0.115 C 
ENDROOT
BRANCH   3  12
ATOM      7  N   UNL     1      32.956  -8.607 -22.873  0.00  0.00    -0.296 N 
ATOM      8  N   UNL     1      32.159  -6.822 -21.506  0.00  0.00    -0.233 NA
ATOM      9  N   UNL     1      32.502  -4.382 -24.686  0.00  0.00    -0.223 N 
ATOM     10  N   UNL     1      31.879  -4.551 -22.352  0.00  0.00    -0.232 NA
ATOM     11  N   UNL     1      32.963  -5.155 -25.686  0.00  0.00    -0.183 NA
ATOM     12  C   UNL     1      33.709 -11.395 -23.071  0.00  0.00    +0.070 C 
ATOM     13  C   UNL     1      32.275 -10.970 -22.719  0.00  0.00    +0.030 C 
ATOM     14  C   UNL     1      34.361 -10.320 -23.951  0.00  0.00    +0.030 C 
ATOM     15  C   UNL     1      32.254  -9.598 -22.046  0.00  0.00    +0.092 C 
ATOM     16  C   UNL     1      34.325  -8.948 -23.277  0.00  0.00    +0.092 C 
ATOM     17  C   UNL     1      32.601  -7.264 -22.708  0.00  0.00    +0.118 C 
ATOM     18  C   UNL     1      32.696  -6.364 -23.765  0.00  0.00    +0.152 C 
ATOM     19  C   UNL     1      32.324  -5.055 -23.514  0.00  0.00    +0.133 C 
ATOM     20  C   UNL     1      33.079  -6.361 -25.120  0.00  0.00    +0.105 C 
ATOM     21  C   UNL     1      31.830  -5.512 -21.404  0.00  0.00    +0.252 C 
ATOM     22  H   UNL     1      32.312  -3.422 -24.789  0.00  0.00    +0.176 HD
ENDBRANCH   3  12
BRANCH   5  24
ATOM     23  F   UNL     1      34.877 -20.271 -23.242  0.00  0.00    -0.204 F 
ATOM     24  C   UNL     1      34.197 -16.246 -23.868  0.00  0.00    +0.027 C 
ATOM     25  C   UNL     1      34.898 -16.665 -22.738  0.00  0.00    +0.008 C 
ATOM     26  C   UNL     1      33.726 -17.187 -24.784  0.00  0.00    +0.005 C 
ATOM     27  C   UNL     1      35.130 -18.023 -22.523  0.00  0.00    +0.099 C 
ATOM     28  C   UNL     1      33.957 -18.545 -24.571  0.00  0.00    +0.030 C 
ATOM     29  C   UNL     1      34.659 -18.963 -23.440  0.00  0.00    +0.144 C 
BRANCH  27  33
ATOM     30  F   UNL     1      35.386 -19.612 -20.754  0.00  0.00    -0.166 F 
ATOM     31  F   UNL     1      37.199 -18.733 -21.556  0.00  0.00    -0.166 F 
ATOM     32  F   UNL     1      35.869 -17.538 -20.316  0.00  0.00    -0.166 F 
ATOM     33  C   UNL     1      35.881 -18.469 -21.314  0.00  0.00    +0.421 C 
ENDBRANCH  27  33
ENDBRANCH   5  24
TORSDOF 3
ENDMDL
MODEL 7
REMARK VINA RESULT:      -9.6      8.297     14.293
REMARK  Name = 25118925
REMARK  3 active torsions:
REMARK  status: ('A' for Active; 'I' for Inactive)
REMARK    1  A    between atoms: C_3  and  C_12
REMARK    2  A    between atoms: C_5  and  C_24
REMARK    3  A    between atoms: C_27  and  C_33
REMARK                            x       y       z     vdW  Elec       q    Type
REMARK                         _______ _______ _______ _____ _____    ______ ____
ROOT
ATOM      1  N   UNL     1      36.031 -19.772 -20.703  0.00  0.00    -0.279 N 
ATOM      2  N   UNL     1      34.009 -19.410 -21.548  0.00  0.00    -0.394 NA
ATOM      3  C   UNL     1      34.716 -20.144 -20.716  0.00  0.00    +0.160 C 
ATOM      4  C   UNL     1      36.173 -18.735 -21.582  0.00  0.00    +0.152 C 
ATOM      5  C   UNL     1      34.912 -18.530 -22.090  0.00  0.00    +0.130 C 
ATOM      6  C   UNL     1      37.089 -20.357 -19.913  0.00  0.00    +0.115 C 
ENDROOT
BRANCH   3  12
ATOM      7  N   UNL     1      33.488 -22.583 -17.369  0.00  0.00    -0.296 N 
ATOM      8  N   UNL     1      31.912 -23.895 -16.150  0.00  0.00    -0.233 NA
ATOM      9  N   UNL     1      34.451 -23.844 -13.030  0.00  0.00    -0.223 N 
ATOM     10  N   UNL     1      32.311 -24.620 -13.855  0.00  0.00    -0.232 NA
ATOM     11  N   UNL     1      35.513 -23.126 -13.440  0.00  0.00    -0.183 NA
ATOM     12  C   UNL     1      34.186 -21.275 -19.855  0.00  0.00    +0.070 C 
ATOM     13  C   UNL     1      32.953 -20.855 -19.042  0.00  0.00    +0.030 C 
ATOM     14  C   UNL     1      35.259 -21.833 -18.909  0.00  0.00    +0.030 C 
ATOM     15  C   UNL     1      32.419 -22.016 -18.204  0.00  0.00    +0.092 C 
ATOM     16  C   UNL     1      34.714 -22.987 -18.065  0.00  0.00    +0.092 C 
ATOM     17  C   UNL     1      33.105 -23.255 -16.203  0.00  0.00    +0.118 C 
ATOM     18  C   UNL     1      33.935 -23.278 -15.086  0.00  0.00    +0.152 C 
ATOM     19  C   UNL     1      33.477 -23.966 -13.976  0.00  0.00    +0.133 C 
ATOM     20  C   UNL     1      35.193 -22.785 -14.693  0.00  0.00    +0.105 C 
ATOM     21  C   UNL     1      31.594 -24.529 -14.996  0.00  0.00    +0.252 C 
ATOM     22  H   UNL     1      34.384 -24.244 -12.133  0.00  0.00    +0.176 HD
ENDBRANCH   3  12
BRANCH   5  24
ATOM     23  F   UNL     1      33.597 -14.666 -25.866  0.00  0.00    -0.204 F 
ATOM     24  C   UNL     1      34.573 -17.534 -23.059  0.00  0.00    +0.027 C 
ATOM     25  C   UNL     1      34.463 -16.197 -22.677  0.00  0.00    +0.008 C 
ATOM     26  C   UNL     1      34.356 -17.900 -24.387  0.00  0.00    +0.005 C 
ATOM     27  C   UNL     1      34.134 -15.226 -23.622  0.00  0.00    +0.099 C 
ATOM     28  C   UNL     1      34.025 -16.930 -25.333  0.00  0.00    +0.030 C 
ATOM     29  C   UNL     1      33.915 -15.592 -24.950  0.00  0.00    +0.144 C 
BRANCH  27  33
ATOM     30  F   UNL     1      32.725 -13.388 -23.024  0.00  0.00    -0.166 F 
ATOM     31  F   UNL     1      34.653 -13.511 -22.038  0.00  0.00    -0.166 F 
ATOM     32  F   UNL     1      34.540 -12.940 -24.134  0.00  0.00    -0.166 F 
ATOM     33  C   UNL     1      34.015 -13.798 -23.211  0.00  0.00    +0.421 C 
ENDBRANCH  27  33
ENDBRANCH   5  24
TORSDOF 3
ENDMDL
MODEL 8
REMARK VINA RESULT:      -9.2      5.418     10.724
REMARK  Name = 25118925
REMARK  3 active torsions:
REMARK  status: ('A' for Active; 'I' for Inactive)
REMARK    1  A    between atoms: C_3  and  C_12
REMARK    2  A    between atoms: C_5  and  C_24
REMARK    3  A    between atoms: C_27  and  C_33
REMARK                            x       y       z     vdW  Elec       q    Type
REMARK                         _______ _______ _______ _____ _____    ______ ____
ROOT
ATOM      1  N   UNL     1      32.162 -11.577 -21.548  0.00  0.00    -0.279 N 
ATOM      2  N   UNL     1      33.083 -10.316 -23.128  0.00  0.00    -0.394 NA
ATOM      3  C   UNL     1      32.940 -11.541 -22.672  0.00  0.00    +0.160 C 
ATOM      4  C   UNL     1      31.783 -10.293 -21.271  0.00  0.00    +0.152 C 
ATOM      5  C   UNL     1      32.364  -9.534 -22.260  0.00  0.00    +0.130 C 
ATOM      6  C   UNL     1      31.797 -12.745 -20.783  0.00  0.00    +0.115 C 
ENDROOT
BRANCH   3  12
ATOM      7  N   UNL     1      34.062 -15.635 -23.470  0.00  0.00    -0.296 N 
ATOM      8  N   UNL     1      34.239 -17.567 -24.859  0.00  0.00    -0.233 NA
ATOM      9  N   UNL     1      35.242 -19.688 -21.591  0.00  0.00    -0.223 N 
ATOM     10  N   UNL     1      34.854 -19.758 -23.981  0.00  0.00    -0.232 NA
ATOM     11  N   UNL     1      35.226 -18.810 -20.571  0.00  0.00    -0.183 NA
ATOM     12  C   UNL     1      33.544 -12.794 -23.278  0.00  0.00    +0.070 C 
ATOM     13  C   UNL     1      32.469 -13.778 -23.762  0.00  0.00    +0.030 C 
ATOM     14  C   UNL     1      34.492 -13.509 -22.304  0.00  0.00    +0.030 C 
ATOM     15  C   UNL     1      33.098 -15.020 -24.393  0.00  0.00    +0.092 C 
ATOM     16  C   UNL     1      35.109 -14.756 -22.938  0.00  0.00    +0.092 C 
ATOM     17  C   UNL     1      34.325 -17.000 -23.631  0.00  0.00    +0.118 C 
ATOM     18  C   UNL     1      34.678 -17.794 -22.544  0.00  0.00    +0.152 C 
ATOM     19  C   UNL     1      34.921 -19.133 -22.794  0.00  0.00    +0.133 C 
ATOM     20  C   UNL     1      34.882 -17.658 -21.158  0.00  0.00    +0.105 C 
ATOM     21  C   UNL     1      34.506 -18.891 -24.956  0.00  0.00    +0.252 C 
ATOM     22  H   UNL     1      35.464 -20.640 -21.480  0.00  0.00    +0.176 HD
ENDBRANCH   3  12
BRANCH   5  24
ATOM     23  F   UNL     1      31.884  -4.013 -22.709  0.00  0.00    -0.204 F 
ATOM     24  C   UNL     1      32.243  -8.114 -22.377  0.00  0.00    +0.027 C 
ATOM     25  C   UNL     1      32.879  -7.443 -23.422  0.00  0.00    +0.008 C 
ATOM     26  C   UNL     1      31.486  -7.399 -21.448  0.00  0.00    +0.005 C 
ATOM     27  C   UNL     1      32.760  -6.058 -23.537  0.00  0.00    +0.099 C 
ATOM     28  C   UNL     1      31.367  -6.015 -21.562  0.00  0.00    +0.030 C 
ATOM     29  C   UNL     1      32.005  -5.344 -22.607  0.00  0.00    +0.144 C 
BRANCH  27  33
ATOM     30  F   UNL     1      33.115  -5.822 -25.890  0.00  0.00    -0.166 F 
ATOM     31  F   UNL     1      33.157  -4.008 -24.702  0.00  0.00    -0.166 F 
ATOM     32  F   UNL     1      34.802  -5.426 -24.577  0.00  0.00    -0.166 F 
ATOM     33  C   UNL     1      33.442  -5.343 -24.653  0.00  0.00    +0.421 C 
ENDBRANCH  27  33
ENDBRANCH   5  24
TORSDOF 3
ENDMDL
MODEL 9
REMARK VINA RESULT:      -9.1      2.780      5.092
REMARK  Name = 25118925
REMARK  3 active torsions:
REMARK  status: ('A' for Active; 'I' for Inactive)
REMARK    1  A    between atoms: C_3  and  C_12
REMARK    2  A    between atoms: C_5  and  C_24
REMARK    3  A    between atoms: C_27  and  C_33
REMARK                            x       y       z     vdW  Elec       q    Type
REMARK                         _______ _______ _______ _____ _____    ______ ____
ROOT
ATOM      1  N   UNL     1      31.627  -6.283 -22.773  0.00  0.00    -0.279 N 
ATOM      2  N   UNL     1      33.116  -7.850 -23.286  0.00  0.00    -0.394 NA
ATOM      3  C   UNL     1      32.779  -6.588 -23.444  0.00  0.00    +0.160 C 
ATOM      4  C   UNL     1      31.202  -7.422 -22.149  0.00  0.00    +0.152 C 
ATOM      5  C   UNL     1      32.137  -8.375 -22.480  0.00  0.00    +0.130 C 
ATOM      6  C   UNL     1      30.967  -5.001 -22.724  0.00  0.00    +0.115 C 
ENDROOT
BRANCH   3  12
ATOM      7  N   UNL     1      34.921  -4.551 -26.592  0.00  0.00    -0.296 N 
ATOM      8  N   UNL     1      35.280  -2.738 -28.101  0.00  0.00    -0.233 NA
ATOM      9  N   UNL     1      38.011  -5.004 -29.997  0.00  0.00    -0.223 N 
ATOM     10  N   UNL     1      36.884  -2.861 -29.935  0.00  0.00    -0.232 NA
ATOM     11  N   UNL     1      38.036  -6.173 -29.330  0.00  0.00    -0.183 NA
ATOM     12  C   UNL     1      33.538  -5.558 -24.257  0.00  0.00    +0.070 C 
ATOM     13  C   UNL     1      32.780  -5.154 -25.531  0.00  0.00    +0.030 C 
ATOM     14  C   UNL     1      34.948  -6.041 -24.631  0.00  0.00    +0.030 C 
ATOM     15  C   UNL     1      33.550  -4.096 -26.321  0.00  0.00    +0.092 C 
ATOM     16  C   UNL     1      35.707  -4.982 -25.431  0.00  0.00    +0.092 C 
ATOM     17  C   UNL     1      35.574  -3.998 -27.700  0.00  0.00    +0.118 C 
ATOM     18  C   UNL     1      36.531  -4.725 -28.402  0.00  0.00    +0.152 C 
ATOM     19  C   UNL     1      37.127  -4.102 -29.484  0.00  0.00    +0.133 C 
ATOM     20  C   UNL     1      37.133  -5.997 -28.360  0.00  0.00    +0.105 C 
ATOM     21  C   UNL     1      35.944  -2.255 -29.179  0.00  0.00    +0.252 C 
ATOM     22  H   UNL     1      38.577  -4.817 -30.780  0.00  0.00    +0.176 HD
ENDBRANCH   3  12
BRANCH   5  24
ATOM     23  F   UNL     1      32.003 -13.670 -20.791  0.00  0.00    -0.204 F 
ATOM     24  C   UNL     1      32.103  -9.738 -22.048  0.00  0.00    +0.027 C 
ATOM     25  C   UNL     1      32.811 -10.711 -22.753  0.00  0.00    +0.008 C 
ATOM     26  C   UNL     1      31.364 -10.094 -20.920  0.00  0.00    +0.005 C 
ATOM     27  C   UNL     1      32.780 -12.040 -22.332  0.00  0.00    +0.099 C 
ATOM     28  C   UNL     1      31.331 -11.422 -20.498  0.00  0.00    +0.030 C 
ATOM     29  C   UNL     1      32.040 -12.396 -21.204  0.00  0.00    +0.144 C 
BRANCH  27  33
ATOM     30  F   UNL     1      34.475 -13.727 -22.336  0.00  0.00    -0.166 F 
ATOM     31  F   UNL     1      32.745 -14.069 -23.598  0.00  0.00    -0.166 F 
ATOM     32  F   UNL     1      34.214 -12.564 -24.154  0.00  0.00    -0.166 F 
ATOM     33  C   UNL     1      33.536 -13.079 -23.088  0.00  0.00    +0.421 C 
ENDBRANCH  27  33
ENDBRANCH   5  24
TORSDOF 3
ENDMDL
