MODEL 1
REMARK VINA RESULT:     -11.8      0.000      0.000
REMARK  Name = 656913
REMARK  7 active torsions:
REMARK  status: ('A' for Active; 'I' for Inactive)
REMARK    1  A    between atoms: N_3  and  C_22
REMARK    2  A    between atoms: N_4  and  C_11
REMARK    3  A    between atoms: C_11  and  C_14
REMARK    4  A    between atoms: C_14  and  C_17
REMARK    5  A    between atoms: C_22  and  C_25
REMARK    6  A    between atoms: N_24  and  C_27
REMARK    7  A    between atoms: C_27  and  C_29
REMARK                            x       y       z     vdW  Elec       q    Type
REMARK                         _______ _______ _______ _____ _____    ______ ____
ROOT
ATOM      1 CL   UNL     1      32.798 -13.042 -26.264  0.00  0.00    -0.064 Cl
ATOM      2  O   UNL     1      34.874 -14.104 -21.812  0.00  0.00    -0.266 OA
ATOM      3  N   UNL     1      33.904 -13.571 -23.880  0.00  0.00    -0.233 N 
ATOM      4  N   UNL     1      34.926 -16.752 -22.298  0.00  0.00    -0.310 N 
ATOM      5  N   UNL     1      33.958 -16.338 -24.391  0.00  0.00    -0.223 NA
ATOM      6  C   UNL     1      34.419 -15.907 -23.252  0.00  0.00    +0.183 C 
ATOM      7  C   UNL     1      34.422 -14.424 -22.905  0.00  0.00    +0.285 C 
ATOM      8  C   UNL     1      33.434 -14.102 -25.065  0.00  0.00    +0.133 C 
ATOM      9  C   UNL     1      33.474 -15.421 -25.278  0.00  0.00    +0.127 C 
ATOM     10  H   UNL     1      35.262 -16.371 -21.453  0.00  0.00    +0.149 HD
ENDROOT
BRANCH   4  11
ATOM     11  C   UNL     1      34.986 -18.167 -22.486  0.00  0.00    +0.162 C 
BRANCH  11  14
ATOM     12  F   UNL     1      36.220 -17.829 -20.518  0.00  0.00    -0.196 F 
ATOM     13  F   UNL     1      36.895 -19.386 -21.869  0.00  0.00    -0.196 F 
ATOM     14  C   UNL     1      35.769 -18.818 -21.346  0.00  0.00    +0.317 C 
BRANCH  14  17
ATOM     15  O   UNL     1      36.814 -20.667 -19.591  0.00  0.00    -0.163 OA
ATOM     16  N   UNL     1      35.551 -20.695 -19.765  0.00  0.00    -0.128 N 
ATOM     17  C   UNL     1      34.915 -19.824 -20.614  0.00  0.00    +0.142 C 
ATOM     18  C   UNL     1      33.547 -19.843 -20.809  0.00  0.00    +0.022 C 
ATOM     19  C   UNL     1      34.785 -21.624 -19.086  0.00  0.00    +0.121 C 
ATOM     20  C   UNL     1      32.786 -20.782 -20.121  0.00  0.00    +0.003 C 
ATOM     21  C   UNL     1      33.405 -21.677 -19.254  0.00  0.00    +0.022 C 
ENDBRANCH  14  17
ENDBRANCH  11  14
ENDBRANCH   4  11
BRANCH   3  22
ATOM     22  C   UNL     1      33.872 -12.136 -23.619  0.00  0.00    +0.184 C 
BRANCH  22  25
ATOM     23  O   UNL     1      31.995 -12.676 -22.197  0.00  0.00    -0.273 OA
ATOM     24  N   UNL     1      32.571 -10.447 -22.518  0.00  0.00    -0.299 N 
ATOM     25  C   UNL     1      32.721 -11.816 -22.689  0.00  0.00    +0.243 C 
ATOM     26  H   UNL     1      33.213  -9.847 -22.962  0.00  0.00    +0.150 HD
BRANCH  24  27
ATOM     27  C   UNL     1      31.519  -9.858 -21.720  0.00  0.00    +0.119 C 
BRANCH  27  29
ATOM     28  F   UNL     1      32.624  -8.351 -19.599  0.00  0.00    -0.204 F 
ATOM     29  C   UNL     1      31.578  -8.358 -21.731  0.00  0.00    +0.025 C 
ATOM     30  C   UNL     1      32.137  -7.680 -20.653  0.00  0.00    +0.138 C 
ATOM     31  C   UNL     1      31.073  -7.661 -22.822  0.00  0.00    -0.000 C 
ATOM     32  C   UNL     1      32.190  -6.287 -20.667  0.00  0.00    +0.029 C 
ATOM     33  C   UNL     1      31.127  -6.268 -22.836  0.00  0.00    -0.000 C 
ATOM     34  C   UNL     1      31.686  -5.581 -21.759  0.00  0.00    +0.002 C 
ENDBRANCH  27  29
ENDBRANCH  24  27
ENDBRANCH  22  25
ENDBRANCH   3  22
TORSDOF 7
ENDMDL
MODEL 2
REMARK VINA RESULT:     -11.3      2.396     10.302
REMARK  Name = 656913
REMARK  7 active torsions:
REMARK  status: ('A' for Active; 'I' for Inactive)
REMARK    1  A    between atoms: N_3  and  C_22
REMARK    2  A    between atoms: N_4  and  C_11
REMARK    3  A    between atoms: C_11  and  C_14
REMARK    4  A    between atoms: C_14  and  C_17
REMARK    5  A    between atoms: C_22  and  C_25
REMARK    6  A    between atoms: N_24  and  C_27
REMARK    7  A    between atoms: C_27  and  C_29
REMARK                            x       y       z     vdW  Elec       q    Type
REMARK                         _______ _______ _______ _____ _____    ______ ____
ROOT
ATOM      1 CL   UNL     1      34.754 -15.719 -25.210  0.00  0.00    -0.064 Cl
ATOM      2  O   UNL     1      34.038 -14.810 -20.320  0.00  0.00    -0.266 OA
ATOM      3  N   UNL     1      34.398 -15.261 -22.593  0.00  0.00    -0.233 N 
ATOM      4  N   UNL     1      32.248 -12.853 -20.790  0.00  0.00    -0.310 N 
ATOM      5  N   UNL     1      32.528 -13.216 -23.089  0.00  0.00    -0.223 NA
ATOM      6  C   UNL     1      32.819 -13.507 -21.853  0.00  0.00    +0.183 C 
ATOM      7  C   UNL     1      33.821 -14.601 -21.507  0.00  0.00    +0.285 C 
ATOM      8  C   UNL     1      34.038 -14.898 -23.876  0.00  0.00    +0.133 C 
ATOM      9  C   UNL     1      33.147 -13.923 -24.079  0.00  0.00    +0.127 C 
ATOM     10  H   UNL     1      32.506 -13.115 -19.876  0.00  0.00    +0.149 HD
ENDROOT
BRANCH   4  11
ATOM     11  C   UNL     1      31.292 -11.806 -20.965  0.00  0.00    +0.162 C 
BRANCH  11  14
ATOM     12  F   UNL     1      32.622 -11.015 -19.199  0.00  0.00    -0.196 F 
ATOM     13  F   UNL     1      30.556 -10.357 -19.271  0.00  0.00    -0.196 F 
ATOM     14  C   UNL     1      31.638 -10.623 -20.061  0.00  0.00    +0.317 C 
BRANCH  14  17
ATOM     15  O   UNL     1      32.245  -8.182 -18.934  0.00  0.00    -0.163 OA
ATOM     16  N   UNL     1      32.326  -8.260 -20.205  0.00  0.00    -0.128 N 
ATOM     17  C   UNL     1      32.048  -9.423 -20.880  0.00  0.00    +0.142 C 
ATOM     18  C   UNL     1      32.134  -9.521 -22.255  0.00  0.00    +0.022 C 
ATOM     19  C   UNL     1      32.703  -7.152 -20.938  0.00  0.00    +0.121 C 
ATOM     20  C   UNL     1      32.515  -8.399 -22.984  0.00  0.00    +0.003 C 
ATOM     21  C   UNL     1      32.802  -7.208 -22.325  0.00  0.00    +0.022 C 
ENDBRANCH  14  17
ENDBRANCH  11  14
ENDBRANCH   4  11
BRANCH   3  22
ATOM     22  C   UNL     1      35.369 -16.320 -22.342  0.00  0.00    +0.184 C 
BRANCH  22  25
ATOM     23  O   UNL     1      34.179 -17.964 -23.653  0.00  0.00    -0.273 OA
ATOM     24  N   UNL     1      34.790 -18.480 -21.471  0.00  0.00    -0.299 N 
ATOM     25  C   UNL     1      34.725 -17.667 -22.593  0.00  0.00    +0.243 C 
ATOM     26  H   UNL     1      35.254 -18.138 -20.673  0.00  0.00    +0.150 HD
BRANCH  24  27
ATOM     27  C   UNL     1      34.210 -19.804 -21.415  0.00  0.00    +0.119 C 
BRANCH  27  29
ATOM     28  F   UNL     1      32.501 -21.303 -19.735  0.00  0.00    -0.204 F 
ATOM     29  C   UNL     1      34.709 -20.586 -20.234  0.00  0.00    +0.025 C 
ATOM     30  C   UNL     1      33.812 -21.302 -19.451  0.00  0.00    +0.138 C 
ATOM     31  C   UNL     1      36.067 -20.585 -19.938  0.00  0.00    -0.000 C 
ATOM     32  C   UNL     1      34.279 -22.028 -18.356  0.00  0.00    +0.029 C 
ATOM     33  C   UNL     1      36.534 -21.312 -18.843  0.00  0.00    -0.000 C 
ATOM     34  C   UNL     1      35.640 -22.033 -18.052  0.00  0.00    +0.002 C 
ENDBRANCH  27  29
ENDBRANCH  24  27
ENDBRANCH  22  25
ENDBRANCH   3  22
TORSDOF 7
ENDMDL
MODEL 3
REMARK VINA RESULT:     -11.0      2.586      3.065
REMARK  Name = 656913
REMARK  7 active torsions:
REMARK  status: ('A' for Active; 'I' for Inactive)
REMARK    1  A    between atoms: N_3  and  C_22
REMARK    2  A    between atoms: N_4  and  C_11
REMARK    3  A    between atoms: C_11  and  C_14
REMARK    4  A    between atoms: C_14  and  C_17
REMARK    5  A    between atoms: C_22  and  C_25
REMARK    6  A    between atoms: N_24  and  C_27
REMARK    7  A    between atoms: C_27  and  C_29
REMARK                            x       y       z     vdW  Elec       q    Type
REMARK                         _______ _______ _______ _____ _____    ______ ____
ROOT
ATOM      1 CL   UNL     1      31.081 -11.116 -20.808  0.00  0.00    -0.064 Cl
ATOM      2  O   UNL     1      34.237 -13.507 -23.904  0.00  0.00    -0.266 OA
ATOM      3  N   UNL     1      32.760 -12.364 -22.485  0.00  0.00    -0.233 N 
ATOM      4  N   UNL     1      34.705 -15.488 -22.141  0.00  0.00    -0.310 N 
ATOM      5  N   UNL     1      33.246 -14.433 -20.640  0.00  0.00    -0.223 NA
ATOM      6  C   UNL     1      33.847 -14.475 -21.796  0.00  0.00    +0.183 C 
ATOM      7  C   UNL     1      33.633 -13.391 -22.844  0.00  0.00    +0.285 C 
ATOM      8  C   UNL     1      32.159 -12.388 -21.242  0.00  0.00    +0.133 C 
ATOM      9  C   UNL     1      32.410 -13.384 -20.388  0.00  0.00    +0.127 C 
ATOM     10  H   UNL     1      35.132 -15.469 -23.029  0.00  0.00    +0.149 HD
ENDROOT
BRANCH   4  11
ATOM     11  C   UNL     1      35.000 -16.571 -21.257  0.00  0.00    +0.162 C 
BRANCH  11  14
ATOM     12  F   UNL     1      36.351 -17.759 -22.766  0.00  0.00    -0.196 F 
ATOM     13  F   UNL     1      34.201 -17.938 -22.990  0.00  0.00    -0.196 F 
ATOM     14  C   UNL     1      35.190 -17.863 -22.052  0.00  0.00    +0.317 C 
BRANCH  14  17
ATOM     15  O   UNL     1      37.483 -18.834 -20.872  0.00  0.00    -0.163 OA
ATOM     16  N   UNL     1      36.399 -19.453 -20.609  0.00  0.00    -0.128 N 
ATOM     17  C   UNL     1      35.194 -19.062 -21.137  0.00  0.00    +0.142 C 
ATOM     18  C   UNL     1      34.013 -19.723 -20.857  0.00  0.00    +0.022 C 
ATOM     19  C   UNL     1      36.421 -20.549 -19.769  0.00  0.00    +0.121 C 
ATOM     20  C   UNL     1      34.047 -20.826 -20.010  0.00  0.00    +0.003 C 
ATOM     21  C   UNL     1      35.255 -21.243 -19.462  0.00  0.00    +0.022 C 
ENDBRANCH  14  17
ENDBRANCH  11  14
ENDBRANCH   4  11
BRANCH   3  22
ATOM     22  C   UNL     1      32.505 -11.287 -23.437  0.00  0.00    +0.184 C 
BRANCH  22  25
ATOM     23  O   UNL     1      34.653 -10.180 -23.484  0.00  0.00    -0.273 OA
ATOM     24  N   UNL     1      32.841  -9.099 -22.511  0.00  0.00    -0.299 N 
ATOM     25  C   UNL     1      33.464 -10.144 -23.177  0.00  0.00    +0.243 C 
ATOM     26  H   UNL     1      31.879  -9.177 -22.315  0.00  0.00    +0.150 HD
BRANCH  24  27
ATOM     27  C   UNL     1      33.532  -7.899 -22.094  0.00  0.00    +0.119 C 
BRANCH  27  29
ATOM     28  F   UNL     1      31.356  -6.364 -23.041  0.00  0.00    -0.204 F 
ATOM     29  C   UNL     1      33.661  -6.907 -23.213  0.00  0.00    +0.025 C 
ATOM     30  C   UNL     1      32.548  -6.185 -23.628  0.00  0.00    +0.138 C 
ATOM     31  C   UNL     1      34.895  -6.721 -23.824  0.00  0.00    -0.000 C 
ATOM     32  C   UNL     1      32.671  -5.264 -24.667  0.00  0.00    +0.029 C 
ATOM     33  C   UNL     1      35.019  -5.799 -24.863  0.00  0.00    -0.000 C 
ATOM     34  C   UNL     1      33.907  -5.071 -25.285  0.00  0.00    +0.002 C 
ENDBRANCH  27  29
ENDBRANCH  24  27
ENDBRANCH  22  25
ENDBRANCH   3  22
TORSDOF 7
ENDMDL
MODEL 4
REMARK VINA RESULT:     -11.0      3.446      4.877
REMARK  Name = 656913
REMARK  7 active torsions:
REMARK  status: ('A' for Active; 'I' for Inactive)
REMARK    1  A    between atoms: N_3  and  C_22
REMARK    2  A    between atoms: N_4  and  C_11
REMARK    3  A    between atoms: C_11  and  C_14
REMARK    4  A    between atoms: C_14  and  C_17
REMARK    5  A    between atoms: C_22  and  C_25
REMARK    6  A    between atoms: N_24  and  C_27
REMARK    7  A    between atoms: C_27  and  C_29
REMARK                            x       y       z     vdW  Elec       q    Type
REMARK                         _______ _______ _______ _____ _____    ______ ____
ROOT
ATOM      1 CL   UNL     1      30.652 -10.494 -19.525  0.00  0.00    -0.064 Cl
ATOM      2  O   UNL     1      33.292 -10.855 -23.786  0.00  0.00    -0.266 OA
ATOM      3  N   UNL     1      32.050 -10.651 -21.807  0.00  0.00    -0.233 N 
ATOM      4  N   UNL     1      34.164 -13.337 -23.214  0.00  0.00    -0.310 N 
ATOM      5  N   UNL     1      32.959 -13.245 -21.205  0.00  0.00    -0.223 NA
ATOM      6  C   UNL     1      33.339 -12.697 -22.324  0.00  0.00    +0.183 C 
ATOM      7  C   UNL     1      32.888 -11.296 -22.717  0.00  0.00    +0.285 C 
ATOM      8  C   UNL     1      31.689 -11.297 -20.641  0.00  0.00    +0.133 C 
ATOM      9  C   UNL     1      32.137 -12.530 -20.384  0.00  0.00    +0.127 C 
ATOM     10  H   UNL     1      34.420 -12.874 -24.045  0.00  0.00    +0.149 HD
ENDROOT
BRANCH   4  11
ATOM     11  C   UNL     1      34.665 -14.655 -22.976  0.00  0.00    +0.162 C 
BRANCH  11  14
ATOM     12  F   UNL     1      34.755 -15.221 -25.253  0.00  0.00    -0.196 F 
ATOM     13  F   UNL     1      32.844 -15.417 -24.246  0.00  0.00    -0.196 F 
ATOM     14  C   UNL     1      34.185 -15.605 -24.072  0.00  0.00    +0.317 C 
BRANCH  14  17
ATOM     15  O   UNL     1      32.966 -17.757 -25.288  0.00  0.00    -0.163 OA
ATOM     16  N   UNL     1      33.840 -18.024 -24.398  0.00  0.00    -0.128 N 
ATOM     17  C   UNL     1      34.515 -17.037 -23.725  0.00  0.00    +0.142 C 
ATOM     18  C   UNL     1      35.466 -17.313 -22.761  0.00  0.00    +0.022 C 
ATOM     19  C   UNL     1      34.129 -19.340 -24.093  0.00  0.00    +0.121 C 
ATOM     20  C   UNL     1      35.749 -18.641 -22.461  0.00  0.00    +0.003 C 
ATOM     21  C   UNL     1      35.080 -19.661 -23.129  0.00  0.00    +0.022 C 
ENDBRANCH  14  17
ENDBRANCH  11  14
ENDBRANCH   4  11
BRANCH   3  22
ATOM     22  C   UNL     1      31.577  -9.305 -22.113  0.00  0.00    +0.184 C 
BRANCH  22  25
ATOM     23  O   UNL     1      32.965  -7.944 -20.677  0.00  0.00    -0.273 OA
ATOM     24  N   UNL     1      33.252  -7.820 -22.980  0.00  0.00    -0.299 N 
ATOM     25  C   UNL     1      32.673  -8.303 -21.815  0.00  0.00    +0.243 C 
ATOM     26  H   UNL     1      32.940  -8.181 -23.841  0.00  0.00    +0.150 HD
BRANCH  24  27
ATOM     27  C   UNL     1      34.292  -6.816 -22.992  0.00  0.00    +0.119 C 
BRANCH  27  29
ATOM     28  F   UNL     1      31.970  -5.300 -23.539  0.00  0.00    -0.204 F 
ATOM     29  C   UNL     1      34.176  -5.902 -24.178  0.00  0.00    +0.025 C 
ATOM     30  C   UNL     1      33.003  -5.185 -24.386  0.00  0.00    +0.138 C 
ATOM     31  C   UNL     1      35.246  -5.783 -25.057  0.00  0.00    -0.000 C 
ATOM     32  C   UNL     1      32.899  -4.338 -25.488  0.00  0.00    +0.029 C 
ATOM     33  C   UNL     1      35.141  -4.934 -26.159  0.00  0.00    -0.000 C 
ATOM     34  C   UNL     1      33.968  -4.212 -26.375  0.00  0.00    +0.002 C 
ENDBRANCH  27  29
ENDBRANCH  24  27
ENDBRANCH  22  25
ENDBRANCH   3  22
TORSDOF 7
ENDMDL
MODEL 5
REMARK VINA RESULT:     -11.0      8.590     12.318
REMARK  Name = 656913
REMARK  7 active torsions:
REMARK  status: ('A' for Active; 'I' for Inactive)
REMARK    1  A    between atoms: N_3  and  C_22
REMARK    2  A    between atoms: N_4  and  C_11
REMARK    3  A    between atoms: C_11  and  C_14
REMARK    4  A    between atoms: C_14  and  C_17
REMARK    5  A    between atoms: C_22  and  C_25
REMARK    6  A    between atoms: N_24  and  C_27
REMARK    7  A    between atoms: C_27  and  C_29
REMARK                            x       y       z     vdW  Elec       q    Type
REMARK                         _______ _______ _______ _____ _____    ______ ____
ROOT
ATOM      1 CL   UNL     1      29.590 -24.214 -15.881  0.00  0.00    -0.064 Cl
ATOM      2  O   UNL     1      34.311 -22.613 -15.245  0.00  0.00    -0.266 OA
ATOM      3  N   UNL     1      32.107 -23.342 -15.575  0.00  0.00    -0.233 N 
ATOM      4  N   UNL     1      34.541 -23.775 -12.827  0.00  0.00    -0.310 N 
ATOM      5  N   UNL     1      32.342 -24.558 -13.048  0.00  0.00    -0.223 NA
ATOM      6  C   UNL     1      33.362 -23.898 -13.519  0.00  0.00    +0.183 C 
ATOM      7  C   UNL     1      33.308 -23.213 -14.878  0.00  0.00    +0.285 C 
ATOM      8  C   UNL     1      31.069 -24.059 -15.012  0.00  0.00    +0.133 C 
ATOM      9  C   UNL     1      31.212 -24.625 -13.810  0.00  0.00    +0.127 C 
ATOM     10  H   UNL     1      35.279 -23.264 -13.231  0.00  0.00    +0.149 HD
ENDROOT
BRANCH   4  11
ATOM     11  C   UNL     1      34.734 -24.365 -11.540  0.00  0.00    +0.162 C 
BRANCH  11  14
ATOM     12  F   UNL     1      36.292 -24.640  -9.805  0.00  0.00    -0.196 F 
ATOM     13  F   UNL     1      36.421 -22.828 -10.992  0.00  0.00    -0.196 F 
ATOM     14  C   UNL     1      36.179 -24.169 -11.083  0.00  0.00    +0.317 C 
BRANCH  14  17
ATOM     15  O   UNL     1      38.831 -23.453 -11.293  0.00  0.00    -0.163 OA
ATOM     16  N   UNL     1      38.437 -24.408 -12.041  0.00  0.00    -0.128 N 
ATOM     17  C   UNL     1      37.139 -24.854 -12.025  0.00  0.00    +0.142 C 
ATOM     18  C   UNL     1      36.699 -25.889 -12.828  0.00  0.00    +0.022 C 
ATOM     19  C   UNL     1      39.329 -25.024 -12.898  0.00  0.00    +0.121 C 
ATOM     20  C   UNL     1      37.606 -26.501 -13.687  0.00  0.00    +0.003 C 
ATOM     21  C   UNL     1      38.928 -26.069 -13.723  0.00  0.00    +0.022 C 
ENDBRANCH  14  17
ENDBRANCH  11  14
ENDBRANCH   4  11
BRANCH   3  22
ATOM     22  C   UNL     1      31.978 -22.711 -16.885  0.00  0.00    +0.184 C 
BRANCH  22  25
ATOM     23  O   UNL     1      33.401 -24.332 -17.976  0.00  0.00    -0.273 OA
ATOM     24  N   UNL     1      33.826 -22.066 -18.273  0.00  0.00    -0.299 N 
ATOM     25  C   UNL     1      33.122 -23.152 -17.773  0.00  0.00    +0.243 C 
ATOM     26  H   UNL     1      33.512 -21.161 -18.045  0.00  0.00    +0.150 HD
BRANCH  24  27
ATOM     27  C   UNL     1      34.998 -22.197 -19.110  0.00  0.00    +0.119 C 
BRANCH  27  29
ATOM     28  F   UNL     1      33.024 -20.703 -20.474  0.00  0.00    -0.204 F 
ATOM     29  C   UNL     1      35.304 -20.927 -19.850  0.00  0.00    +0.025 C 
ATOM     30  C   UNL     1      34.283 -20.243 -20.499  0.00  0.00    +0.138 C 
ATOM     31  C   UNL     1      36.609 -20.449 -19.878  0.00  0.00    -0.000 C 
ATOM     32  C   UNL     1      34.571 -19.064 -21.185  0.00  0.00    +0.029 C 
ATOM     33  C   UNL     1      36.896 -19.269 -20.564  0.00  0.00    -0.000 C 
ATOM     34  C   UNL     1      35.878 -18.577 -21.218  0.00  0.00    +0.002 C 
ENDBRANCH  27  29
ENDBRANCH  24  27
ENDBRANCH  22  25
ENDBRANCH   3  22
TORSDOF 7
ENDMDL
MODEL 6
REMARK VINA RESULT:     -11.0      7.592     13.438
REMARK  Name = 656913
REMARK  7 active torsions:
REMARK  status: ('A' for Active; 'I' for Inactive)
REMARK    1  A    between atoms: N_3  and  C_22
REMARK    2  A    between atoms: N_4  and  C_11
REMARK    3  A    between atoms: C_11  and  C_14
REMARK    4  A    between atoms: C_14  and  C_17
REMARK    5  A    between atoms: C_22  and  C_25
REMARK    6  A    between atoms: N_24  and  C_27
REMARK    7  A    between atoms: C_27  and  C_29
REMARK                            x       y       z     vdW  Elec       q    Type
REMARK                         _______ _______ _______ _____ _____    ______ ____
ROOT
ATOM      1 CL   UNL     1      29.779 -23.893 -14.423  0.00  0.00    -0.064 Cl
ATOM      2  O   UNL     1      34.579 -24.216 -15.877  0.00  0.00    -0.266 OA
ATOM      3  N   UNL     1      32.346 -24.090 -15.170  0.00  0.00    -0.233 N 
ATOM      4  N   UNL     1      34.210 -22.575 -17.980  0.00  0.00    -0.310 N 
ATOM      5  N   UNL     1      31.957 -22.374 -17.367  0.00  0.00    -0.223 NA
ATOM      6  C   UNL     1      33.147 -22.865 -17.163  0.00  0.00    +0.183 C 
ATOM      7  C   UNL     1      33.433 -23.799 -15.996  0.00  0.00    +0.285 C 
ATOM      8  C   UNL     1      31.114 -23.531 -15.449  0.00  0.00    +0.133 C 
ATOM      9  C   UNL     1      30.961 -22.719 -16.499  0.00  0.00    +0.127 C 
ATOM     10  H   UNL     1      35.088 -22.974 -17.779  0.00  0.00    +0.149 HD
ENDROOT
BRANCH   4  11
ATOM     11  C   UNL     1      34.089 -21.713 -19.113  0.00  0.00    +0.162 C 
BRANCH  11  14
ATOM     12  F   UNL     1      36.142 -22.337 -20.066  0.00  0.00    -0.196 F 
ATOM     13  F   UNL     1      36.181 -20.862 -18.476  0.00  0.00    -0.196 F 
ATOM     14  C   UNL     1      35.471 -21.253 -19.575  0.00  0.00    +0.317 C 
BRANCH  14  17
ATOM     15  O   UNL     1      37.432 -19.352 -19.946  0.00  0.00    -0.163 OA
ATOM     16  N   UNL     1      36.399 -19.259 -20.689  0.00  0.00    -0.128 N 
ATOM     17  C   UNL     1      35.357 -20.148 -20.596  0.00  0.00    +0.142 C 
ATOM     18  C   UNL     1      34.233 -20.059 -21.396  0.00  0.00    +0.022 C 
ATOM     19  C   UNL     1      36.311 -18.242 -21.619  0.00  0.00    +0.121 C 
ATOM     20  C   UNL     1      34.155 -19.031 -22.330  0.00  0.00    +0.003 C 
ATOM     21  C   UNL     1      35.197 -18.117 -22.443  0.00  0.00    +0.022 C 
ENDBRANCH  14  17
ENDBRANCH  11  14
ENDBRANCH   4  11
BRANCH   3  22
ATOM     22  C   UNL     1      32.542 -24.980 -14.031  0.00  0.00    +0.184 C 
BRANCH  22  25
ATOM     23  O   UNL     1      33.248 -23.403 -12.341  0.00  0.00    -0.273 OA
ATOM     24  N   UNL     1      34.772 -24.963 -13.145  0.00  0.00    -0.299 N 
ATOM     25  C   UNL     1      33.526 -24.357 -13.064  0.00  0.00    +0.243 C 
ATOM     26  H   UNL     1      34.882 -25.723 -13.761  0.00  0.00    +0.150 HD
BRANCH  24  27
ATOM     27  C   UNL     1      35.914 -24.535 -12.368  0.00  0.00    +0.119 C 
BRANCH  27  29
ATOM     28  F   UNL     1      37.905 -26.363 -11.543  0.00  0.00    -0.204 F 
ATOM     29  C   UNL     1      37.204 -24.727 -13.114  0.00  0.00    +0.025 C 
ATOM     30  C   UNL     1      38.139 -25.645 -12.650  0.00  0.00    +0.138 C 
ATOM     31  C   UNL     1      37.448 -23.983 -14.261  0.00  0.00    -0.000 C 
ATOM     32  C   UNL     1      39.335 -25.821 -13.345  0.00  0.00    +0.029 C 
ATOM     33  C   UNL     1      38.644 -24.159 -14.956  0.00  0.00    -0.000 C 
ATOM     34  C   UNL     1      39.588 -25.078 -14.498  0.00  0.00    +0.002 C 
ENDBRANCH  27  29
ENDBRANCH  24  27
ENDBRANCH  22  25
ENDBRANCH   3  22
TORSDOF 7
ENDMDL
MODEL 7
REMARK VINA RESULT:     -10.8      2.000      2.385
REMARK  Name = 656913
REMARK  7 active torsions:
REMARK  status: ('A' for Active; 'I' for Inactive)
REMARK    1  A    between atoms: N_3  and  C_22
REMARK    2  A    between atoms: N_4  and  C_11
REMARK    3  A    between atoms: C_11  and  C_14
REMARK    4  A    between atoms: C_14  and  C_17
REMARK    5  A    between atoms: C_22  and  C_25
REMARK    6  A    between atoms: N_24  and  C_27
REMARK    7  A    between atoms: C_27  and  C_29
REMARK                            x       y       z     vdW  Elec       q    Type
REMARK                         _______ _______ _______ _____ _____    ______ ____
ROOT
ATOM      1 CL   UNL     1      31.680 -11.404 -20.991  0.00  0.00    -0.064 Cl
ATOM      2  O   UNL     1      34.290 -14.206 -24.246  0.00  0.00    -0.266 OA
ATOM      3  N   UNL     1      33.065 -12.873 -22.755  0.00  0.00    -0.233 N 
ATOM      4  N   UNL     1      34.947 -16.032 -22.380  0.00  0.00    -0.310 N 
ATOM      5  N   UNL     1      33.750 -14.780 -20.801  0.00  0.00    -0.223 NA
ATOM      6  C   UNL     1      34.177 -14.955 -22.019  0.00  0.00    +0.183 C 
ATOM      7  C   UNL     1      33.847 -13.966 -23.129  0.00  0.00    +0.285 C 
ATOM      8  C   UNL     1      32.647 -12.755 -21.444  0.00  0.00    +0.133 C 
ATOM      9  C   UNL     1      32.989 -13.677 -20.539  0.00  0.00    +0.127 C 
ATOM     10  H   UNL     1      35.243 -16.114 -23.316  0.00  0.00    +0.149 HD
ENDROOT
BRANCH   4  11
ATOM     11  C   UNL     1      35.334 -17.040 -21.443  0.00  0.00    +0.162 C 
BRANCH  11  14
ATOM     12  F   UNL     1      36.346 -18.590 -22.888  0.00  0.00    -0.196 F 
ATOM     13  F   UNL     1      34.183 -18.428 -22.946  0.00  0.00    -0.196 F 
ATOM     14  C   UNL     1      35.248 -18.421 -22.092  0.00  0.00    +0.317 C 
BRANCH  14  17
ATOM     15  O   UNL     1      37.430 -19.400 -20.723  0.00  0.00    -0.163 OA
ATOM     16  N   UNL     1      36.297 -19.908 -20.429  0.00  0.00    -0.128 N 
ATOM     17  C   UNL     1      35.139 -19.502 -21.043  0.00  0.00    +0.142 C 
ATOM     18  C   UNL     1      33.905 -20.042 -20.733  0.00  0.00    +0.022 C 
ATOM     19  C   UNL     1      36.215 -20.896 -19.467  0.00  0.00    +0.121 C 
ATOM     20  C   UNL     1      33.835 -21.036 -19.763  0.00  0.00    +0.003 C 
ATOM     21  C   UNL     1      34.994 -21.467 -19.125  0.00  0.00    +0.022 C 
ENDBRANCH  14  17
ENDBRANCH  11  14
ENDBRANCH   4  11
BRANCH   3  22
ATOM     22  C   UNL     1      32.709 -11.880 -23.763  0.00  0.00    +0.184 C 
BRANCH  22  25
ATOM     23  O   UNL     1      34.887 -10.951 -24.242  0.00  0.00    -0.273 OA
ATOM     24  N   UNL     1      33.292  -9.621 -23.200  0.00  0.00    -0.299 N 
ATOM     25  C   UNL     1      33.757 -10.787 -23.790  0.00  0.00    +0.243 C 
ATOM     26  H   UNL     1      32.364  -9.602 -22.871  0.00  0.00    +0.150 HD
BRANCH  24  27
ATOM     27  C   UNL     1      34.100  -8.433 -23.045  0.00  0.00    +0.119 C 
BRANCH  27  29
ATOM     28  F   UNL     1      33.101  -7.870 -20.462  0.00  0.00    -0.204 F 
ATOM     29  C   UNL     1      33.267  -7.221 -22.741  0.00  0.00    +0.025 C 
ATOM     30  C   UNL     1      32.808  -7.007 -21.446  0.00  0.00    +0.138 C 
ATOM     31  C   UNL     1      32.962  -6.327 -23.759  0.00  0.00    -0.000 C 
ATOM     32  C   UNL     1      32.035  -5.881 -21.166  0.00  0.00    +0.029 C 
ATOM     33  C   UNL     1      32.188  -5.201 -23.479  0.00  0.00    -0.000 C 
ATOM     34  C   UNL     1      31.725  -4.978 -22.183  0.00  0.00    +0.002 C 
ENDBRANCH  27  29
ENDBRANCH  24  27
ENDBRANCH  22  25
ENDBRANCH   3  22
TORSDOF 7
ENDMDL
MODEL 8
REMARK VINA RESULT:     -10.8      7.835     12.874
REMARK  Name = 656913
REMARK  7 active torsions:
REMARK  status: ('A' for Active; 'I' for Inactive)
REMARK    1  A    between atoms: N_3  and  C_22
REMARK    2  A    between atoms: N_4  and  C_11
REMARK    3  A    between atoms: C_11  and  C_14
REMARK    4  A    between atoms: C_14  and  C_17
REMARK    5  A    between atoms: C_22  and  C_25
REMARK    6  A    between atoms: N_24  and  C_27
REMARK    7  A    between atoms: C_27  and  C_29
REMARK                            x       y       z     vdW  Elec       q    Type
REMARK                         _______ _______ _______ _____ _____    ______ ____
ROOT
ATOM      1 CL   UNL     1      37.740 -24.099 -12.487  0.00  0.00    -0.064 Cl
ATOM      2  O   UNL     1      34.006 -24.248 -15.847  0.00  0.00    -0.266 OA
ATOM      3  N   UNL     1      35.729 -24.203 -14.257  0.00  0.00    -0.233 N 
ATOM      4  N   UNL     1      35.192 -22.457 -17.471  0.00  0.00    -0.310 N 
ATOM      5  N   UNL     1      36.972 -22.331 -15.951  0.00  0.00    -0.223 NA
ATOM      6  C   UNL     1      35.819 -22.822 -16.306  0.00  0.00    +0.183 C 
ATOM      7  C   UNL     1      35.087 -23.838 -15.440  0.00  0.00    +0.285 C 
ATOM      8  C   UNL     1      36.953 -23.641 -13.949  0.00  0.00    +0.133 C 
ATOM      9  C   UNL     1      37.518 -22.755 -14.774  0.00  0.00    +0.127 C 
ATOM     10  H   UNL     1      34.320 -22.860 -17.689  0.00  0.00    +0.149 HD
ENDROOT
BRANCH   4  11
ATOM     11  C   UNL     1      35.762 -21.513 -18.380  0.00  0.00    +0.162 C 
BRANCH  11  14
ATOM     12  F   UNL     1      33.574 -21.014 -19.071  0.00  0.00    -0.196 F 
ATOM     13  F   UNL     1      34.687 -22.466 -20.236  0.00  0.00    -0.196 F 
ATOM     14  C   UNL     1      34.820 -21.287 -19.562  0.00  0.00    +0.317 C 
BRANCH  14  17
ATOM     15  O   UNL     1      33.210 -19.943 -21.350  0.00  0.00    -0.163 OA
ATOM     16  N   UNL     1      34.434 -19.586 -21.303  0.00  0.00    -0.128 N 
ATOM     17  C   UNL     1      35.332 -20.181 -20.453  0.00  0.00    +0.142 C 
ATOM     18  C   UNL     1      36.659 -19.802 -20.391  0.00  0.00    +0.022 C 
ATOM     19  C   UNL     1      34.885 -18.572 -22.126  0.00  0.00    +0.121 C 
ATOM     20  C   UNL     1      37.103 -18.780 -21.224  0.00  0.00    +0.003 C 
ATOM     21  C   UNL     1      36.213 -18.160 -22.096  0.00  0.00    +0.022 C 
ENDBRANCH  14  17
ENDBRANCH  11  14
ENDBRANCH   4  11
BRANCH   3  22
ATOM     22  C   UNL     1      35.089 -25.172 -13.374  0.00  0.00    +0.184 C 
BRANCH  22  25
ATOM     23  O   UNL     1      33.816 -23.691 -11.950  0.00  0.00    -0.273 OA
ATOM     24  N   UNL     1      32.690 -25.187 -13.326  0.00  0.00    -0.299 N 
ATOM     25  C   UNL     1      33.820 -24.575 -12.803  0.00  0.00    +0.243 C 
ATOM     26  H   UNL     1      32.811 -25.886 -14.009  0.00  0.00    +0.150 HD
BRANCH  24  27
ATOM     27  C   UNL     1      31.344 -24.847 -12.921  0.00  0.00    +0.119 C 
BRANCH  27  29
ATOM     28  F   UNL     1      31.834 -22.386 -14.221  0.00  0.00    -0.204 F 
ATOM     29  C   UNL     1      30.517 -24.356 -14.074  0.00  0.00    +0.025 C 
ATOM     30  C   UNL     1      30.815 -23.135 -14.667  0.00  0.00    +0.138 C 
ATOM     31  C   UNL     1      29.459 -25.131 -14.536  0.00  0.00    -0.000 C 
ATOM     32  C   UNL     1      30.045 -22.682 -15.737  0.00  0.00    +0.029 C 
ATOM     33  C   UNL     1      28.690 -24.677 -15.607  0.00  0.00    -0.000 C 
ATOM     34  C   UNL     1      28.982 -23.453 -16.208  0.00  0.00    +0.002 C 
ENDBRANCH  27  29
ENDBRANCH  24  27
ENDBRANCH  22  25
ENDBRANCH   3  22
TORSDOF 7
ENDMDL
MODEL 9
REMARK VINA RESULT:     -10.6      3.128     10.986
REMARK  Name = 656913
REMARK  7 active torsions:
REMARK  status: ('A' for Active; 'I' for Inactive)
REMARK    1  A    between atoms: N_3  and  C_22
REMARK    2  A    between atoms: N_4  and  C_11
REMARK    3  A    between atoms: C_11  and  C_14
REMARK    4  A    between atoms: C_14  and  C_17
REMARK    5  A    between atoms: C_22  and  C_25
REMARK    6  A    between atoms: N_24  and  C_27
REMARK    7  A    between atoms: C_27  and  C_29
REMARK                            x       y       z     vdW  Elec       q    Type
REMARK                         _______ _______ _______ _____ _____    ______ ____
ROOT
ATOM      1 CL   UNL     1      32.114 -13.607 -20.417  0.00  0.00    -0.064 Cl
ATOM      2  O   UNL     1      33.946 -10.221 -23.647  0.00  0.00    -0.266 OA
ATOM      3  N   UNL     1      33.120 -11.824 -22.148  0.00  0.00    -0.233 N 
ATOM      4  N   UNL     1      31.927  -8.492 -23.215  0.00  0.00    -0.310 N 
ATOM      5  N   UNL     1      31.008 -10.020 -21.693  0.00  0.00    -0.223 NA
ATOM      6  C   UNL     1      31.941  -9.687 -22.540  0.00  0.00    +0.183 C 
ATOM      7  C   UNL     1      33.113 -10.611 -22.837  0.00  0.00    +0.285 C 
ATOM      8  C   UNL     1      32.097 -12.108 -21.265  0.00  0.00    +0.133 C 
ATOM      9  C   UNL     1      31.108 -11.230 -21.070  0.00  0.00    +0.127 C 
ATOM     10  H   UNL     1      32.658  -8.292 -23.844  0.00  0.00    +0.149 HD
ENDROOT
BRANCH   4  11
ATOM     11  C   UNL     1      30.889  -7.527 -23.036  0.00  0.00    +0.162 C 
BRANCH  11  14
ATOM     12  F   UNL     1      31.785  -6.008 -21.486  0.00  0.00    -0.196 F 
ATOM     13  F   UNL     1      30.524  -5.208 -23.060  0.00  0.00    -0.196 F 
ATOM     14  C   UNL     1      31.491  -6.140 -22.814  0.00  0.00    +0.317 C 
BRANCH  14  17
ATOM     15  O   UNL     1      34.009  -6.993 -22.088  0.00  0.00    -0.163 OA
ATOM     16  N   UNL     1      33.908  -6.405 -23.216  0.00  0.00    -0.128 N 
ATOM     17  C   UNL     1      32.707  -5.937 -23.685  0.00  0.00    +0.142 C 
ATOM     18  C   UNL     1      32.584  -5.300 -24.906  0.00  0.00    +0.022 C 
ATOM     19  C   UNL     1      35.032  -6.228 -24.001  0.00  0.00    +0.121 C 
ATOM     20  C   UNL     1      33.722  -5.127 -25.688  0.00  0.00    +0.003 C 
ATOM     21  C   UNL     1      34.952  -5.592 -25.235  0.00  0.00    +0.022 C 
ENDBRANCH  14  17
ENDBRANCH  11  14
ENDBRANCH   4  11
BRANCH   3  22
ATOM     22  C   UNL     1      34.211 -12.764 -22.381  0.00  0.00    +0.184 C 
BRANCH  22  25
ATOM     23  O   UNL     1      32.667 -13.846 -23.894  0.00  0.00    -0.273 OA
ATOM     24  N   UNL     1      34.612 -14.956 -23.272  0.00  0.00    -0.299 N 
ATOM     25  C   UNL     1      33.731 -13.885 -23.280  0.00  0.00    +0.243 C 
ATOM     26  H   UNL     1      35.438 -14.878 -22.743  0.00  0.00    +0.150 HD
BRANCH  24  27
ATOM     27  C   UNL     1      34.378 -16.181 -24.004  0.00  0.00    +0.119 C 
BRANCH  27  29
ATOM     28  F   UNL     1      33.747 -18.804 -24.848  0.00  0.00    -0.204 F 
ATOM     29  C   UNL     1      34.666 -17.397 -23.171  0.00  0.00    +0.025 C 
ATOM     30  C   UNL     1      34.328 -18.658 -23.649  0.00  0.00    +0.138 C 
ATOM     31  C   UNL     1      35.268 -17.247 -21.927  0.00  0.00    -0.000 C 
ATOM     32  C   UNL     1      34.597 -19.784 -22.873  0.00  0.00    +0.029 C 
ATOM     33  C   UNL     1      35.537 -18.374 -21.151  0.00  0.00    -0.000 C 
ATOM     34  C   UNL     1      35.202 -19.643 -21.624  0.00  0.00    +0.002 C 
ENDBRANCH  27  29
ENDBRANCH  24  27
ENDBRANCH  22  25
ENDBRANCH   3  22
TORSDOF 7
ENDMDL
