MODEL 1
REMARK VINA RESULT:     -13.0      0.000      0.000
REMARK  Name = 11560856
REMARK  5 active torsions:
REMARK  status: ('A' for Active; 'I' for Inactive)
REMARK    1  A    between atoms: C_2  and  O_24
REMARK    2  A    between atoms: C_3  and  N_10
REMARK    3  A    between atoms: C_12  and  C_16
REMARK    4  A    between atoms: C_16  and  C_18
REMARK    5  A    between atoms: O_24  and  C_28
REMARK                            x       y       z     vdW  Elec       q    Type
REMARK                         _______ _______ _______ _____ _____    ______ ____
ROOT
ATOM      1  F   UNL     1      36.641 -22.208 -18.592  0.00  0.00    -0.201 F 
ATOM      2  C   UNL     1      34.293 -22.262 -18.925  0.00  0.00    +0.173 C 
ATOM      3  C   UNL     1      34.469 -19.943 -20.428  0.00  0.00    +0.054 C 
ATOM      4  C   UNL     1      35.532 -21.673 -19.120  0.00  0.00    +0.176 C 
ATOM      5  C   UNL     1      33.140 -21.717 -19.465  0.00  0.00    +0.041 C 
ATOM      6  C   UNL     1      35.620 -20.506 -19.877  0.00  0.00    +0.047 C 
ATOM      7  C   UNL     1      33.229 -20.549 -20.222  0.00  0.00    +0.018 C 
ENDROOT
BRANCH   3  10
ATOM      8  O   UNL     1      34.498 -17.482 -25.280  0.00  0.00    -0.274 OA
ATOM      9  O   UNL     1      34.366 -19.546 -23.402  0.00  0.00    -0.252 OA
ATOM     10  N   UNL     1      34.558 -18.776 -21.187  0.00  0.00    -0.268 N 
ATOM     11  N   UNL     1      34.632 -17.282 -22.960  0.00  0.00    -0.239 N 
ATOM     12  C   UNL     1      34.621 -16.795 -24.269  0.00  0.00    +0.234 C 
ATOM     13  C   UNL     1      34.504 -18.636 -22.590  0.00  0.00    +0.310 C 
ATOM     14  H   UNL     1      34.673 -17.941 -20.678  0.00  0.00    +0.156 HD
ATOM     15  H   UNL     1      34.738 -16.624 -22.235  0.00  0.00    +0.159 HD
BRANCH  12  16
ATOM     16  C   UNL     1      34.783 -15.287 -24.297  0.00  0.00    +0.112 C 
BRANCH  16  18
ATOM     17  F   UNL     1      32.129 -12.688 -20.079  0.00  0.00    -0.204 F 
ATOM     18  C   UNL     1      34.072 -14.589 -23.167  0.00  0.00    -0.013 C 
ATOM     19  C   UNL     1      33.021 -13.728 -23.449  0.00  0.00    -0.001 C 
ATOM     20  C   UNL     1      34.478 -14.820 -21.860  0.00  0.00    -0.001 C 
ATOM     21  C   UNL     1      32.363 -13.083 -22.402  0.00  0.00    +0.029 C 
ATOM     22  C   UNL     1      33.820 -14.175 -20.813  0.00  0.00    +0.029 C 
ATOM     23  C   UNL     1      32.762 -13.307 -21.084  0.00  0.00    +0.140 C 
ENDBRANCH  16  18
ENDBRANCH  12  16
ENDBRANCH   3  10
BRANCH   2  24
ATOM     24  O   UNL     1      34.206 -23.419 -18.176  0.00  0.00    -0.451 OA
BRANCH  24  28
ATOM     25  N   UNL     1      34.924 -23.112 -13.586  0.00  0.00    -0.297 N 
ATOM     26  N   UNL     1      32.617 -23.093 -14.277  0.00  0.00    -0.229 NA
ATOM     27  C   UNL     1      34.545 -23.259 -15.782  0.00  0.00    +0.067 C 
ATOM     28  C   UNL     1      33.708 -23.314 -16.908  0.00  0.00    +0.150 C 
ATOM     29  C   UNL     1      33.936 -23.150 -14.535  0.00  0.00    +0.135 C 
ATOM     30  C   UNL     1      35.947 -23.285 -15.555  0.00  0.00    +0.022 C 
ATOM     31  C   UNL     1      36.150 -23.193 -14.194  0.00  0.00    +0.063 C 
ATOM     32  C   UNL     1      32.331 -23.257 -16.698  0.00  0.00    +0.058 C 
ATOM     33  C   UNL     1      31.858 -23.151 -15.396  0.00  0.00    +0.103 C 
ATOM     34  H   UNL     1      34.776 -23.038 -12.615  0.00  0.00    +0.154 HD
ENDBRANCH  24  28
ENDBRANCH   2  24
TORSDOF 5
ENDMDL
MODEL 2
REMARK VINA RESULT:     -12.7      2.491      4.045
REMARK  Name = 11560856
REMARK  5 active torsions:
REMARK  status: ('A' for Active; 'I' for Inactive)
REMARK    1  A    between atoms: C_2  and  O_24
REMARK    2  A    between atoms: C_3  and  N_10
REMARK    3  A    between atoms: C_12  and  C_16
REMARK    4  A    between atoms: C_16  and  C_18
REMARK    5  A    between atoms: O_24  and  C_28
REMARK                            x       y       z     vdW  Elec       q    Type
REMARK                         _______ _______ _______ _____ _____    ______ ____
ROOT
ATOM      1  F   UNL     1      32.844 -23.924 -16.443  0.00  0.00    -0.201 F 
ATOM      2  C   UNL     1      35.052 -23.466 -15.708  0.00  0.00    +0.173 C 
ATOM      3  C   UNL     1      35.437 -21.849 -17.922  0.00  0.00    +0.054 C 
ATOM      4  C   UNL     1      34.020 -23.307 -16.618  0.00  0.00    +0.176 C 
ATOM      5  C   UNL     1      36.272 -22.835 -15.880  0.00  0.00    +0.041 C 
ATOM      6  C   UNL     1      34.214 -22.492 -17.733  0.00  0.00    +0.047 C 
ATOM      7  C   UNL     1      36.466 -22.020 -16.996  0.00  0.00    +0.018 C 
ENDROOT
BRANCH   3  10
ATOM      8  O   UNL     1      33.471 -19.469 -22.403  0.00  0.00    -0.274 OA
ATOM      9  O   UNL     1      33.521 -21.021 -20.080  0.00  0.00    -0.252 OA
ATOM     10  N   UNL     1      35.630 -21.032 -19.037  0.00  0.00    -0.268 N 
ATOM     11  N   UNL     1      35.292 -19.824 -20.988  0.00  0.00    -0.239 N 
ATOM     12  C   UNL     1      34.648 -19.283 -22.104  0.00  0.00    +0.234 C 
ATOM     13  C   UNL     1      34.696 -20.668 -20.030  0.00  0.00    +0.310 C 
ATOM     14  H   UNL     1      36.535 -20.661 -19.145  0.00  0.00    +0.156 HD
ATOM     15  H   UNL     1      36.241 -19.598 -20.860  0.00  0.00    +0.159 HD
BRANCH  12  16
ATOM     16  C   UNL     1      35.593 -18.421 -22.919  0.00  0.00    +0.112 C 
BRANCH  16  18
ATOM     17  F   UNL     1      33.240 -13.651 -24.738  0.00  0.00    -0.204 F 
ATOM     18  C   UNL     1      34.963 -17.142 -23.407  0.00  0.00    -0.013 C 
ATOM     19  C   UNL     1      34.442 -17.085 -24.692  0.00  0.00    -0.001 C 
ATOM     20  C   UNL     1      34.912 -16.042 -22.564  0.00  0.00    -0.001 C 
ATOM     21  C   UNL     1      33.859 -15.900 -25.144  0.00  0.00    +0.029 C 
ATOM     22  C   UNL     1      34.329 -14.858 -23.015  0.00  0.00    +0.029 C 
ATOM     23  C   UNL     1      33.801 -14.788 -24.304  0.00  0.00    +0.140 C 
ENDBRANCH  16  18
ENDBRANCH  12  16
ENDBRANCH   3  10
BRANCH   2  24
ATOM     24  O   UNL     1      34.860 -24.273 -14.603  0.00  0.00    -0.451 OA
BRANCH  24  28
ATOM     25  N   UNL     1      38.189 -24.384 -11.349  0.00  0.00    -0.297 N 
ATOM     26  N   UNL     1      38.260 -26.168 -12.967  0.00  0.00    -0.229 NA
ATOM     27  C   UNL     1      36.606 -24.359 -12.925  0.00  0.00    +0.067 C 
ATOM     28  C   UNL     1      35.961 -24.874 -14.061  0.00  0.00    +0.150 C 
ATOM     29  C   UNL     1      37.719 -25.049 -12.452  0.00  0.00    +0.135 C 
ATOM     30  C   UNL     1      36.415 -23.246 -12.064  0.00  0.00    +0.022 C 
ATOM     31  C   UNL     1      37.404 -23.288 -11.104  0.00  0.00    +0.063 C 
ATOM     32  C   UNL     1      36.481 -26.033 -14.634  0.00  0.00    +0.058 C 
ATOM     33  C   UNL     1      37.601 -26.618 -14.059  0.00  0.00    +0.103 C 
ATOM     34  H   UNL     1      38.970 -24.654 -10.815  0.00  0.00    +0.154 HD
ENDBRANCH  24  28
ENDBRANCH   2  24
TORSDOF 5
ENDMDL
MODEL 3
REMARK VINA RESULT:     -12.4      0.540      1.720
REMARK  Name = 11560856
REMARK  5 active torsions:
REMARK  status: ('A' for Active; 'I' for Inactive)
REMARK    1  A    between atoms: C_2  and  O_24
REMARK    2  A    between atoms: C_3  and  N_10
REMARK    3  A    between atoms: C_12  and  C_16
REMARK    4  A    between atoms: C_16  and  C_18
REMARK    5  A    between atoms: O_24  and  C_28
REMARK                            x       y       z     vdW  Elec       q    Type
REMARK                         _______ _______ _______ _____ _____    ______ ____
ROOT
ATOM      1  F   UNL     1      36.546 -22.395 -18.573  0.00  0.00    -0.201 F 
ATOM      2  C   UNL     1      34.189 -22.337 -18.827  0.00  0.00    +0.173 C 
ATOM      3  C   UNL     1      34.421 -20.024 -20.331  0.00  0.00    +0.054 C 
ATOM      4  C   UNL     1      35.446 -21.807 -19.062  0.00  0.00    +0.176 C 
ATOM      5  C   UNL     1      33.045 -21.737 -19.325  0.00  0.00    +0.041 C 
ATOM      6  C   UNL     1      35.563 -20.642 -19.821  0.00  0.00    +0.047 C 
ATOM      7  C   UNL     1      33.162 -20.572 -20.083  0.00  0.00    +0.018 C 
ENDROOT
BRANCH   3  10
ATOM      8  O   UNL     1      34.508 -17.568 -25.184  0.00  0.00    -0.274 OA
ATOM      9  O   UNL     1      34.326 -19.627 -23.305  0.00  0.00    -0.252 OA
ATOM     10  N   UNL     1      34.539 -18.860 -21.090  0.00  0.00    -0.268 N 
ATOM     11  N   UNL     1      34.649 -17.370 -22.864  0.00  0.00    -0.239 N 
ATOM     12  C   UNL     1      34.649 -16.884 -24.174  0.00  0.00    +0.234 C 
ATOM     13  C   UNL     1      34.488 -18.720 -22.493  0.00  0.00    +0.310 C 
ATOM     14  H   UNL     1      34.676 -18.029 -20.582  0.00  0.00    +0.156 HD
ATOM     15  H   UNL     1      34.773 -16.715 -22.140  0.00  0.00    +0.159 HD
BRANCH  12  16
ATOM     16  C   UNL     1      34.849 -15.380 -24.203  0.00  0.00    +0.112 C 
BRANCH  16  18
ATOM     17  F   UNL     1      32.094 -12.691 -20.107  0.00  0.00    -0.204 F 
ATOM     18  C   UNL     1      34.112 -14.659 -23.106  0.00  0.00    -0.013 C 
ATOM     19  C   UNL     1      33.041 -13.837 -23.428  0.00  0.00    -0.001 C 
ATOM     20  C   UNL     1      34.513 -14.828 -21.789  0.00  0.00    -0.001 C 
ATOM     21  C   UNL     1      32.357 -13.170 -22.411  0.00  0.00    +0.029 C 
ATOM     22  C   UNL     1      33.830 -14.160 -20.772  0.00  0.00    +0.029 C 
ATOM     23  C   UNL     1      32.752 -13.332 -21.083  0.00  0.00    +0.140 C 
ENDBRANCH  16  18
ENDBRANCH  12  16
ENDBRANCH   3  10
BRANCH   2  24
ATOM     24  O   UNL     1      34.072 -23.492 -18.076  0.00  0.00    -0.451 OA
BRANCH  24  28
ATOM     25  N   UNL     1      31.478 -22.998 -14.242  0.00  0.00    -0.297 N 
ATOM     26  N   UNL     1      33.859 -23.076 -13.880  0.00  0.00    -0.229 NA
ATOM     27  C   UNL     1      32.751 -23.233 -16.061  0.00  0.00    +0.067 C 
ATOM     28  C   UNL     1      33.986 -23.356 -16.719  0.00  0.00    +0.150 C 
ATOM     29  C   UNL     1      32.774 -23.102 -14.676  0.00  0.00    +0.135 C 
ATOM     30  C   UNL     1      31.387 -23.206 -16.455  0.00  0.00    +0.022 C 
ATOM     31  C   UNL     1      30.627 -23.060 -15.314  0.00  0.00    +0.063 C 
ATOM     32  C   UNL     1      35.142 -23.337 -15.941  0.00  0.00    +0.058 C 
ATOM     33  C   UNL     1      35.019 -23.197 -14.565  0.00  0.00    +0.103 C 
ATOM     34  H   UNL     1      31.201 -22.895 -13.302  0.00  0.00    +0.154 HD
ENDBRANCH  24  28
ENDBRANCH   2  24
TORSDOF 5
ENDMDL
MODEL 4
REMARK VINA RESULT:     -12.3      4.031     11.173
REMARK  Name = 11560856
REMARK  5 active torsions:
REMARK  status: ('A' for Active; 'I' for Inactive)
REMARK    1  A    between atoms: C_2  and  O_24
REMARK    2  A    between atoms: C_3  and  N_10
REMARK    3  A    between atoms: C_12  and  C_16
REMARK    4  A    between atoms: C_16  and  C_18
REMARK    5  A    between atoms: O_24  and  C_28
REMARK                            x       y       z     vdW  Elec       q    Type
REMARK                         _______ _______ _______ _____ _____    ______ ____
ROOT
ATOM      1  F   UNL     1      31.038 -12.158 -20.272  0.00  0.00    -0.201 F 
ATOM      2  C   UNL     1      32.463 -11.839 -22.141  0.00  0.00    +0.173 C 
ATOM      3  C   UNL     1      33.792 -14.184 -21.509  0.00  0.00    +0.054 C 
ATOM      4  C   UNL     1      32.058 -12.570 -21.036  0.00  0.00    +0.176 C 
ATOM      5  C   UNL     1      33.517 -12.254 -22.936  0.00  0.00    +0.041 C 
ATOM      6  C   UNL     1      32.727 -13.752 -20.719  0.00  0.00    +0.047 C 
ATOM      7  C   UNL     1      34.186 -13.435 -22.618  0.00  0.00    +0.018 C 
ENDROOT
BRANCH   3  10
ATOM      8  O   UNL     1      35.853 -18.977 -23.054  0.00  0.00    -0.274 OA
ATOM      9  O   UNL     1      34.564 -16.506 -23.250  0.00  0.00    -0.252 OA
ATOM     10  N   UNL     1      34.460 -15.367 -21.193  0.00  0.00    -0.268 N 
ATOM     11  N   UNL     1      35.476 -17.447 -21.333  0.00  0.00    -0.239 N 
ATOM     12  C   UNL     1      35.954 -18.643 -21.876  0.00  0.00    +0.234 C 
ATOM     13  C   UNL     1      34.804 -16.436 -22.047  0.00  0.00    +0.310 C 
ATOM     14  H   UNL     1      34.726 -15.470 -20.251  0.00  0.00    +0.156 HD
ATOM     15  H   UNL     1      35.621 -17.300 -20.370  0.00  0.00    +0.159 HD
BRANCH  12  16
ATOM     16  C   UNL     1      36.625 -19.499 -20.819  0.00  0.00    +0.112 C 
BRANCH  16  18
ATOM     17  F   UNL     1      33.043 -22.811 -18.028  0.00  0.00    -0.204 F 
ATOM     18  C   UNL     1      35.665 -20.387 -20.072  0.00  0.00    -0.013 C 
ATOM     19  C   UNL     1      36.154 -21.282 -19.131  0.00  0.00    -0.001 C 
ATOM     20  C   UNL     1      34.306 -20.296 -20.334  0.00  0.00    -0.001 C 
ATOM     21  C   UNL     1      35.265 -22.105 -18.439  0.00  0.00    +0.029 C 
ATOM     22  C   UNL     1      33.417 -21.119 -19.642  0.00  0.00    +0.029 C 
ATOM     23  C   UNL     1      33.896 -22.022 -18.694  0.00  0.00    +0.140 C 
ENDBRANCH  16  18
ENDBRANCH  12  16
ENDBRANCH   3  10
BRANCH   2  24
ATOM     24  O   UNL     1      31.800 -10.669 -22.456  0.00  0.00    -0.451 OA
BRANCH  24  28
ATOM     25  N   UNL     1      34.627  -6.970 -22.511  0.00  0.00    -0.297 N 
ATOM     26  N   UNL     1      33.140  -7.110 -20.621  0.00  0.00    -0.229 NA
ATOM     27  C   UNL     1      33.258  -8.733 -22.454  0.00  0.00    +0.067 C 
ATOM     28  C   UNL     1      32.245  -9.515 -21.875  0.00  0.00    +0.150 C 
ATOM     29  C   UNL     1      33.638  -7.575 -21.781  0.00  0.00    +0.135 C 
ATOM     30  C   UNL     1      34.057  -8.810 -23.625  0.00  0.00    +0.022 C 
ATOM     31  C   UNL     1      34.890  -7.711 -23.633  0.00  0.00    +0.063 C 
ATOM     32  C   UNL     1      31.694  -9.077 -20.671  0.00  0.00    +0.058 C 
ATOM     33  C   UNL     1      32.170  -7.901 -20.107  0.00  0.00    +0.103 C 
ATOM     34  H   UNL     1      35.080  -6.130 -22.266  0.00  0.00    +0.154 HD
ENDBRANCH  24  28
ENDBRANCH   2  24
TORSDOF 5
ENDMDL
MODEL 5
REMARK VINA RESULT:     -12.2      3.037     10.604
REMARK  Name = 11560856
REMARK  5 active torsions:
REMARK  status: ('A' for Active; 'I' for Inactive)
REMARK    1  A    between atoms: C_2  and  O_24
REMARK    2  A    between atoms: C_3  and  N_10
REMARK    3  A    between atoms: C_12  and  C_16
REMARK    4  A    between atoms: C_16  and  C_18
REMARK    5  A    between atoms: O_24  and  C_28
REMARK                            x       y       z     vdW  Elec       q    Type
REMARK                         _______ _______ _______ _____ _____    ______ ____
ROOT
ATOM      1  F   UNL     1      37.943 -18.399 -21.731  0.00  0.00    -0.201 F 
ATOM      2  C   UNL     1      35.610 -18.774 -21.930  0.00  0.00    +0.173 C 
ATOM      3  C   UNL     1      35.744 -20.614 -19.865  0.00  0.00    +0.054 C 
ATOM      4  C   UNL     1      36.831 -19.028 -21.328  0.00  0.00    +0.176 C 
ATOM      5  C   UNL     1      34.454 -19.419 -21.523  0.00  0.00    +0.041 C 
ATOM      6  C   UNL     1      36.898 -19.954 -20.287  0.00  0.00    +0.047 C 
ATOM      7  C   UNL     1      34.522 -20.346 -20.482  0.00  0.00    +0.018 C 
ENDROOT
BRANCH   3  10
ATOM      8  O   UNL     1      37.719 -22.098 -15.018  0.00  0.00    -0.274 OA
ATOM      9  O   UNL     1      37.297 -20.538 -17.297  0.00  0.00    -0.252 OA
ATOM     10  N   UNL     1      35.811 -21.539 -18.823  0.00  0.00    -0.268 N 
ATOM     11  N   UNL     1      36.349 -22.608 -16.836  0.00  0.00    -0.239 N 
ATOM     12  C   UNL     1      36.937 -22.852 -15.592  0.00  0.00    +0.234 C 
ATOM     13  C   UNL     1      36.559 -21.462 -17.628  0.00  0.00    +0.310 C 
ATOM     14  H   UNL     1      35.268 -22.351 -18.935  0.00  0.00    +0.156 HD
ATOM     15  H   UNL     1      35.738 -23.294 -17.188  0.00  0.00    +0.159 HD
BRANCH  12  16
ATOM     16  C   UNL     1      36.488 -24.184 -15.023  0.00  0.00    +0.112 C 
BRANCH  16  18
ATOM     17  F   UNL     1      35.962 -24.156  -9.426  0.00  0.00    -0.204 F 
ATOM     18  C   UNL     1      36.347 -24.175 -13.523  0.00  0.00    -0.013 C 
ATOM     19  C   UNL     1      35.114 -23.890 -12.954  0.00  0.00    -0.001 C 
ATOM     20  C   UNL     1      37.452 -24.455 -12.733  0.00  0.00    -0.001 C 
ATOM     21  C   UNL     1      34.984 -23.882 -11.565  0.00  0.00    +0.029 C 
ATOM     22  C   UNL     1      37.322 -24.448 -11.343  0.00  0.00    +0.029 C 
ATOM     23  C   UNL     1      36.088 -24.163 -10.760  0.00  0.00    +0.140 C 
ENDBRANCH  16  18
ENDBRANCH  12  16
ENDBRANCH   3  10
BRANCH   2  24
ATOM     24  O   UNL     1      35.542 -17.856 -22.960  0.00  0.00    -0.451 OA
BRANCH  24  28
ATOM     25  N   UNL     1      33.089 -14.192 -24.455  0.00  0.00    -0.297 N 
ATOM     26  N   UNL     1      33.659 -14.173 -22.114  0.00  0.00    -0.229 NA
ATOM     27  C   UNL     1      34.267 -15.935 -23.706  0.00  0.00    +0.067 C 
ATOM     28  C   UNL     1      34.928 -16.663 -22.703  0.00  0.00    +0.150 C 
ATOM     29  C   UNL     1      33.672 -14.731 -23.338  0.00  0.00    +0.135 C 
ATOM     30  C   UNL     1      34.021 -16.109 -25.094  0.00  0.00    +0.022 C 
ATOM     31  C   UNL     1      33.294 -15.020 -25.527  0.00  0.00    +0.063 C 
ATOM     32  C   UNL     1      34.944 -16.129 -21.415  0.00  0.00    +0.058 C 
ATOM     33  C   UNL     1      34.310 -14.914 -21.188  0.00  0.00    +0.103 C 
ATOM     34  H   UNL     1      32.597 -13.339 -24.481  0.00  0.00    +0.154 HD
ENDBRANCH  24  28
ENDBRANCH   2  24
TORSDOF 5
ENDMDL
MODEL 6
REMARK VINA RESULT:     -12.2      2.941      9.616
REMARK  Name = 11560856
REMARK  5 active torsions:
REMARK  status: ('A' for Active; 'I' for Inactive)
REMARK    1  A    between atoms: C_2  and  O_24
REMARK    2  A    between atoms: C_3  and  N_10
REMARK    3  A    between atoms: C_12  and  C_16
REMARK    4  A    between atoms: C_16  and  C_18
REMARK    5  A    between atoms: O_24  and  C_28
REMARK                            x       y       z     vdW  Elec       q    Type
REMARK                         _______ _______ _______ _____ _____    ______ ____
ROOT
ATOM      1  F   UNL     1      36.967 -21.129 -19.873  0.00  0.00    -0.201 F 
ATOM      2  C   UNL     1      34.993 -20.137 -20.738  0.00  0.00    +0.173 C 
ATOM      3  C   UNL     1      33.485 -21.610 -18.943  0.00  0.00    +0.054 C 
ATOM      4  C   UNL     1      35.633 -20.999 -19.862  0.00  0.00    +0.176 C 
ATOM      5  C   UNL     1      33.616 -19.996 -20.737  0.00  0.00    +0.041 C 
ATOM      6  C   UNL     1      34.873 -21.740 -18.958  0.00  0.00    +0.047 C 
ATOM      7  C   UNL     1      32.856 -20.738 -19.832  0.00  0.00    +0.018 C 
ENDROOT
BRANCH   3  10
ATOM      8  O   UNL     1      33.107 -24.335 -14.249  0.00  0.00    -0.274 OA
ATOM      9  O   UNL     1      34.248 -22.833 -16.310  0.00  0.00    -0.252 OA
ATOM     10  N   UNL     1      32.725 -22.351 -18.038  0.00  0.00    -0.268 N 
ATOM     11  N   UNL     1      32.054 -23.585 -16.192  0.00  0.00    -0.239 N 
ATOM     12  C   UNL     1      32.111 -24.250 -14.964  0.00  0.00    +0.234 C 
ATOM     13  C   UNL     1      33.127 -22.909 -16.805  0.00  0.00    +0.310 C 
ATOM     14  H   UNL     1      31.787 -22.505 -18.290  0.00  0.00    +0.156 HD
ATOM     15  H   UNL     1      31.193 -23.591 -16.668  0.00  0.00    +0.159 HD
BRANCH  12  16
ATOM     16  C   UNL     1      30.771 -24.867 -14.610  0.00  0.00    +0.112 C 
BRANCH  16  18
ATOM     17  F   UNL     1      26.388 -21.912 -16.521  0.00  0.00    -0.204 F 
ATOM     18  C   UNL     1      29.596 -24.075 -15.121  0.00  0.00    -0.013 C 
ATOM     19  C   UNL     1      29.278 -22.862 -14.526  0.00  0.00    -0.001 C 
ATOM     20  C   UNL     1      28.850 -24.570 -16.181  0.00  0.00    -0.001 C 
ATOM     21  C   UNL     1      28.190 -22.129 -15.000  0.00  0.00    +0.029 C 
ATOM     22  C   UNL     1      27.761 -23.837 -16.655  0.00  0.00    +0.029 C 
ATOM     23  C   UNL     1      27.433 -22.617 -16.065  0.00  0.00    +0.140 C 
ENDBRANCH  16  18
ENDBRANCH  12  16
ENDBRANCH   3  10
BRANCH   2  24
ATOM     24  O   UNL     1      35.746 -19.402 -21.633  0.00  0.00    -0.451 OA
BRANCH  24  28
ATOM     25  N   UNL     1      34.062 -15.625 -23.774  0.00  0.00    -0.297 N 
ATOM     26  N   UNL     1      33.724 -17.711 -24.932  0.00  0.00    -0.229 NA
ATOM     27  C   UNL     1      34.857 -17.457 -22.773  0.00  0.00    +0.067 C 
ATOM     28  C   UNL     1      35.093 -18.839 -22.694  0.00  0.00    +0.150 C 
ATOM     29  C   UNL     1      34.184 -16.985 -23.897  0.00  0.00    +0.135 C 
ATOM     30  C   UNL     1      35.141 -16.328 -21.959  0.00  0.00    +0.022 C 
ATOM     31  C   UNL     1      34.640 -15.215 -22.601  0.00  0.00    +0.063 C 
ATOM     32  C   UNL     1      34.637 -19.638 -23.741  0.00  0.00    +0.058 C 
ATOM     33  C   UNL     1      33.977 -19.034 -24.803  0.00  0.00    +0.103 C 
ATOM     34  H   UNL     1      33.626 -15.034 -24.429  0.00  0.00    +0.154 HD
ENDBRANCH  24  28
ENDBRANCH   2  24
TORSDOF 5
ENDMDL
MODEL 7
REMARK VINA RESULT:     -12.1      2.446      3.766
REMARK  Name = 11560856
REMARK  5 active torsions:
REMARK  status: ('A' for Active; 'I' for Inactive)
REMARK    1  A    between atoms: C_2  and  O_24
REMARK    2  A    between atoms: C_3  and  N_10
REMARK    3  A    between atoms: C_12  and  C_16
REMARK    4  A    between atoms: C_16  and  C_18
REMARK    5  A    between atoms: O_24  and  C_28
REMARK                            x       y       z     vdW  Elec       q    Type
REMARK                         _______ _______ _______ _____ _____    ______ ____
ROOT
ATOM      1  F   UNL     1      31.969 -23.646 -16.325  0.00  0.00    -0.201 F 
ATOM      2  C   UNL     1      34.304 -23.301 -16.095  0.00  0.00    +0.173 C 
ATOM      3  C   UNL     1      34.321 -21.921 -18.496  0.00  0.00    +0.054 C 
ATOM      4  C   UNL     1      33.118 -23.142 -16.793  0.00  0.00    +0.176 C 
ATOM      5  C   UNL     1      35.498 -22.785 -16.571  0.00  0.00    +0.041 C 
ATOM      6  C   UNL     1      33.127 -22.446 -18.002  0.00  0.00    +0.047 C 
ATOM      7  C   UNL     1      35.506 -22.090 -17.780  0.00  0.00    +0.018 C 
ENDROOT
BRANCH   3  10
ATOM      8  O   UNL     1      36.839 -18.590 -21.984  0.00  0.00    -0.274 OA
ATOM      9  O   UNL     1      36.413 -20.130 -19.693  0.00  0.00    -0.252 OA
ATOM     10  N   UNL     1      34.329 -21.224 -19.704  0.00  0.00    -0.268 N 
ATOM     11  N   UNL     1      34.956 -19.873 -21.483  0.00  0.00    -0.239 N 
ATOM     12  C   UNL     1      35.722 -19.014 -22.274  0.00  0.00    +0.234 C 
ATOM     13  C   UNL     1      35.339 -20.390 -20.229  0.00  0.00    +0.310 C 
ATOM     14  H   UNL     1      33.526 -21.326 -20.263  0.00  0.00    +0.156 HD
ATOM     15  H   UNL     1      34.074 -20.140 -21.830  0.00  0.00    +0.159 HD
BRANCH  12  16
ATOM     16  C   UNL     1      35.000 -18.658 -23.559  0.00  0.00    +0.112 C 
BRANCH  16  18
ATOM     17  F   UNL     1      33.494 -13.250 -23.843  0.00  0.00    -0.204 F 
ATOM     18  C   UNL     1      34.597 -17.208 -23.636  0.00  0.00    -0.013 C 
ATOM     19  C   UNL     1      33.943 -16.740 -24.767  0.00  0.00    -0.001 C 
ATOM     20  C   UNL     1      34.885 -16.363 -22.574  0.00  0.00    -0.001 C 
ATOM     21  C   UNL     1      33.570 -15.397 -24.837  0.00  0.00    +0.029 C 
ATOM     22  C   UNL     1      34.512 -15.021 -22.644  0.00  0.00    +0.029 C 
ATOM     23  C   UNL     1      33.853 -14.539 -23.775  0.00  0.00    +0.140 C 
ENDBRANCH  16  18
ENDBRANCH  12  16
ENDBRANCH   3  10
BRANCH   2  24
ATOM     24  O   UNL     1      34.296 -23.989 -14.898  0.00  0.00    -0.451 OA
BRANCH  24  28
ATOM     25  N   UNL     1      38.114 -26.401 -13.766  0.00  0.00    -0.297 N 
ATOM     26  N   UNL     1      37.932 -24.218 -12.763  0.00  0.00    -0.229 NA
ATOM     27  C   UNL     1      36.294 -25.218 -14.288  0.00  0.00    +0.067 C 
ATOM     28  C   UNL     1      35.475 -24.079 -14.213  0.00  0.00    +0.150 C 
ATOM     29  C   UNL     1      37.475 -25.207 -13.552  0.00  0.00    +0.135 C 
ATOM     30  C   UNL     1      36.238 -26.467 -14.960  0.00  0.00    +0.022 C 
ATOM     31  C   UNL     1      37.372 -27.174 -14.620  0.00  0.00    +0.063 C 
ATOM     32  C   UNL     1      35.902 -23.023 -13.410  0.00  0.00    +0.058 C 
ATOM     33  C   UNL     1      37.106 -23.147 -12.727  0.00  0.00    +0.103 C 
ATOM     34  H   UNL     1      38.976 -26.662 -13.367  0.00  0.00    +0.154 HD
ENDBRANCH  24  28
ENDBRANCH   2  24
TORSDOF 5
ENDMDL
MODEL 8
REMARK VINA RESULT:     -12.1      4.754     11.756
REMARK  Name = 11560856
REMARK  5 active torsions:
REMARK  status: ('A' for Active; 'I' for Inactive)
REMARK    1  A    between atoms: C_2  and  O_24
REMARK    2  A    between atoms: C_3  and  N_10
REMARK    3  A    between atoms: C_12  and  C_16
REMARK    4  A    between atoms: C_16  and  C_18
REMARK    5  A    between atoms: O_24  and  C_28
REMARK                            x       y       z     vdW  Elec       q    Type
REMARK                         _______ _______ _______ _____ _____    ______ ____
ROOT
ATOM      1  F   UNL     1      30.529 -11.522 -20.403  0.00  0.00    -0.201 F 
ATOM      2  C   UNL     1      31.980 -10.826 -22.145  0.00  0.00    +0.173 C 
ATOM      3  C   UNL     1      33.387 -13.199 -21.900  0.00  0.00    +0.054 C 
ATOM      4  C   UNL     1      31.581 -11.756 -21.198  0.00  0.00    +0.176 C 
ATOM      5  C   UNL     1      33.067 -11.056 -22.971  0.00  0.00    +0.041 C 
ATOM      6  C   UNL     1      32.289 -12.951 -21.077  0.00  0.00    +0.047 C 
ATOM      7  C   UNL     1      33.775 -12.251 -22.848  0.00  0.00    +0.018 C 
ENDROOT
BRANCH   3  10
ATOM      8  O   UNL     1      34.879 -18.007 -23.963  0.00  0.00    -0.274 OA
ATOM      9  O   UNL     1      33.629 -15.514 -23.796  0.00  0.00    -0.252 OA
ATOM     10  N   UNL     1      34.094 -14.395 -21.779  0.00  0.00    -0.268 N 
ATOM     11  N   UNL     1      35.000 -16.489 -22.195  0.00  0.00    -0.239 N 
ATOM     12  C   UNL     1      35.295 -17.686 -22.853  0.00  0.00    +0.234 C 
ATOM     13  C   UNL     1      34.180 -15.460 -22.700  0.00  0.00    +0.310 C 
ATOM     14  H   UNL     1      34.598 -14.512 -20.942  0.00  0.00    +0.156 HD
ATOM     15  H   UNL     1      35.397 -16.353 -21.305  0.00  0.00    +0.159 HD
BRANCH  12  16
ATOM     16  C   UNL     1      36.208 -18.563 -22.016  0.00  0.00    +0.112 C 
BRANCH  16  18
ATOM     17  F   UNL     1      33.425 -22.121 -18.670  0.00  0.00    -0.204 F 
ATOM     18  C   UNL     1      35.462 -19.517 -21.120  0.00  0.00    -0.013 C 
ATOM     19  C   UNL     1      36.172 -20.331 -20.248  0.00  0.00    -0.001 C 
ATOM     20  C   UNL     1      34.077 -19.567 -21.179  0.00  0.00    -0.001 C 
ATOM     21  C   UNL     1      35.481 -21.215 -19.418  0.00  0.00    +0.029 C 
ATOM     22  C   UNL     1      33.386 -20.451 -20.349  0.00  0.00    +0.029 C 
ATOM     23  C   UNL     1      34.088 -21.273 -19.468  0.00  0.00    +0.140 C 
ENDBRANCH  16  18
ENDBRANCH  12  16
ENDBRANCH   3  10
BRANCH   2  24
ATOM     24  O   UNL     1      31.278  -9.643 -22.267  0.00  0.00    -0.451 OA
BRANCH  24  28
ATOM     25  N   UNL     1      31.930  -5.052 -21.838  0.00  0.00    -0.297 N 
ATOM     26  N   UNL     1      32.618  -6.378 -19.948  0.00  0.00    -0.229 NA
ATOM     27  C   UNL     1      31.632  -7.259 -22.012  0.00  0.00    +0.067 C 
ATOM     28  C   UNL     1      31.708  -8.575 -21.529  0.00  0.00    +0.150 C 
ATOM     29  C   UNL     1      32.095  -6.243 -21.180  0.00  0.00    +0.135 C 
ATOM     30  C   UNL     1      31.176  -6.638 -23.205  0.00  0.00    +0.022 C 
ATOM     31  C   UNL     1      31.372  -5.280 -23.069  0.00  0.00    +0.063 C 
ATOM     32  C   UNL     1      32.241  -8.771 -20.256  0.00  0.00    +0.058 C 
ATOM     33  C   UNL     1      32.669  -7.665 -19.534  0.00  0.00    +0.103 C 
ATOM     34  H   UNL     1      32.174  -4.168 -21.480  0.00  0.00    +0.154 HD
ENDBRANCH  24  28
ENDBRANCH   2  24
TORSDOF 5
ENDMDL
MODEL 9
REMARK VINA RESULT:     -12.1      2.684      9.977
REMARK  Name = 11560856
REMARK  5 active torsions:
REMARK  status: ('A' for Active; 'I' for Inactive)
REMARK    1  A    between atoms: C_2  and  O_24
REMARK    2  A    between atoms: C_3  and  N_10
REMARK    3  A    between atoms: C_12  and  C_16
REMARK    4  A    between atoms: C_16  and  C_18
REMARK    5  A    between atoms: O_24  and  C_28
REMARK                            x       y       z     vdW  Elec       q    Type
REMARK                         _______ _______ _______ _____ _____    ______ ____
ROOT
ATOM      1  F   UNL     1      37.906 -18.322 -21.678  0.00  0.00    -0.201 F 
ATOM      2  C   UNL     1      35.578 -18.654 -21.993  0.00  0.00    +0.173 C 
ATOM      3  C   UNL     1      35.574 -20.484 -19.915  0.00  0.00    +0.054 C 
ATOM      4  C   UNL     1      36.763 -18.927 -21.329  0.00  0.00    +0.176 C 
ATOM      5  C   UNL     1      34.392 -19.275 -21.642  0.00  0.00    +0.041 C 
ATOM      6  C   UNL     1      36.759 -19.848 -20.282  0.00  0.00    +0.047 C 
ATOM      7  C   UNL     1      34.390 -20.197 -20.595  0.00  0.00    +0.018 C 
ENDROOT
BRANCH   3  10
ATOM      8  O   UNL     1      37.610 -22.218 -15.177  0.00  0.00    -0.274 OA
ATOM      9  O   UNL     1      37.278 -20.624 -17.448  0.00  0.00    -0.252 OA
ATOM     10  N   UNL     1      35.571 -21.404 -18.867  0.00  0.00    -0.268 N 
ATOM     11  N   UNL     1      36.070 -22.531 -16.902  0.00  0.00    -0.239 N 
ATOM     12  C   UNL     1      36.693 -22.852 -15.693  0.00  0.00    +0.234 C 
ATOM     13  C   UNL     1      36.394 -21.431 -17.721  0.00  0.00    +0.310 C 
ATOM     14  H   UNL     1      34.909 -22.129 -18.935  0.00  0.00    +0.156 HD
ATOM     15  H   UNL     1      35.345 -23.122 -17.207  0.00  0.00    +0.159 HD
BRANCH  12  16
ATOM     16  C   UNL     1      36.091 -24.102 -15.079  0.00  0.00    +0.112 C 
BRANCH  16  18
ATOM     17  F   UNL     1      30.705 -23.489 -13.595  0.00  0.00    -0.204 F 
ATOM     18  C   UNL     1      34.648 -23.936 -14.681  0.00  0.00    -0.013 C 
ATOM     19  C   UNL     1      33.734 -23.460 -15.610  0.00  0.00    -0.001 C 
ATOM     20  C   UNL     1      34.254 -24.265 -13.392  0.00  0.00    -0.001 C 
ATOM     21  C   UNL     1      32.397 -23.308 -15.241  0.00  0.00    +0.029 C 
ATOM     22  C   UNL     1      32.917 -24.112 -13.024  0.00  0.00    +0.029 C 
ATOM     23  C   UNL     1      31.989 -23.635 -13.948  0.00  0.00    +0.140 C 
ENDBRANCH  16  18
ENDBRANCH  12  16
ENDBRANCH   3  10
BRANCH   2  24
ATOM     24  O   UNL     1      35.581 -17.740 -23.029  0.00  0.00    -0.451 OA
BRANCH  24  28
ATOM     25  N   UNL     1      33.077 -14.185 -24.693  0.00  0.00    -0.297 N 
ATOM     26  N   UNL     1      33.607 -14.070 -22.346  0.00  0.00    -0.229 NA
ATOM     27  C   UNL     1      34.278 -15.875 -23.864  0.00  0.00    +0.067 C 
ATOM     28  C   UNL     1      34.938 -16.552 -22.825  0.00  0.00    +0.150 C 
ATOM     29  C   UNL     1      33.653 -14.672 -23.549  0.00  0.00    +0.135 C 
ATOM     30  C   UNL     1      34.060 -16.102 -25.248  0.00  0.00    +0.022 C 
ATOM     31  C   UNL     1      33.317 -15.046 -25.732  0.00  0.00    +0.063 C 
ATOM     32  C   UNL     1      34.921 -15.973 -21.557  0.00  0.00    +0.058 C 
ATOM     33  C   UNL     1      34.259 -14.764 -21.384  0.00  0.00    +0.103 C 
ATOM     34  H   UNL     1      32.568 -13.344 -24.758  0.00  0.00    +0.154 HD
ENDBRANCH  24  28
ENDBRANCH   2  24
TORSDOF 5
ENDMDL
