MODEL 1
REMARK VINA RESULT:     -12.3      0.000      0.000
REMARK  Name = 11560787
REMARK  5 active torsions:
REMARK  status: ('A' for Active; 'I' for Inactive)
REMARK    1  A    between atoms: N_2  and  C_23
REMARK    2  A    between atoms: C_8  and  C_9
REMARK    3  A    between atoms: C_12  and  N_15
REMARK    4  A    between atoms: C_13  and  O_21
REMARK    5  A    between atoms: C_23  and  C_26
REMARK                            x       y       z     vdW  Elec       q    Type
REMARK                         _______ _______ _______ _____ _____    ______ ____
ROOT
ATOM      1  O   UNL     1      33.374 -19.644 -22.134  0.00  0.00    -0.270 OA
ATOM      2  N   UNL     1      35.475 -18.692 -22.376  0.00  0.00    -0.274 N 
ATOM      3  C   UNL     1      36.879 -18.613 -21.977  0.00  0.00    +0.094 C 
ATOM      4  C   UNL     1      37.079 -18.880 -20.498  0.00  0.00    +0.026 C 
ATOM      5  C   UNL     1      36.467 -20.224 -20.152  0.00  0.00    +0.033 C 
ATOM      6  C   UNL     1      35.019 -20.256 -20.534  0.00  0.00    +0.031 C 
ATOM      7  C   UNL     1      34.537 -19.515 -21.749  0.00  0.00    +0.245 C 
ATOM      8  C   UNL     1      34.110 -20.912 -19.797  0.00  0.00    +0.000 C 
ENDROOT
BRANCH   8   9
ATOM      9  C   UNL     1      34.393 -21.688 -18.580  0.00  0.00    +0.003 C 
ATOM     10  C   UNL     1      33.369 -22.394 -17.968  0.00  0.00    +0.038 C 
ATOM     11  C   UNL     1      35.682 -21.702 -18.066  0.00  0.00    +0.001 C 
ATOM     12  C   UNL     1      34.929 -23.153 -16.287  0.00  0.00    +0.084 C 
ATOM     13  C   UNL     1      33.638 -23.131 -16.814  0.00  0.00    +0.152 C 
ATOM     14  C   UNL     1      35.951 -22.438 -16.913  0.00  0.00    +0.018 C 
BRANCH  12  15
ATOM     15  N   UNL     1      35.214 -23.878 -15.142  0.00  0.00    -0.280 N 
ATOM     16  N   UNL     1      35.957 -25.531 -13.847  0.00  0.00    -0.255 NA
ATOM     17  C   UNL     1      34.934 -23.508 -13.853  0.00  0.00    +0.134 C 
ATOM     18  C   UNL     1      35.829 -25.102 -15.083  0.00  0.00    +0.220 C 
ATOM     19  C   UNL     1      35.401 -24.542 -13.075  0.00  0.00    +0.054 C 
ATOM     20  C   UNL     1      35.361 -24.670 -11.610  0.00  0.00    +0.049 C 
ENDBRANCH  12  15
BRANCH  13  21
ATOM     21  O   UNL     1      32.624 -23.822 -16.221  0.00  0.00    -0.470 OA
ATOM     22  C   UNL     1      31.471 -23.075 -15.839  0.00  0.00    +0.253 C 
ENDBRANCH  13  21
ENDBRANCH   8   9
BRANCH   2  23
ATOM     23  C   UNL     1      35.114 -17.977 -23.594  0.00  0.00    +0.098 C 
ATOM     24  C   UNL     1      34.084 -18.795 -24.378  0.00  0.00    +0.026 C 
BRANCH  23  26
ATOM     25  F   UNL     1      33.250 -12.795 -22.471  0.00  0.00    -0.204 F 
ATOM     26  C   UNL     1      34.611 -16.579 -23.291  0.00  0.00    -0.004 C 
ATOM     27  C   UNL     1      34.833 -16.042 -22.036  0.00  0.00    -0.000 C 
ATOM     28  C   UNL     1      33.944 -15.877 -24.277  0.00  0.00    -0.000 C 
ATOM     29  C   UNL     1      34.371 -14.756 -21.758  0.00  0.00    +0.029 C 
ATOM     30  C   UNL     1      33.481 -14.590 -23.998  0.00  0.00    +0.029 C 
ATOM     31  C   UNL     1      33.695 -14.030 -22.739  0.00  0.00    +0.140 C 
ENDBRANCH  23  26
ENDBRANCH   2  23
TORSDOF 5
ENDMDL
MODEL 2
REMARK VINA RESULT:     -11.9      5.049     11.590
REMARK  Name = 11560787
REMARK  5 active torsions:
REMARK  status: ('A' for Active; 'I' for Inactive)
REMARK    1  A    between atoms: N_2  and  C_23
REMARK    2  A    between atoms: C_8  and  C_9
REMARK    3  A    between atoms: C_12  and  N_15
REMARK    4  A    between atoms: C_13  and  O_21
REMARK    5  A    between atoms: C_23  and  C_26
REMARK                            x       y       z     vdW  Elec       q    Type
REMARK                         _______ _______ _______ _____ _____    ______ ____
ROOT
ATOM      1  O   UNL     1      34.927 -16.558 -24.043  0.00  0.00    -0.270 OA
ATOM      2  N   UNL     1      35.007 -17.184 -21.811  0.00  0.00    -0.274 N 
ATOM      3  C   UNL     1      34.696 -16.908 -20.410  0.00  0.00    +0.094 C 
ATOM      4  C   UNL     1      34.756 -15.429 -20.082  0.00  0.00    +0.026 C 
ATOM      5  C   UNL     1      33.835 -14.677 -21.025  0.00  0.00    +0.033 C 
ATOM      6  C   UNL     1      34.209 -14.949 -22.451  0.00  0.00    +0.031 C 
ATOM      7  C   UNL     1      34.740 -16.294 -22.854  0.00  0.00    +0.245 C 
ATOM      8  C   UNL     1      34.111 -14.002 -23.397  0.00  0.00    +0.000 C 
ENDROOT
BRANCH   8   9
ATOM      9  C   UNL     1      33.616 -12.633 -23.191  0.00  0.00    +0.003 C 
ATOM     10  C   UNL     1      32.601 -12.407 -22.274  0.00  0.00    +0.038 C 
ATOM     11  C   UNL     1      34.173 -11.590 -23.917  0.00  0.00    +0.001 C 
ATOM     12  C   UNL     1      32.683 -10.050 -22.801  0.00  0.00    +0.084 C 
ATOM     13  C   UNL     1      32.131 -11.107 -22.078  0.00  0.00    +0.152 C 
ATOM     14  C   UNL     1      33.704 -10.292 -23.722  0.00  0.00    +0.018 C 
BRANCH  12  15
ATOM     15  N   UNL     1      32.228  -8.756 -22.621  0.00  0.00    -0.280 N 
ATOM     16  N   UNL     1      31.056  -6.889 -22.943  0.00  0.00    -0.255 NA
ATOM     17  C   UNL     1      32.653  -7.868 -21.667  0.00  0.00    +0.134 C 
ATOM     18  C   UNL     1      31.267  -8.117 -23.361  0.00  0.00    +0.220 C 
ATOM     19  C   UNL     1      31.917  -6.727 -21.887  0.00  0.00    +0.054 C 
ATOM     20  C   UNL     1      31.967  -5.455 -21.151  0.00  0.00    +0.049 C 
ENDBRANCH  12  15
BRANCH  13  21
ATOM     21  O   UNL     1      31.134 -10.896 -21.173  0.00  0.00    -0.470 OA
ATOM     22  C   UNL     1      31.499 -10.902 -19.795  0.00  0.00    +0.253 C 
ENDBRANCH  13  21
ENDBRANCH   8   9
BRANCH   2  23
ATOM     23  C   UNL     1      35.472 -18.533 -22.109  0.00  0.00    +0.098 C 
ATOM     24  C   UNL     1      37.003 -18.554 -22.112  0.00  0.00    +0.026 C 
BRANCH  23  26
ATOM     25  F   UNL     1      33.340 -22.293 -18.517  0.00  0.00    -0.204 F 
ATOM     26  C   UNL     1      34.897 -19.547 -21.140  0.00  0.00    -0.004 C 
ATOM     27  C   UNL     1      35.759 -20.304 -20.368  0.00  0.00    -0.000 C 
ATOM     28  C   UNL     1      33.525 -19.690 -21.052  0.00  0.00    -0.000 C 
ATOM     29  C   UNL     1      35.230 -21.237 -19.476  0.00  0.00    +0.029 C 
ATOM     30  C   UNL     1      32.995 -20.623 -20.160  0.00  0.00    +0.029 C 
ATOM     31  C   UNL     1      33.848 -21.396 -19.373  0.00  0.00    +0.140 C 
ENDBRANCH  23  26
ENDBRANCH   2  23
TORSDOF 5
ENDMDL
MODEL 3
REMARK VINA RESULT:     -11.6      1.418      2.086
REMARK  Name = 11560787
REMARK  5 active torsions:
REMARK  status: ('A' for Active; 'I' for Inactive)
REMARK    1  A    between atoms: N_2  and  C_23
REMARK    2  A    between atoms: C_8  and  C_9
REMARK    3  A    between atoms: C_12  and  N_15
REMARK    4  A    between atoms: C_13  and  O_21
REMARK    5  A    between atoms: C_23  and  C_26
REMARK                            x       y       z     vdW  Elec       q    Type
REMARK                         _______ _______ _______ _____ _____    ______ ____
ROOT
ATOM      1  O   UNL     1      37.271 -19.679 -20.845  0.00  0.00    -0.270 OA
ATOM      2  N   UNL     1      35.042 -19.714 -21.484  0.00  0.00    -0.274 N 
ATOM      3  C   UNL     1      33.643 -20.002 -21.173  0.00  0.00    +0.094 C 
ATOM      4  C   UNL     1      33.486 -21.206 -20.265  0.00  0.00    +0.026 C 
ATOM      5  C   UNL     1      34.312 -20.989 -19.011  0.00  0.00    +0.033 C 
ATOM      6  C   UNL     1      35.747 -20.738 -19.364  0.00  0.00    +0.031 C 
ATOM      7  C   UNL     1      36.102 -19.996 -20.620  0.00  0.00    +0.245 C 
ATOM      8  C   UNL     1      36.750 -21.189 -18.595  0.00  0.00    +0.000 C 
ENDROOT
BRANCH   8   9
ATOM      9  C   UNL     1      36.597 -21.933 -17.335  0.00  0.00    +0.003 C 
ATOM     10  C   UNL     1      35.359 -22.464 -17.004  0.00  0.00    +0.038 C 
ATOM     11  C   UNL     1      37.693 -22.091 -16.500  0.00  0.00    +0.001 C 
ATOM     12  C   UNL     1      36.308 -23.336 -14.961  0.00  0.00    +0.084 C 
ATOM     13  C   UNL     1      35.214 -23.169 -15.809  0.00  0.00    +0.152 C 
ATOM     14  C   UNL     1      37.548 -22.796 -15.306  0.00  0.00    +0.018 C 
BRANCH  12  15
ATOM     15  N   UNL     1      36.181 -24.032 -13.771  0.00  0.00    -0.280 N 
ATOM     16  N   UNL     1      36.176 -25.739 -12.340  0.00  0.00    -0.255 NA
ATOM     17  C   UNL     1      35.841 -23.507 -12.551  0.00  0.00    +0.134 C 
ATOM     18  C   UNL     1      36.372 -25.377 -13.588  0.00  0.00    +0.220 C 
ATOM     19  C   UNL     1      35.845 -24.578 -11.688  0.00  0.00    +0.054 C 
ATOM     20  C   UNL     1      35.549 -24.586 -10.247  0.00  0.00    +0.049 C 
ENDBRANCH  12  15
BRANCH  13  21
ATOM     21  O   UNL     1      33.993 -23.687 -15.494  0.00  0.00    -0.470 OA
ATOM     22  C   UNL     1      32.898 -23.312 -16.325  0.00  0.00    +0.253 C 
ENDBRANCH  13  21
ENDBRANCH   8   9
BRANCH   2  23
ATOM     23  C   UNL     1      35.282 -18.948 -22.701  0.00  0.00    +0.098 C 
ATOM     24  C   UNL     1      34.464 -19.547 -23.849  0.00  0.00    +0.026 C 
BRANCH  23  26
ATOM     25  F   UNL     1      34.154 -13.491 -21.962  0.00  0.00    -0.204 F 
ATOM     26  C   UNL     1      34.977 -17.476 -22.502  0.00  0.00    -0.004 C 
ATOM     27  C   UNL     1      34.921 -16.969 -21.217  0.00  0.00    -0.000 C 
ATOM     28  C   UNL     1      34.764 -16.678 -23.610  0.00  0.00    -0.000 C 
ATOM     29  C   UNL     1      34.642 -15.615 -21.033  0.00  0.00    +0.029 C 
ATOM     30  C   UNL     1      34.485 -15.323 -23.427  0.00  0.00    +0.029 C 
ATOM     31  C   UNL     1      34.423 -14.792 -22.139  0.00  0.00    +0.140 C 
ENDBRANCH  23  26
ENDBRANCH   2  23
TORSDOF 5
ENDMDL
MODEL 4
REMARK VINA RESULT:     -11.0      5.159     11.893
REMARK  Name = 11560787
REMARK  5 active torsions:
REMARK  status: ('A' for Active; 'I' for Inactive)
REMARK    1  A    between atoms: N_2  and  C_23
REMARK    2  A    between atoms: C_8  and  C_9
REMARK    3  A    between atoms: C_12  and  N_15
REMARK    4  A    between atoms: C_13  and  O_21
REMARK    5  A    between atoms: C_23  and  C_26
REMARK                            x       y       z     vdW  Elec       q    Type
REMARK                         _______ _______ _______ _____ _____    ______ ____
ROOT
ATOM      1  O   UNL     1      34.603 -16.585 -24.023  0.00  0.00    -0.270 OA
ATOM      2  N   UNL     1      34.904 -17.226 -21.814  0.00  0.00    -0.274 N 
ATOM      3  C   UNL     1      34.753 -16.949 -20.386  0.00  0.00    +0.094 C 
ATOM      4  C   UNL     1      34.891 -15.474 -20.063  0.00  0.00    +0.026 C 
ATOM      5  C   UNL     1      33.897 -14.690 -20.900  0.00  0.00    +0.033 C 
ATOM      6  C   UNL     1      34.107 -14.965 -22.358  0.00  0.00    +0.031 C 
ATOM      7  C   UNL     1      34.553 -16.322 -22.820  0.00  0.00    +0.245 C 
ATOM      8  C   UNL     1      33.937 -14.010 -23.286  0.00  0.00    +0.000 C 
ENDROOT
BRANCH   8   9
ATOM      9  C   UNL     1      33.506 -12.629 -23.024  0.00  0.00    +0.003 C 
ATOM     10  C   UNL     1      34.210 -11.577 -23.591  0.00  0.00    +0.038 C 
ATOM     11  C   UNL     1      32.403 -12.401 -22.215  0.00  0.00    +0.001 C 
ATOM     12  C   UNL     1      32.693 -10.023 -22.532  0.00  0.00    +0.084 C 
ATOM     13  C   UNL     1      33.801 -10.266 -23.343  0.00  0.00    +0.152 C 
ATOM     14  C   UNL     1      31.994 -11.091 -21.967  0.00  0.00    +0.018 C 
BRANCH  12  15
ATOM     15  N   UNL     1      32.274  -8.729 -22.274  0.00  0.00    -0.280 N 
ATOM     16  N   UNL     1      32.039  -6.781 -21.220  0.00  0.00    -0.255 NA
ATOM     17  C   UNL     1      31.462  -7.962 -23.067  0.00  0.00    +0.134 C 
ATOM     18  C   UNL     1      32.593  -7.972 -21.176  0.00  0.00    +0.220 C 
ATOM     19  C   UNL     1      31.333  -6.768 -22.397  0.00  0.00    +0.054 C 
ATOM     20  C   UNL     1      30.567  -5.578 -22.797  0.00  0.00    +0.049 C 
ENDBRANCH  12  15
BRANCH  13  21
ATOM     21  O   UNL     1      34.499  -9.240 -23.906  0.00  0.00    -0.470 OA
ATOM     22  C   UNL     1      35.547  -9.589 -24.808  0.00  0.00    +0.253 C 
ENDBRANCH  13  21
ENDBRANCH   8   9
BRANCH   2  23
ATOM     23  C   UNL     1      35.295 -18.585 -22.164  0.00  0.00    +0.098 C 
ATOM     24  C   UNL     1      36.820 -18.663 -22.279  0.00  0.00    +0.026 C 
BRANCH  23  26
ATOM     25  F   UNL     1      33.288 -22.323 -18.477  0.00  0.00    -0.204 F 
ATOM     26  C   UNL     1      34.754 -19.594 -21.169  0.00  0.00    -0.004 C 
ATOM     27  C   UNL     1      33.386 -19.752 -21.050  0.00  0.00    -0.000 C 
ATOM     28  C   UNL     1      35.642 -20.329 -20.406  0.00  0.00    -0.000 C 
ATOM     29  C   UNL     1      32.887 -20.681 -20.135  0.00  0.00    +0.029 C 
ATOM     30  C   UNL     1      35.144 -21.258 -19.492  0.00  0.00    +0.029 C 
ATOM     31  C   UNL     1      33.767 -21.433 -19.356  0.00  0.00    +0.140 C 
ENDBRANCH  23  26
ENDBRANCH   2  23
TORSDOF 5
ENDMDL
MODEL 5
REMARK VINA RESULT:     -10.9      3.421     10.328
REMARK  Name = 11560787
REMARK  5 active torsions:
REMARK  status: ('A' for Active; 'I' for Inactive)
REMARK    1  A    between atoms: N_2  and  C_23
REMARK    2  A    between atoms: C_8  and  C_9
REMARK    3  A    between atoms: C_12  and  N_15
REMARK    4  A    between atoms: C_13  and  O_21
REMARK    5  A    between atoms: C_23  and  C_26
REMARK                            x       y       z     vdW  Elec       q    Type
REMARK                         _______ _______ _______ _____ _____    ______ ____
ROOT
ATOM      1  O   UNL     1      33.818 -24.472 -16.441  0.00  0.00    -0.270 OA
ATOM      2  N   UNL     1      35.836 -24.026 -15.389  0.00  0.00    -0.274 N 
ATOM      3  C   UNL     1      37.001 -23.162 -15.206  0.00  0.00    +0.094 C 
ATOM      4  C   UNL     1      37.426 -22.480 -16.492  0.00  0.00    +0.026 C 
ATOM      5  C   UNL     1      36.243 -21.721 -17.063  0.00  0.00    +0.033 C 
ATOM      6  C   UNL     1      35.081 -22.644 -17.277  0.00  0.00    +0.031 C 
ATOM      7  C   UNL     1      34.840 -23.792 -16.340  0.00  0.00    +0.245 C 
ATOM      8  C   UNL     1      34.246 -22.495 -18.317  0.00  0.00    +0.000 C 
ENDROOT
BRANCH   8   9
ATOM      9  C   UNL     1      34.325 -21.435 -19.333  0.00  0.00    +0.003 C 
ATOM     10  C   UNL     1      35.567 -20.975 -19.743  0.00  0.00    +0.038 C 
ATOM     11  C   UNL     1      33.154 -20.914 -19.866  0.00  0.00    +0.001 C 
ATOM     12  C   UNL     1      34.472 -19.437 -21.251  0.00  0.00    +0.084 C 
ATOM     13  C   UNL     1      35.641 -19.970 -20.708  0.00  0.00    +0.152 C 
ATOM     14  C   UNL     1      33.228 -19.910 -20.830  0.00  0.00    +0.018 C 
BRANCH  12  15
ATOM     15  N   UNL     1      34.527 -18.439 -22.208  0.00  0.00    -0.280 N 
ATOM     16  N   UNL     1      34.474 -17.454 -24.206  0.00  0.00    -0.255 NA
ATOM     17  C   UNL     1      34.754 -17.106 -21.984  0.00  0.00    +0.134 C 
ATOM     18  C   UNL     1      34.365 -18.594 -23.561  0.00  0.00    +0.220 C 
ATOM     19  C   UNL     1      34.717 -16.522 -23.229  0.00  0.00    +0.054 C 
ATOM     20  C   UNL     1      34.899 -15.104 -23.575  0.00  0.00    +0.049 C 
ENDBRANCH  12  15
BRANCH  13  21
ATOM     21  O   UNL     1      36.867 -19.525 -21.104  0.00  0.00    -0.470 OA
ATOM     22  C   UNL     1      37.549 -18.637 -20.221  0.00  0.00    +0.253 C 
ENDBRANCH  13  21
ENDBRANCH   8   9
BRANCH   2  23
ATOM     23  C   UNL     1      35.664 -25.084 -14.402  0.00  0.00    +0.098 C 
ATOM     24  C   UNL     1      36.530 -26.286 -14.787  0.00  0.00    +0.026 C 
BRANCH  23  26
ATOM     25  F   UNL     1      36.805 -23.266  -9.207  0.00  0.00    -0.204 F 
ATOM     26  C   UNL     1      35.972 -24.593 -13.000  0.00  0.00    -0.004 C 
ATOM     27  C   UNL     1      37.277 -24.629 -12.547  0.00  0.00    -0.000 C 
ATOM     28  C   UNL     1      34.939 -24.122 -12.211  0.00  0.00    -0.000 C 
ATOM     29  C   UNL     1      37.561 -24.178 -11.258  0.00  0.00    +0.029 C 
ATOM     30  C   UNL     1      35.222 -23.671 -10.922  0.00  0.00    +0.029 C 
ATOM     31  C   UNL     1      36.533 -23.699 -10.446  0.00  0.00    +0.140 C 
ENDBRANCH  23  26
ENDBRANCH   2  23
TORSDOF 5
ENDMDL
MODEL 6
REMARK VINA RESULT:     -10.2      3.459     10.358
REMARK  Name = 11560787
REMARK  5 active torsions:
REMARK  status: ('A' for Active; 'I' for Inactive)
REMARK    1  A    between atoms: N_2  and  C_23
REMARK    2  A    between atoms: C_8  and  C_9
REMARK    3  A    between atoms: C_12  and  N_15
REMARK    4  A    between atoms: C_13  and  O_21
REMARK    5  A    between atoms: C_23  and  C_26
REMARK                            x       y       z     vdW  Elec       q    Type
REMARK                         _______ _______ _______ _____ _____    ______ ____
ROOT
ATOM      1  O   UNL     1      36.764 -21.536 -18.372  0.00  0.00    -0.270 OA
ATOM      2  N   UNL     1      34.695 -22.428 -17.825  0.00  0.00    -0.274 N 
ATOM      3  C   UNL     1      33.274 -22.598 -18.123  0.00  0.00    +0.094 C 
ATOM      4  C   UNL     1      32.665 -21.370 -18.772  0.00  0.00    +0.026 C 
ATOM      5  C   UNL     1      33.466 -21.018 -20.011  0.00  0.00    +0.033 C 
ATOM      6  C   UNL     1      34.908 -20.810 -19.663  0.00  0.00    +0.031 C 
ATOM      7  C   UNL     1      35.552 -21.617 -18.572  0.00  0.00    +0.245 C 
ATOM      8  C   UNL     1      35.656 -19.884 -20.284  0.00  0.00    +0.000 C 
ENDROOT
BRANCH   8   9
ATOM      9  C   UNL     1      35.200 -19.003 -21.370  0.00  0.00    +0.003 C 
ATOM     10  C   UNL     1      35.286 -17.628 -21.214  0.00  0.00    +0.038 C 
ATOM     11  C   UNL     1      34.693 -19.563 -22.534  0.00  0.00    +0.001 C 
ATOM     12  C   UNL     1      34.342 -17.343 -23.419  0.00  0.00    +0.084 C 
ATOM     13  C   UNL     1      34.855 -16.793 -22.245  0.00  0.00    +0.152 C 
ATOM     14  C   UNL     1      34.261 -18.729 -23.564  0.00  0.00    +0.018 C 
BRANCH  12  15
ATOM     15  N   UNL     1      33.908 -16.529 -24.451  0.00  0.00    -0.280 N 
ATOM     16  N   UNL     1      32.919 -15.910 -26.349  0.00  0.00    -0.255 NA
ATOM     17  C   UNL     1      34.130 -15.182 -24.576  0.00  0.00    +0.134 C 
ATOM     18  C   UNL     1      33.175 -16.917 -25.543  0.00  0.00    +0.220 C 
ATOM     19  C   UNL     1      33.511 -14.826 -25.752  0.00  0.00    +0.054 C 
ATOM     20  C   UNL     1      33.434 -13.495 -26.373  0.00  0.00    +0.049 C 
ENDBRANCH  12  15
BRANCH  13  21
ATOM     21  O   UNL     1      34.944 -15.443 -22.080  0.00  0.00    -0.470 OA
ATOM     22  C   UNL     1      34.273 -14.883 -20.954  0.00  0.00    +0.253 C 
ENDBRANCH  13  21
ENDBRANCH   8   9
BRANCH   2  23
ATOM     23  C   UNL     1      35.237 -23.289 -16.782  0.00  0.00    +0.098 C 
ATOM     24  C   UNL     1      36.484 -22.637 -16.179  0.00  0.00    +0.026 C 
BRANCH  23  26
ATOM     25  F   UNL     1      31.385 -24.450 -12.856  0.00  0.00    -0.204 F 
ATOM     26  C   UNL     1      34.198 -23.603 -15.723  0.00  0.00    -0.004 C 
ATOM     27  C   UNL     1      32.901 -23.156 -15.900  0.00  0.00    -0.000 C 
ATOM     28  C   UNL     1      34.573 -24.327 -14.606  0.00  0.00    -0.000 C 
ATOM     29  C   UNL     1      31.945 -23.445 -14.926  0.00  0.00    +0.029 C 
ATOM     30  C   UNL     1      33.617 -24.615 -13.632  0.00  0.00    +0.029 C 
ATOM     31  C   UNL     1      32.304 -24.174 -13.792  0.00  0.00    +0.140 C 
ENDBRANCH  23  26
ENDBRANCH   2  23
TORSDOF 5
ENDMDL
MODEL 7
REMARK VINA RESULT:     -10.1      5.036      9.305
REMARK  Name = 11560787
REMARK  5 active torsions:
REMARK  status: ('A' for Active; 'I' for Inactive)
REMARK    1  A    between atoms: N_2  and  C_23
REMARK    2  A    between atoms: C_8  and  C_9
REMARK    3  A    between atoms: C_12  and  N_15
REMARK    4  A    between atoms: C_13  and  O_21
REMARK    5  A    between atoms: C_23  and  C_26
REMARK                            x       y       z     vdW  Elec       q    Type
REMARK                         _______ _______ _______ _____ _____    ______ ____
ROOT
ATOM      1  O   UNL     1      33.022 -10.117 -24.023  0.00  0.00    -0.270 OA
ATOM      2  N   UNL     1      31.887  -9.507 -22.094  0.00  0.00    -0.274 N 
ATOM      3  C   UNL     1      31.535  -9.768 -20.699  0.00  0.00    +0.094 C 
ATOM      4  C   UNL     1      31.424 -11.250 -20.396  0.00  0.00    +0.026 C 
ATOM      5  C   UNL     1      32.719 -11.933 -20.791  0.00  0.00    +0.033 C 
ATOM      6  C   UNL     1      33.027 -11.680 -22.236  0.00  0.00    +0.031 C 
ATOM      7  C   UNL     1      32.657 -10.373 -22.874  0.00  0.00    +0.245 C 
ATOM      8  C   UNL     1      33.607 -12.614 -23.006  0.00  0.00    +0.000 C 
ENDROOT
BRANCH   8   9
ATOM      9  C   UNL     1      34.037 -13.948 -22.558  0.00  0.00    +0.003 C 
ATOM     10  C   UNL     1      34.319 -14.924 -23.500  0.00  0.00    +0.038 C 
ATOM     11  C   UNL     1      34.153 -14.205 -21.200  0.00  0.00    +0.001 C 
ATOM     12  C   UNL     1      34.849 -16.461 -21.713  0.00  0.00    +0.084 C 
ATOM     13  C   UNL     1      34.728 -16.189 -23.075  0.00  0.00    +0.152 C 
ATOM     14  C   UNL     1      34.561 -15.469 -20.775  0.00  0.00    +0.018 C 
BRANCH  12  15
ATOM     15  N   UNL     1      35.251 -17.711 -21.274  0.00  0.00    -0.280 N 
ATOM     16  N   UNL     1      36.597 -19.368 -20.637  0.00  0.00    -0.255 NA
ATOM     17  C   UNL     1      34.436 -18.773 -20.979  0.00  0.00    +0.134 C 
ATOM     18  C   UNL     1      36.540 -18.122 -21.051  0.00  0.00    +0.220 C 
ATOM     19  C   UNL     1      35.288 -19.779 -20.589  0.00  0.00    +0.054 C 
ATOM     20  C   UNL     1      34.949 -21.145 -20.162  0.00  0.00    +0.049 C 
ENDBRANCH  12  15
BRANCH  13  21
ATOM     21  O   UNL     1      35.003 -17.142 -24.011  0.00  0.00    -0.470 OA
ATOM     22  C   UNL     1      33.897 -17.675 -24.735  0.00  0.00    +0.253 C 
ENDBRANCH  13  21
ENDBRANCH   8   9
BRANCH   2  23
ATOM     23  C   UNL     1      31.527  -8.192 -22.609  0.00  0.00    +0.098 C 
ATOM     24  C   UNL     1      30.835  -7.385 -21.507  0.00  0.00    +0.026 C 
BRANCH  23  26
ATOM     25  F   UNL     1      35.999  -5.491 -24.680  0.00  0.00    -0.204 F 
ATOM     26  C   UNL     1      32.733  -7.463 -23.168  0.00  0.00    -0.004 C 
ATOM     27  C   UNL     1      32.560  -6.585 -24.221  0.00  0.00    -0.000 C 
ATOM     28  C   UNL     1      33.977  -7.696 -22.610  0.00  0.00    -0.000 C 
ATOM     29  C   UNL     1      33.670  -5.914 -24.735  0.00  0.00    +0.029 C 
ATOM     30  C   UNL     1      35.087  -7.025 -23.124  0.00  0.00    +0.029 C 
ATOM     31  C   UNL     1      34.933  -6.135 -24.186  0.00  0.00    +0.140 C 
ENDBRANCH  23  26
ENDBRANCH   2  23
TORSDOF 5
ENDMDL
MODEL 8
REMARK VINA RESULT:     -10.1      3.580     10.462
REMARK  Name = 11560787
REMARK  5 active torsions:
REMARK  status: ('A' for Active; 'I' for Inactive)
REMARK    1  A    between atoms: N_2  and  C_23
REMARK    2  A    between atoms: C_8  and  C_9
REMARK    3  A    between atoms: C_12  and  N_15
REMARK    4  A    between atoms: C_13  and  O_21
REMARK    5  A    between atoms: C_23  and  C_26
REMARK                            x       y       z     vdW  Elec       q    Type
REMARK                         _______ _______ _______ _____ _____    ______ ____
ROOT
ATOM      1  O   UNL     1      36.782 -20.309 -19.365  0.00  0.00    -0.270 OA
ATOM      2  N   UNL     1      34.756 -21.425 -19.190  0.00  0.00    -0.274 N 
ATOM      3  C   UNL     1      33.373 -21.609 -19.627  0.00  0.00    +0.094 C 
ATOM      4  C   UNL     1      32.713 -20.304 -20.029  0.00  0.00    +0.026 C 
ATOM      5  C   UNL     1      33.559 -19.632 -21.095  0.00  0.00    +0.033 C 
ATOM      6  C   UNL     1      34.957 -19.421 -20.599  0.00  0.00    +0.031 C 
ATOM      7  C   UNL     1      35.593 -20.415 -19.670  0.00  0.00    +0.245 C 
ATOM      8  C   UNL     1      35.669 -18.335 -20.940  0.00  0.00    +0.000 C 
ENDROOT
BRANCH   8   9
ATOM      9  C   UNL     1      35.214 -17.259 -21.834  0.00  0.00    +0.003 C 
ATOM     10  C   UNL     1      34.820 -16.045 -21.293  0.00  0.00    +0.038 C 
ATOM     11  C   UNL     1      35.189 -17.477 -23.204  0.00  0.00    +0.001 C 
ATOM     12  C   UNL     1      34.359 -15.231 -23.520  0.00  0.00    +0.084 C 
ATOM     13  C   UNL     1      34.389 -15.025 -22.141  0.00  0.00    +0.152 C 
ATOM     14  C   UNL     1      34.759 -16.458 -24.051  0.00  0.00    +0.018 C 
BRANCH  12  15
ATOM     15  N   UNL     1      33.933 -14.230 -24.376  0.00  0.00    -0.280 N 
ATOM     16  N   UNL     1      33.600 -12.187 -25.200  0.00  0.00    -0.255 NA
ATOM     17  C   UNL     1      33.241 -14.398 -25.547  0.00  0.00    +0.134 C 
ATOM     18  C   UNL     1      34.124 -12.881 -24.214  0.00  0.00    +0.220 C 
ATOM     19  C   UNL     1      33.049 -13.126 -26.034  0.00  0.00    +0.054 C 
ATOM     20  C   UNL     1      32.361 -12.718 -27.269  0.00  0.00    +0.049 C 
ENDBRANCH  12  15
BRANCH  13  21
ATOM     21  O   UNL     1      34.004 -13.835 -21.599  0.00  0.00    -0.470 OA
ATOM     22  C   UNL     1      32.820 -13.840 -20.805  0.00  0.00    +0.253 C 
ENDBRANCH  13  21
ENDBRANCH   8   9
BRANCH   2  23
ATOM     23  C   UNL     1      35.298 -22.467 -18.327  0.00  0.00    +0.098 C 
ATOM     24  C   UNL     1      36.671 -22.035 -17.806  0.00  0.00    +0.026 C 
BRANCH  23  26
ATOM     25  F   UNL     1      31.772 -23.712 -14.131  0.00  0.00    -0.204 F 
ATOM     26  C   UNL     1      34.346 -22.803 -17.195  0.00  0.00    -0.004 C 
ATOM     27  C   UNL     1      34.854 -22.987 -15.922  0.00  0.00    -0.000 C 
ATOM     28  C   UNL     1      32.995 -22.917 -17.464  0.00  0.00    -0.000 C 
ATOM     29  C   UNL     1      33.979 -23.296 -14.881  0.00  0.00    +0.029 C 
ATOM     30  C   UNL     1      32.120 -23.225 -16.422  0.00  0.00    +0.029 C 
ATOM     31  C   UNL     1      32.612 -23.415 -15.131  0.00  0.00    +0.140 C 
ENDBRANCH  23  26
ENDBRANCH   2  23
TORSDOF 5
ENDMDL
MODEL 9
REMARK VINA RESULT:     -10.1      1.719      2.747
REMARK  Name = 11560787
REMARK  5 active torsions:
REMARK  status: ('A' for Active; 'I' for Inactive)
REMARK    1  A    between atoms: N_2  and  C_23
REMARK    2  A    between atoms: C_8  and  C_9
REMARK    3  A    between atoms: C_12  and  N_15
REMARK    4  A    between atoms: C_13  and  O_21
REMARK    5  A    between atoms: C_23  and  C_26
REMARK                            x       y       z     vdW  Elec       q    Type
REMARK                         _______ _______ _______ _____ _____    ______ ____
ROOT
ATOM      1  O   UNL     1      37.083 -19.518 -21.336  0.00  0.00    -0.270 OA
ATOM      2  N   UNL     1      34.838 -19.392 -21.906  0.00  0.00    -0.274 N 
ATOM      3  C   UNL     1      33.433 -19.593 -21.556  0.00  0.00    +0.094 C 
ATOM      4  C   UNL     1      33.223 -20.800 -20.663  0.00  0.00    +0.026 C 
ATOM      5  C   UNL     1      34.099 -20.661 -19.432  0.00  0.00    +0.033 C 
ATOM      6  C   UNL     1      35.536 -20.500 -19.825  0.00  0.00    +0.031 C 
ATOM      7  C   UNL     1      35.902 -19.760 -21.080  0.00  0.00    +0.245 C 
ATOM      8  C   UNL     1      36.529 -21.030 -19.095  0.00  0.00    +0.000 C 
ENDROOT
BRANCH   8   9
ATOM      9  C   UNL     1      36.364 -21.785 -17.844  0.00  0.00    +0.003 C 
ATOM     10  C   UNL     1      37.467 -22.015 -17.036  0.00  0.00    +0.038 C 
ATOM     11  C   UNL     1      35.106 -22.252 -17.491  0.00  0.00    +0.001 C 
ATOM     12  C   UNL     1      36.051 -23.205 -15.482  0.00  0.00    +0.084 C 
ATOM     13  C   UNL     1      37.310 -22.730 -15.848  0.00  0.00    +0.152 C 
ATOM     14  C   UNL     1      34.948 -22.966 -16.304  0.00  0.00    +0.018 C 
BRANCH  12  15
ATOM     15  N   UNL     1      35.877 -23.918 -14.308  0.00  0.00    -0.280 N 
ATOM     16  N   UNL     1      35.536 -25.645 -12.944  0.00  0.00    -0.255 NA
ATOM     17  C   UNL     1      35.884 -23.408 -13.036  0.00  0.00    +0.134 C 
ATOM     18  C   UNL     1      35.664 -25.268 -14.197  0.00  0.00    +0.220 C 
ATOM     19  C   UNL     1      35.673 -24.491 -12.216  0.00  0.00    +0.054 C 
ATOM     20  C   UNL     1      35.587 -24.517 -10.748  0.00  0.00    +0.049 C 
ENDBRANCH  12  15
BRANCH  13  21
ATOM     21  O   UNL     1      38.401 -22.951 -15.062  0.00  0.00    -0.470 OA
ATOM     22  C   UNL     1      39.130 -24.154 -15.291  0.00  0.00    +0.253 C 
ENDBRANCH  13  21
ENDBRANCH   8   9
BRANCH   2  23
ATOM     23  C   UNL     1      35.092 -18.623 -23.117  0.00  0.00    +0.098 C 
ATOM     24  C   UNL     1      34.277 -19.209 -24.274  0.00  0.00    +0.026 C 
BRANCH  23  26
ATOM     25  F   UNL     1      34.005 -13.161 -22.358  0.00  0.00    -0.204 F 
ATOM     26  C   UNL     1      34.799 -17.149 -22.912  0.00  0.00    -0.004 C 
ATOM     27  C   UNL     1      34.393 -16.388 -23.993  0.00  0.00    -0.000 C 
ATOM     28  C   UNL     1      34.944 -16.604 -21.650  0.00  0.00    -0.000 C 
ATOM     29  C   UNL     1      34.123 -15.032 -23.805  0.00  0.00    +0.029 C 
ATOM     30  C   UNL     1      34.674 -15.248 -21.462  0.00  0.00    +0.029 C 
ATOM     31  C   UNL     1      34.264 -14.463 -22.539  0.00  0.00    +0.140 C 
ENDBRANCH  23  26
ENDBRANCH   2  23
TORSDOF 5
ENDMDL
