MODEL 1
REMARK VINA RESULT:     -11.6      0.000      0.000
REMARK  Name = 46892373
REMARK  3 active torsions:
REMARK  status: ('A' for Active; 'I' for Inactive)
REMARK    1  A    between atoms: C_7  and  C_20
REMARK    2  A    between atoms: C_20  and  C_22
REMARK    3  A    between atoms: C_20  and  O_28
REMARK                            x       y       z     vdW  Elec       q    Type
REMARK                         _______ _______ _______ _____ _____    ______ ____
ROOT
ATOM      1  N   UNL     1      34.147 -23.757 -16.841  0.00  0.00    -0.326 NA
ATOM      2  N   UNL     1      34.746 -24.453 -14.675  0.00  0.00    -0.271 N 
ATOM      3  N   UNL     1      31.962 -22.841 -17.278  0.00  0.00    -0.345 NA
ATOM      4  N   UNL     1      38.167 -24.054 -15.115  0.00  0.00    -0.239 N 
ATOM      5  N   UNL     1      36.925 -23.799 -15.560  0.00  0.00    -0.166 NA
ATOM      6  C   UNL     1      32.533 -23.539 -15.055  0.00  0.00    +0.072 C 
ATOM      7  C   UNL     1      33.203 -23.229 -17.635  0.00  0.00    +0.146 C 
ATOM      8  C   UNL     1      33.782 -23.899 -15.554  0.00  0.00    +0.199 C 
ATOM      9  C   UNL     1      31.629 -22.998 -15.984  0.00  0.00    +0.129 C 
ATOM     10  C   UNL     1      32.174 -23.698 -13.706  0.00  0.00    +0.006 C 
ATOM     11  C   UNL     1      30.369 -22.624 -15.523  0.00  0.00    +0.086 C 
ATOM     12  C   UNL     1      36.150 -24.417 -14.665  0.00  0.00    +0.152 C 
ATOM     13  C   UNL     1      30.909 -23.317 -13.273  0.00  0.00    -0.004 C 
ATOM     14  C   UNL     1      30.005 -22.779 -14.182  0.00  0.00    -0.019 C 
ATOM     15  C   UNL     1      36.891 -25.063 -13.658  0.00  0.00    +0.048 C 
ATOM     16  C   UNL     1      38.202 -24.807 -13.980  0.00  0.00    +0.046 C 
ATOM     17  C   UNL     1      39.466 -25.196 -13.335  0.00  0.00    +0.049 C 
ATOM     18  H   UNL     1      34.357 -24.962 -13.927  0.00  0.00    +0.156 HD
ATOM     19  H   UNL     1      38.978 -23.726 -15.569  0.00  0.00    +0.174 HD
ENDROOT
BRANCH   7  20
ATOM     20  C   UNL     1      33.564 -23.052 -19.072  0.00  0.00    +0.243 C 
BRANCH  20  22
ATOM     21  F   UNL     1      37.392 -18.991 -19.978  0.00  0.00    -0.204 F 
ATOM     22  C   UNL     1      34.595 -21.957 -19.316  0.00  0.00    +0.021 C 
ATOM     23  C   UNL     1      34.320 -20.927 -20.216  0.00  0.00    +0.001 C 
ATOM     24  C   UNL     1      35.816 -21.985 -18.642  0.00  0.00    +0.001 C 
ATOM     25  C   UNL     1      35.264 -19.924 -20.439  0.00  0.00    +0.029 C 
ATOM     26  C   UNL     1      36.761 -20.984 -18.865  0.00  0.00    +0.029 C 
ATOM     27  C   UNL     1      36.484 -19.953 -19.764  0.00  0.00    +0.140 C 
ENDBRANCH  20  22
BRANCH  20  28
ATOM     28  O   UNL     1      34.020 -24.277 -19.674  0.00  0.00    -0.366 OA
ATOM     29  H   UNL     1      34.927 -24.160 -19.999  0.00  0.00    +0.212 HD
ENDBRANCH  20  28
ENDBRANCH   7  20
TORSDOF 3
ENDMDL
MODEL 2
REMARK VINA RESULT:     -11.4      2.971      7.146
REMARK  Name = 46892373
REMARK  3 active torsions:
REMARK  status: ('A' for Active; 'I' for Inactive)
REMARK    1  A    between atoms: C_7  and  C_20
REMARK    2  A    between atoms: C_20  and  C_22
REMARK    3  A    between atoms: C_20  and  O_28
REMARK                            x       y       z     vdW  Elec       q    Type
REMARK                         _______ _______ _______ _____ _____    ______ ____
ROOT
ATOM      1  N   UNL     1      33.029 -23.654 -15.284  0.00  0.00    -0.326 NA
ATOM      2  N   UNL     1      31.363 -22.929 -16.780  0.00  0.00    -0.271 N 
ATOM      3  N   UNL     1      35.362 -23.311 -15.781  0.00  0.00    -0.345 NA
ATOM      4  N   UNL     1      28.862 -22.621 -14.392  0.00  0.00    -0.239 N 
ATOM      5  N   UNL     1      30.172 -22.756 -14.657  0.00  0.00    -0.166 NA
ATOM      6  C   UNL     1      33.695 -22.558 -17.333  0.00  0.00    +0.072 C 
ATOM      7  C   UNL     1      34.341 -23.747 -15.016  0.00  0.00    +0.146 C 
ATOM      8  C   UNL     1      32.737 -23.052 -16.452  0.00  0.00    +0.199 C 
ATOM      9  C   UNL     1      35.035 -22.716 -16.942  0.00  0.00    +0.129 C 
ATOM     10  C   UNL     1      33.365 -21.934 -18.548  0.00  0.00    +0.006 C 
ATOM     11  C   UNL     1      36.023 -22.233 -17.797  0.00  0.00    +0.086 C 
ATOM     12  C   UNL     1      30.209 -22.797 -15.991  0.00  0.00    +0.152 C 
ATOM     13  C   UNL     1      34.372 -21.461 -19.384  0.00  0.00    -0.004 C 
ATOM     14  C   UNL     1      35.702 -21.611 -19.007  0.00  0.00    -0.019 C 
ATOM     15  C   UNL     1      28.933 -22.690 -16.574  0.00  0.00    +0.048 C 
ATOM     16  C   UNL     1      28.077 -22.576 -15.506  0.00  0.00    +0.046 C 
ATOM     17  C   UNL     1      26.614 -22.434 -15.430  0.00  0.00    +0.049 C 
ATOM     18  H   UNL     1      31.183 -22.939 -17.748  0.00  0.00    +0.156 HD
ATOM     19  H   UNL     1      28.502 -22.560 -13.477  0.00  0.00    +0.174 HD
ENDROOT
BRANCH   7  20
ATOM     20  C   UNL     1      34.712 -24.407 -13.730  0.00  0.00    +0.243 C 
BRANCH  20  22
ATOM     21  F   UNL     1      40.079 -26.173 -13.539  0.00  0.00    -0.204 F 
ATOM     22  C   UNL     1      36.159 -24.883 -13.679  0.00  0.00    +0.021 C 
ATOM     23  C   UNL     1      36.573 -25.944 -14.485  0.00  0.00    +0.001 C 
ATOM     24  C   UNL     1      37.069 -24.259 -12.826  0.00  0.00    +0.001 C 
ATOM     25  C   UNL     1      37.897 -26.380 -14.438  0.00  0.00    +0.029 C 
ATOM     26  C   UNL     1      38.393 -24.695 -12.778  0.00  0.00    +0.029 C 
ATOM     27  C   UNL     1      38.807 -25.756 -13.585  0.00  0.00    +0.140 C 
ENDBRANCH  20  22
BRANCH  20  28
ATOM     28  O   UNL     1      34.448 -23.568 -12.591  0.00  0.00    -0.366 OA
ATOM     29  H   UNL     1      33.864 -22.839 -12.854  0.00  0.00    +0.212 HD
ENDBRANCH  20  28
ENDBRANCH   7  20
TORSDOF 3
ENDMDL
MODEL 3
REMARK VINA RESULT:     -11.2      3.051      6.711
REMARK  Name = 46892373
REMARK  3 active torsions:
REMARK  status: ('A' for Active; 'I' for Inactive)
REMARK    1  A    between atoms: C_7  and  C_20
REMARK    2  A    between atoms: C_20  and  C_22
REMARK    3  A    between atoms: C_20  and  O_28
REMARK                            x       y       z     vdW  Elec       q    Type
REMARK                         _______ _______ _______ _____ _____    ______ ____
ROOT
ATOM      1  N   UNL     1      35.402 -23.098 -15.978  0.00  0.00    -0.326 NA
ATOM      2  N   UNL     1      33.176 -23.285 -16.719  0.00  0.00    -0.271 N 
ATOM      3  N   UNL     1      37.032 -21.886 -17.275  0.00  0.00    -0.345 NA
ATOM      4  N   UNL     1      31.801 -23.771 -13.569  0.00  0.00    -0.239 N 
ATOM      5  N   UNL     1      32.859 -23.386 -14.301  0.00  0.00    -0.166 NA
ATOM      6  C   UNL     1      34.773 -22.055 -18.066  0.00  0.00    +0.072 C 
ATOM      7  C   UNL     1      36.632 -22.616 -16.214  0.00  0.00    +0.146 C 
ATOM      8  C   UNL     1      34.492 -22.799 -16.924  0.00  0.00    +0.199 C 
ATOM      9  C   UNL     1      36.098 -21.607 -18.202  0.00  0.00    +0.129 C 
ATOM     10  C   UNL     1      33.806 -21.756 -19.041  0.00  0.00    +0.006 C 
ATOM     11  C   UNL     1      36.418 -20.858 -19.332  0.00  0.00    +0.086 C 
ATOM     12  C   UNL     1      32.435 -23.553 -15.557  0.00  0.00    +0.152 C 
ATOM     13  C   UNL     1      34.153 -21.007 -20.160  0.00  0.00    -0.004 C 
ATOM     14  C   UNL     1      35.461 -20.557 -20.305  0.00  0.00    -0.019 C 
ATOM     15  C   UNL     1      31.117 -24.041 -15.625  0.00  0.00    +0.048 C 
ATOM     16  C   UNL     1      30.732 -24.173 -14.314  0.00  0.00    +0.046 C 
ATOM     17  C   UNL     1      29.477 -24.635 -13.699  0.00  0.00    +0.049 C 
ATOM     18  H   UNL     1      32.688 -23.473 -17.553  0.00  0.00    +0.156 HD
ATOM     19  H   UNL     1      31.798 -23.765 -12.584  0.00  0.00    +0.174 HD
ENDROOT
BRANCH   7  20
ATOM     20  C   UNL     1      37.674 -22.923 -15.191  0.00  0.00    +0.243 C 
BRANCH  20  22
ATOM     21  F   UNL     1      35.657 -25.497 -10.580  0.00  0.00    -0.204 F 
ATOM     22  C   UNL     1      37.130 -23.617 -13.948  0.00  0.00    +0.021 C 
ATOM     23  C   UNL     1      36.644 -22.859 -12.883  0.00  0.00    +0.001 C 
ATOM     24  C   UNL     1      37.119 -25.009 -13.875  0.00  0.00    +0.001 C 
ATOM     25  C   UNL     1      36.145 -23.494 -11.745  0.00  0.00    +0.029 C 
ATOM     26  C   UNL     1      36.622 -25.645 -12.737  0.00  0.00    +0.029 C 
ATOM     27  C   UNL     1      36.135 -24.887 -11.672  0.00  0.00    +0.140 C 
ENDBRANCH  20  22
BRANCH  20  28
ATOM     28  O   UNL     1      38.757 -23.700 -15.733  0.00  0.00    -0.366 OA
ATOM     29  H   UNL     1      38.866 -24.512 -15.212  0.00  0.00    +0.212 HD
ENDBRANCH  20  28
ENDBRANCH   7  20
TORSDOF 3
ENDMDL
MODEL 4
REMARK VINA RESULT:     -10.8      2.992      5.680
REMARK  Name = 46892373
REMARK  3 active torsions:
REMARK  status: ('A' for Active; 'I' for Inactive)
REMARK    1  A    between atoms: C_7  and  C_20
REMARK    2  A    between atoms: C_20  and  C_22
REMARK    3  A    between atoms: C_20  and  O_28
REMARK                            x       y       z     vdW  Elec       q    Type
REMARK                         _______ _______ _______ _____ _____    ______ ____
ROOT
ATOM      1  N   UNL     1      34.551 -23.847 -14.924  0.00  0.00    -0.326 NA
ATOM      2  N   UNL     1      36.797 -23.530 -15.551  0.00  0.00    -0.271 N 
ATOM      3  N   UNL     1      32.759 -23.058 -16.328  0.00  0.00    -0.345 NA
ATOM      4  N   UNL     1      38.048 -26.204 -13.725  0.00  0.00    -0.239 N 
ATOM      5  N   UNL     1      36.976 -25.585 -14.246  0.00  0.00    -0.166 NA
ATOM      6  C   UNL     1      35.035 -22.714 -17.004  0.00  0.00    +0.072 C 
ATOM      7  C   UNL     1      33.258 -23.664 -15.232  0.00  0.00    +0.146 C 
ATOM      8  C   UNL     1      35.417 -23.360 -15.832  0.00  0.00    +0.199 C 
ATOM      9  C   UNL     1      33.652 -22.583 -17.214  0.00  0.00    +0.129 C 
ATOM     10  C   UNL     1      35.959 -22.214 -17.937  0.00  0.00    +0.006 C 
ATOM     11  C   UNL     1      33.230 -21.943 -18.377  0.00  0.00    +0.086 C 
ATOM     12  C   UNL     1      37.506 -24.515 -14.845  0.00  0.00    +0.152 C 
ATOM     13  C   UNL     1      35.510 -21.578 -19.089  0.00  0.00    -0.004 C 
ATOM     14  C   UNL     1      34.143 -21.443 -19.310  0.00  0.00    -0.019 C 
ATOM     15  C   UNL     1      38.905 -24.452 -14.708  0.00  0.00    +0.048 C 
ATOM     16  C   UNL     1      39.228 -25.566 -13.973  0.00  0.00    +0.046 C 
ATOM     17  C   UNL     1      40.517 -26.084 -13.486  0.00  0.00    +0.049 C 
ATOM     18  H   UNL     1      37.368 -22.819 -15.921  0.00  0.00    +0.156 HD
ATOM     19  H   UNL     1      37.987 -27.042 -13.211  0.00  0.00    +0.174 HD
ENDROOT
BRANCH   7  20
ATOM     20  C   UNL     1      32.260 -24.188 -14.253  0.00  0.00    +0.243 C 
BRANCH  20  22
ATOM     21  F   UNL     1      26.896 -23.083 -15.658  0.00  0.00    -0.204 F 
ATOM     22  C   UNL     1      30.814 -23.891 -14.632  0.00  0.00    +0.021 C 
ATOM     23  C   UNL     1      30.035 -24.875 -15.240  0.00  0.00    +0.001 C 
ATOM     24  C   UNL     1      30.269 -22.633 -14.371  0.00  0.00    +0.001 C 
ATOM     25  C   UNL     1      28.711 -24.603 -15.586  0.00  0.00    +0.029 C 
ATOM     26  C   UNL     1      28.945 -22.360 -14.718  0.00  0.00    +0.029 C 
ATOM     27  C   UNL     1      28.167 -23.346 -15.325  0.00  0.00    +0.140 C 
ENDBRANCH  20  22
BRANCH  20  28
ATOM     28  O   UNL     1      32.410 -25.601 -14.026  0.00  0.00    -0.366 OA
ATOM     29  H   UNL     1      31.659 -26.074 -14.418  0.00  0.00    +0.212 HD
ENDBRANCH  20  28
ENDBRANCH   7  20
TORSDOF 3
ENDMDL
MODEL 5
REMARK VINA RESULT:     -10.7      2.934      5.841
REMARK  Name = 46892373
REMARK  3 active torsions:
REMARK  status: ('A' for Active; 'I' for Inactive)
REMARK    1  A    between atoms: C_7  and  C_20
REMARK    2  A    between atoms: C_20  and  C_22
REMARK    3  A    between atoms: C_20  and  O_28
REMARK                            x       y       z     vdW  Elec       q    Type
REMARK                         _______ _______ _______ _____ _____    ______ ____
ROOT
ATOM      1  N   UNL     1      33.404 -23.075 -16.305  0.00  0.00    -0.326 NA
ATOM      2  N   UNL     1      35.706 -23.068 -15.817  0.00  0.00    -0.271 N 
ATOM      3  N   UNL     1      32.575 -22.082 -18.339  0.00  0.00    -0.345 NA
ATOM      4  N   UNL     1      35.630 -25.852 -13.744  0.00  0.00    -0.239 N 
ATOM      5  N   UNL     1      35.005 -25.106 -14.670  0.00  0.00    -0.166 NA
ATOM      6  C   UNL     1      34.929 -22.053 -17.878  0.00  0.00    +0.072 C 
ATOM      7  C   UNL     1      32.432 -22.729 -17.164  0.00  0.00    +0.146 C 
ATOM      8  C   UNL     1      34.644 -22.723 -16.691  0.00  0.00    +0.199 C 
ATOM      9  C   UNL     1      33.828 -21.745 -18.693  0.00  0.00    +0.129 C 
ATOM     10  C   UNL     1      36.233 -21.696 -18.259  0.00  0.00    +0.006 C 
ATOM     11  C   UNL     1      34.072 -21.075 -19.890  0.00  0.00    +0.086 C 
ATOM     12  C   UNL     1      35.881 -24.126 -14.910  0.00  0.00    +0.152 C 
ATOM     13  C   UNL     1      36.449 -21.026 -19.459  0.00  0.00    -0.004 C 
ATOM     14  C   UNL     1      35.367 -20.716 -20.275  0.00  0.00    -0.019 C 
ATOM     15  C   UNL     1      37.054 -24.245 -14.143  0.00  0.00    +0.048 C 
ATOM     16  C   UNL     1      36.860 -25.379 -13.393  0.00  0.00    +0.046 C 
ATOM     17  C   UNL     1      37.703 -26.053 -12.393  0.00  0.00    +0.049 C 
ATOM     18  H   UNL     1      36.467 -22.445 -15.851  0.00  0.00    +0.156 HD
ATOM     19  H   UNL     1      35.235 -26.665 -13.353  0.00  0.00    +0.174 HD
ENDROOT
BRANCH   7  20
ATOM     20  C   UNL     1      31.039 -23.100 -16.778  0.00  0.00    +0.243 C 
BRANCH  20  22
ATOM     21  F   UNL     1      30.619 -25.278 -11.578  0.00  0.00    -0.204 F 
ATOM     22  C   UNL     1      30.926 -23.688 -15.376  0.00  0.00    +0.021 C 
ATOM     23  C   UNL     1      30.355 -24.946 -15.191  0.00  0.00    +0.001 C 
ATOM     24  C   UNL     1      31.393 -22.966 -14.277  0.00  0.00    +0.001 C 
ATOM     25  C   UNL     1      30.251 -25.484 -13.909  0.00  0.00    +0.029 C 
ATOM     26  C   UNL     1      31.289 -23.503 -12.994  0.00  0.00    +0.029 C 
ATOM     27  C   UNL     1      30.718 -24.763 -12.810  0.00  0.00    +0.140 C 
ENDBRANCH  20  22
BRANCH  20  28
ATOM     28  O   UNL     1      30.127 -21.994 -16.904  0.00  0.00    -0.366 OA
ATOM     29  H   UNL     1      29.231 -22.286 -16.673  0.00  0.00    +0.212 HD
ENDBRANCH  20  28
ENDBRANCH   7  20
TORSDOF 3
ENDMDL
MODEL 6
REMARK VINA RESULT:     -10.7      2.654      5.472
REMARK  Name = 46892373
REMARK  3 active torsions:
REMARK  status: ('A' for Active; 'I' for Inactive)
REMARK    1  A    between atoms: C_7  and  C_20
REMARK    2  A    between atoms: C_20  and  C_22
REMARK    3  A    between atoms: C_20  and  O_28
REMARK                            x       y       z     vdW  Elec       q    Type
REMARK                         _______ _______ _______ _____ _____    ______ ____
ROOT
ATOM      1  N   UNL     1      33.306 -23.545 -14.752  0.00  0.00    -0.326 NA
ATOM      2  N   UNL     1      32.316 -22.669 -16.699  0.00  0.00    -0.271 N 
ATOM      3  N   UNL     1      32.035 -24.926 -13.240  0.00  0.00    -0.345 NA
ATOM      4  N   UNL     1      35.280 -22.332 -18.475  0.00  0.00    -0.239 N 
ATOM      5  N   UNL     1      34.640 -22.864 -17.420  0.00  0.00    -0.166 NA
ATOM      6  C   UNL     1      30.988 -24.051 -15.214  0.00  0.00    +0.072 C 
ATOM      7  C   UNL     1      33.153 -24.290 -13.646  0.00  0.00    +0.146 C 
ATOM      8  C   UNL     1      32.204 -23.445 -15.518  0.00  0.00    +0.199 C 
ATOM      9  C   UNL     1      30.952 -24.804 -14.028  0.00  0.00    +0.129 C 
ATOM     10  C   UNL     1      29.850 -23.931 -16.029  0.00  0.00    +0.006 C 
ATOM     11  C   UNL     1      29.752 -25.427 -13.690  0.00  0.00    +0.086 C 
ATOM     12  C   UNL     1      33.395 -22.399 -17.556  0.00  0.00    +0.152 C 
ATOM     13  C   UNL     1      28.664 -24.563 -15.667  0.00  0.00    -0.004 C 
ATOM     14  C   UNL     1      28.616 -25.312 -14.497  0.00  0.00    -0.019 C 
ATOM     15  C   UNL     1      33.241 -21.578 -18.689  0.00  0.00    +0.048 C 
ATOM     16  C   UNL     1      34.488 -21.554 -19.266  0.00  0.00    +0.046 C 
ATOM     17  C   UNL     1      35.001 -20.881 -20.470  0.00  0.00    +0.049 C 
ATOM     18  H   UNL     1      31.476 -22.233 -16.969  0.00  0.00    +0.156 HD
ATOM     19  H   UNL     1      36.234 -22.490 -18.659  0.00  0.00    +0.174 HD
ENDROOT
BRANCH   7  20
ATOM     20  C   UNL     1      34.350 -24.429 -12.766  0.00  0.00    +0.243 C 
BRANCH  20  22
ATOM     21  F   UNL     1      39.267 -23.918 -15.508  0.00  0.00    -0.204 F 
ATOM     22  C   UNL     1      35.676 -24.292 -13.506  0.00  0.00    +0.021 C 
ATOM     23  C   UNL     1      36.471 -25.416 -13.727  0.00  0.00    +0.001 C 
ATOM     24  C   UNL     1      36.094 -23.041 -13.961  0.00  0.00    +0.001 C 
ATOM     25  C   UNL     1      37.684 -25.290 -14.404  0.00  0.00    +0.029 C 
ATOM     26  C   UNL     1      37.308 -22.915 -14.637  0.00  0.00    +0.029 C 
ATOM     27  C   UNL     1      38.103 -24.040 -14.859  0.00  0.00    +0.140 C 
ENDBRANCH  20  22
BRANCH  20  28
ATOM     28  O   UNL     1      34.325 -23.507 -11.662  0.00  0.00    -0.366 OA
ATOM     29  H   UNL     1      33.892 -22.684 -11.937  0.00  0.00    +0.212 HD
ENDBRANCH  20  28
ENDBRANCH   7  20
TORSDOF 3
ENDMDL
MODEL 7
REMARK VINA RESULT:     -10.7      3.154      7.304
REMARK  Name = 46892373
REMARK  3 active torsions:
REMARK  status: ('A' for Active; 'I' for Inactive)
REMARK    1  A    between atoms: C_7  and  C_20
REMARK    2  A    between atoms: C_20  and  C_22
REMARK    3  A    between atoms: C_20  and  O_28
REMARK                            x       y       z     vdW  Elec       q    Type
REMARK                         _______ _______ _______ _____ _____    ______ ____
ROOT
ATOM      1  N   UNL     1      32.544 -23.884 -15.220  0.00  0.00    -0.326 NA
ATOM      2  N   UNL     1      30.996 -22.951 -16.726  0.00  0.00    -0.271 N 
ATOM      3  N   UNL     1      34.914 -23.666 -15.600  0.00  0.00    -0.345 NA
ATOM      4  N   UNL     1      28.417 -22.636 -14.423  0.00  0.00    -0.239 N 
ATOM      5  N   UNL     1      29.726 -22.840 -14.644  0.00  0.00    -0.166 NA
ATOM      6  C   UNL     1      33.368 -22.701 -17.160  0.00  0.00    +0.072 C 
ATOM      7  C   UNL     1      33.834 -24.082 -14.908  0.00  0.00    +0.146 C 
ATOM      8  C   UNL     1      32.343 -23.188 -16.354  0.00  0.00    +0.199 C 
ATOM      9  C   UNL     1      34.677 -22.974 -16.729  0.00  0.00    +0.129 C 
ATOM     10  C   UNL     1      33.133 -21.977 -18.341  0.00  0.00    +0.006 C 
ATOM     11  C   UNL     1      35.730 -22.503 -17.509  0.00  0.00    +0.086 C 
ATOM     12  C   UNL     1      29.819 -22.795 -15.976  0.00  0.00    +0.152 C 
ATOM     13  C   UNL     1      34.203 -21.518 -19.102  0.00  0.00    -0.004 C 
ATOM     14  C   UNL     1      35.503 -21.782 -18.685  0.00  0.00    -0.019 C 
ATOM     15  C   UNL     1      28.579 -22.564 -16.600  0.00  0.00    +0.048 C 
ATOM     16  C   UNL     1      27.686 -22.465 -15.561  0.00  0.00    +0.046 C 
ATOM     17  C   UNL     1      26.233 -22.230 -15.532  0.00  0.00    +0.049 C 
ATOM     18  H   UNL     1      30.858 -22.884 -17.698  0.00  0.00    +0.156 HD
ATOM     19  H   UNL     1      28.022 -22.612 -13.521  0.00  0.00    +0.174 HD
ENDROOT
BRANCH   7  20
ATOM     20  C   UNL     1      34.106 -24.850 -13.657  0.00  0.00    +0.243 C 
BRANCH  20  22
ATOM     21  F   UNL     1      39.043 -23.568 -11.220  0.00  0.00    -0.204 F 
ATOM     22  C   UNL     1      35.437 -24.504 -13.000  0.00  0.00    +0.021 C 
ATOM     23  C   UNL     1      36.597 -25.183 -13.375  0.00  0.00    +0.001 C 
ATOM     24  C   UNL     1      35.496 -23.510 -12.024  0.00  0.00    +0.001 C 
ATOM     25  C   UNL     1      37.815 -24.866 -12.775  0.00  0.00    +0.029 C 
ATOM     26  C   UNL     1      36.714 -23.194 -11.422  0.00  0.00    +0.029 C 
ATOM     27  C   UNL     1      37.874 -23.872 -11.798  0.00  0.00    +0.140 C 
ENDBRANCH  20  22
BRANCH  20  28
ATOM     28  O   UNL     1      33.049 -24.708 -12.690  0.00  0.00    -0.366 OA
ATOM     29  H   UNL     1      32.278 -24.296 -13.111  0.00  0.00    +0.212 HD
ENDBRANCH  20  28
ENDBRANCH   7  20
TORSDOF 3
ENDMDL
MODEL 8
REMARK VINA RESULT:     -10.6      1.993      5.356
REMARK  Name = 46892373
REMARK  3 active torsions:
REMARK  status: ('A' for Active; 'I' for Inactive)
REMARK    1  A    between atoms: C_7  and  C_20
REMARK    2  A    between atoms: C_20  and  C_22
REMARK    3  A    between atoms: C_20  and  O_28
REMARK                            x       y       z     vdW  Elec       q    Type
REMARK                         _______ _______ _______ _____ _____    ______ ____
ROOT
ATOM      1  N   UNL     1      35.591 -22.683 -15.349  0.00  0.00    -0.326 NA
ATOM      2  N   UNL     1      33.991 -23.460 -13.809  0.00  0.00    -0.271 N 
ATOM      3  N   UNL     1      37.881 -23.425 -15.223  0.00  0.00    -0.345 NA
ATOM      4  N   UNL     1      31.247 -22.954 -15.874  0.00  0.00    -0.239 N 
ATOM      5  N   UNL     1      32.582 -23.050 -15.759  0.00  0.00    -0.166 NA
ATOM      6  C   UNL     1      36.280 -24.241 -13.633  0.00  0.00    +0.072 C 
ATOM      7  C   UNL     1      36.868 -22.714 -15.760  0.00  0.00    +0.146 C 
ATOM      8  C   UNL     1      35.328 -23.459 -14.281  0.00  0.00    +0.199 C 
ATOM      9  C   UNL     1      37.582 -24.189 -14.157  0.00  0.00    +0.129 C 
ATOM     10  C   UNL     1      35.980 -25.043 -12.520  0.00  0.00    +0.006 C 
ATOM     11  C   UNL     1      38.564 -24.959 -13.536  0.00  0.00    +0.086 C 
ATOM     12  C   UNL     1      32.757 -23.278 -14.455  0.00  0.00    +0.152 C 
ATOM     13  C   UNL     1      36.979 -25.801 -11.918  0.00  0.00    -0.004 C 
ATOM     14  C   UNL     1      38.272 -25.759 -12.428  0.00  0.00    -0.019 C 
ATOM     15  C   UNL     1      31.545 -23.327 -13.743  0.00  0.00    +0.048 C 
ATOM     16  C   UNL     1      30.579 -23.112 -14.696  0.00  0.00    +0.046 C 
ATOM     17  C   UNL     1      29.112 -23.040 -14.610  0.00  0.00    +0.049 C 
ATOM     18  H   UNL     1      33.912 -23.618 -12.840  0.00  0.00    +0.156 HD
ATOM     19  H   UNL     1      30.792 -22.784 -16.732  0.00  0.00    +0.174 HD
ENDROOT
BRANCH   7  20
ATOM     20  C   UNL     1      37.208 -21.868 -16.942  0.00  0.00    +0.243 C 
BRANCH  20  22
ATOM     21  F   UNL     1      32.921 -21.192 -20.565  0.00  0.00    -0.204 F 
ATOM     22  C   UNL     1      36.052 -21.686 -17.919  0.00  0.00    +0.021 C 
ATOM     23  C   UNL     1      36.230 -20.927 -19.076  0.00  0.00    +0.001 C 
ATOM     24  C   UNL     1      34.817 -22.277 -17.656  0.00  0.00    +0.001 C 
ATOM     25  C   UNL     1      35.173 -20.761 -19.970  0.00  0.00    +0.029 C 
ATOM     26  C   UNL     1      33.758 -22.110 -18.550  0.00  0.00    +0.029 C 
ATOM     27  C   UNL     1      33.937 -21.352 -19.707  0.00  0.00    +0.140 C 
ENDBRANCH  20  22
BRANCH  20  28
ATOM     28  O   UNL     1      37.715 -20.577 -16.560  0.00  0.00    -0.366 OA
ATOM     29  H   UNL     1      38.672 -20.546 -16.713  0.00  0.00    +0.212 HD
ENDBRANCH  20  28
ENDBRANCH   7  20
TORSDOF 3
ENDMDL
MODEL 9
REMARK VINA RESULT:     -10.2      3.190      6.664
REMARK  Name = 46892373
REMARK  3 active torsions:
REMARK  status: ('A' for Active; 'I' for Inactive)
REMARK    1  A    between atoms: C_7  and  C_20
REMARK    2  A    between atoms: C_20  and  C_22
REMARK    3  A    between atoms: C_20  and  O_28
REMARK                            x       y       z     vdW  Elec       q    Type
REMARK                         _______ _______ _______ _____ _____    ______ ____
ROOT
ATOM      1  N   UNL     1      32.458 -24.070 -14.991  0.00  0.00    -0.326 NA
ATOM      2  N   UNL     1      34.242 -23.216 -16.267  0.00  0.00    -0.271 N 
ATOM      3  N   UNL     1      32.768 -24.638 -12.670  0.00  0.00    -0.345 NA
ATOM      4  N   UNL     1      32.252 -21.552 -18.574  0.00  0.00    -0.239 N 
ATOM      5  N   UNL     1      32.342 -22.166 -17.383  0.00  0.00    -0.166 NA
ATOM      6  C   UNL     1      34.612 -23.770 -13.936  0.00  0.00    +0.072 C 
ATOM      7  C   UNL     1      32.040 -24.521 -13.799  0.00  0.00    +0.146 C 
ATOM      8  C   UNL     1      33.752 -23.701 -15.028  0.00  0.00    +0.199 C 
ATOM      9  C   UNL     1      34.057 -24.260 -12.742  0.00  0.00    +0.129 C 
ATOM     10  C   UNL     1      35.960 -23.379 -13.998  0.00  0.00    +0.006 C 
ATOM     11  C   UNL     1      34.886 -24.344 -11.625  0.00  0.00    +0.086 C 
ATOM     12  C   UNL     1      33.625 -22.531 -17.327  0.00  0.00    +0.152 C 
ATOM     13  C   UNL     1      36.766 -23.473 -12.869  0.00  0.00    -0.004 C 
ATOM     14  C   UNL     1      36.228 -23.956 -11.681  0.00  0.00    -0.019 C 
ATOM     15  C   UNL     1      34.349 -22.154 -18.473  0.00  0.00    +0.048 C 
ATOM     16  C   UNL     1      33.426 -21.518 -19.267  0.00  0.00    +0.046 C 
ATOM     17  C   UNL     1      33.537 -20.890 -20.594  0.00  0.00    +0.049 C 
ATOM     18  H   UNL     1      35.198 -23.395 -16.413  0.00  0.00    +0.156 HD
ATOM     19  H   UNL     1      31.415 -21.162 -18.916  0.00  0.00    +0.174 HD
ENDROOT
BRANCH   7  20
ATOM     20  C   UNL     1      30.611 -24.943 -13.711  0.00  0.00    +0.243 C 
BRANCH  20  22
ATOM     21  F   UNL     1      27.197 -22.190 -17.278  0.00  0.00    -0.204 F 
ATOM     22  C   UNL     1      29.691 -24.200 -14.673  0.00  0.00    +0.021 C 
ATOM     23  C   UNL     1      29.504 -22.825 -14.537  0.00  0.00    +0.001 C 
ATOM     24  C   UNL     1      29.035 -24.896 -15.688  0.00  0.00    +0.001 C 
ATOM     25  C   UNL     1      28.662 -22.145 -15.418  0.00  0.00    +0.029 C 
ATOM     26  C   UNL     1      28.192 -24.217 -16.568  0.00  0.00    +0.029 C 
ATOM     27  C   UNL     1      28.006 -22.841 -16.433  0.00  0.00    +0.140 C 
ENDBRANCH  20  22
BRANCH  20  28
ATOM     28  O   UNL     1      30.448 -26.360 -13.897  0.00  0.00    -0.366 OA
ATOM     29  H   UNL     1      31.206 -26.711 -14.391  0.00  0.00    +0.212 HD
ENDBRANCH  20  28
ENDBRANCH   7  20
TORSDOF 3
ENDMDL
