MODEL 1
REMARK VINA RESULT:     -12.0      0.000      0.000
REMARK  Name = 5287739
REMARK  3 active torsions:
REMARK  status: ('A' for Active; 'I' for Inactive)
REMARK    1  A    between atoms: C_2  and  O_21
REMARK    2  A    between atoms: C_3  and  O_23
REMARK    3  A    between atoms: C_4  and  O_25
REMARK                            x       y       z     vdW  Elec       q    Type
REMARK                         _______ _______ _______ _____ _____    ______ ____
ROOT
ATOM      1  C   UNL     1      35.549 -23.853 -13.243  0.00  0.00    -0.021 C 
ATOM      2  C   UNL     1      37.111 -24.942 -11.029  0.00  0.00    +0.168 C 
ATOM      3  C   UNL     1      37.799 -23.995 -12.014  0.00  0.00    +0.162 C 
ATOM      4  C   UNL     1      35.686 -24.467 -10.760  0.00  0.00    +0.144 C 
ATOM      5  C   UNL     1      34.852 -24.464 -12.041  0.00  0.00    +0.058 C 
ATOM      6  C   UNL     1      36.945 -23.648 -13.217  0.00  0.00    +0.003 C 
ATOM      7  C   UNL     1      34.805 -23.529 -14.418  0.00  0.00    -0.004 C 
ATOM      8  C   UNL     1      35.477 -22.961 -15.532  0.00  0.00    -0.000 C 
ATOM      9  C   UNL     1      36.869 -22.733 -15.480  0.00  0.00    -0.000 C 
ATOM     10  C   UNL     1      37.582 -23.081 -14.330  0.00  0.00    -0.002 C 
ATOM     11  C   UNL     1      34.764 -22.617 -16.714  0.00  0.00    -0.000 C 
ATOM     12  C   UNL     1      33.416 -23.747 -14.544  0.00  0.00    -0.000 C 
ATOM     13  C   UNL     1      33.373 -22.844 -16.797  0.00  0.00    -0.000 C 
ATOM     14  C   UNL     1      35.442 -22.046 -17.819  0.00  0.00    -0.000 C 
ATOM     15  C   UNL     1      37.525 -22.168 -16.582  0.00  0.00    -0.000 C 
ATOM     16  C   UNL     1      32.714 -23.412 -15.705  0.00  0.00    -0.000 C 
ATOM     17  C   UNL     1      36.821 -21.827 -17.736  0.00  0.00    -0.000 C 
ATOM     18  C   UNL     1      32.680 -22.500 -17.966  0.00  0.00    -0.000 C 
ATOM     19  C   UNL     1      34.724 -21.711 -18.976  0.00  0.00    -0.000 C 
ATOM     20  C   UNL     1      33.352 -21.937 -19.048  0.00  0.00    +0.000 C 
ENDROOT
BRANCH   2  21
ATOM     21  O   UNL     1      37.084 -26.263 -11.569  0.00  0.00    -0.379 OA
ATOM     22  H   UNL     1      36.480 -26.290 -12.326  0.00  0.00    +0.211 HD
ENDBRANCH   2  21
BRANCH   3  23
ATOM     23  O   UNL     1      38.124 -22.774 -11.353  0.00  0.00    -0.377 OA
ATOM     24  H   UNL     1      38.870 -22.350 -11.807  0.00  0.00    +0.211 HD
ENDBRANCH   3  23
BRANCH   4  25
ATOM     25  O   UNL     1      35.056 -25.321  -9.810  0.00  0.00    -0.382 OA
ATOM     26  H   UNL     1      34.166 -25.551 -10.121  0.00  0.00    +0.210 HD
ENDBRANCH   4  25
TORSDOF 3
ENDMDL
MODEL 2
REMARK VINA RESULT:     -11.0      0.920      3.146
REMARK  Name = 5287739
REMARK  3 active torsions:
REMARK  status: ('A' for Active; 'I' for Inactive)
REMARK    1  A    between atoms: C_2  and  O_21
REMARK    2  A    between atoms: C_3  and  O_23
REMARK    3  A    between atoms: C_4  and  O_25
REMARK                            x       y       z     vdW  Elec       q    Type
REMARK                         _______ _______ _______ _____ _____    ______ ____
ROOT
ATOM      1  C   UNL     1      36.459 -23.248 -13.725  0.00  0.00    -0.021 C 
ATOM      2  C   UNL     1      36.774 -23.698 -10.857  0.00  0.00    +0.168 C 
ATOM      3  C   UNL     1      35.488 -24.174 -11.535  0.00  0.00    +0.162 C 
ATOM      4  C   UNL     1      37.968 -23.942 -11.775  0.00  0.00    +0.144 C 
ATOM      5  C   UNL     1      37.831 -23.161 -13.081  0.00  0.00    +0.058 C 
ATOM      6  C   UNL     1      35.361 -23.720 -12.975  0.00  0.00    +0.003 C 
ATOM      7  C   UNL     1      36.266 -22.810 -15.070  0.00  0.00    -0.004 C 
ATOM      8  C   UNL     1      34.975 -22.898 -15.651  0.00  0.00    -0.000 C 
ATOM      9  C   UNL     1      33.891 -23.400 -14.900  0.00  0.00    -0.000 C 
ATOM     10  C   UNL     1      34.095 -23.800 -13.577  0.00  0.00    -0.002 C 
ATOM     11  C   UNL     1      34.749 -22.480 -16.993  0.00  0.00    -0.000 C 
ATOM     12  C   UNL     1      37.301 -22.281 -15.872  0.00  0.00    -0.000 C 
ATOM     13  C   UNL     1      35.814 -21.963 -17.764  0.00  0.00    -0.000 C 
ATOM     14  C   UNL     1      33.459 -22.576 -17.567  0.00  0.00    -0.000 C 
ATOM     15  C   UNL     1      32.619 -23.488 -15.482  0.00  0.00    -0.000 C 
ATOM     16  C   UNL     1      37.082 -21.867 -17.189  0.00  0.00    -0.000 C 
ATOM     17  C   UNL     1      32.405 -23.083 -16.799  0.00  0.00    -0.000 C 
ATOM     18  C   UNL     1      35.582 -21.555 -19.085  0.00  0.00    -0.000 C 
ATOM     19  C   UNL     1      33.255 -22.160 -18.891  0.00  0.00    -0.000 C 
ATOM     20  C   UNL     1      34.311 -21.654 -19.644  0.00  0.00    +0.000 C 
ENDROOT
BRANCH   2  21
ATOM     21  O   UNL     1      36.674 -22.306 -10.557  0.00  0.00    -0.379 OA
ATOM     22  H   UNL     1      36.090 -21.878 -11.201  0.00  0.00    +0.211 HD
ENDBRANCH   2  21
BRANCH   3  23
ATOM     23  O   UNL     1      35.447 -25.600 -11.531  0.00  0.00    -0.377 OA
ATOM     24  H   UNL     1      34.547 -25.896 -11.323  0.00  0.00    +0.211 HD
ENDBRANCH   3  23
BRANCH   4  25
ATOM     25  O   UNL     1      39.173 -23.540 -11.130  0.00  0.00    -0.382 OA
ATOM     26  H   UNL     1      39.107 -22.608 -10.870  0.00  0.00    +0.210 HD
ENDBRANCH   4  25
TORSDOF 3
ENDMDL
MODEL 3
REMARK VINA RESULT:     -10.6      3.066      4.984
REMARK  Name = 5287739
REMARK  3 active torsions:
REMARK  status: ('A' for Active; 'I' for Inactive)
REMARK    1  A    between atoms: C_2  and  O_21
REMARK    2  A    between atoms: C_3  and  O_23
REMARK    3  A    between atoms: C_4  and  O_25
REMARK                            x       y       z     vdW  Elec       q    Type
REMARK                         _______ _______ _______ _____ _____    ______ ____
ROOT
ATOM      1  C   UNL     1      31.611 -23.709 -15.278  0.00  0.00    -0.021 C 
ATOM      2  C   UNL     1      29.647 -25.176 -13.692  0.00  0.00    +0.168 C 
ATOM      3  C   UNL     1      30.960 -24.758 -13.027  0.00  0.00    +0.162 C 
ATOM      4  C   UNL     1      29.161 -24.071 -14.625  0.00  0.00    +0.144 C 
ATOM      5  C   UNL     1      30.169 -23.807 -15.743  0.00  0.00    +0.058 C 
ATOM      6  C   UNL     1      31.969 -24.173 -13.995  0.00  0.00    +0.003 C 
ATOM      7  C   UNL     1      32.615 -23.193 -16.153  0.00  0.00    -0.004 C 
ATOM      8  C   UNL     1      33.958 -23.113 -15.699  0.00  0.00    -0.000 C 
ATOM      9  C   UNL     1      34.296 -23.553 -14.402  0.00  0.00    -0.000 C 
ATOM     10  C   UNL     1      33.303 -24.078 -13.571  0.00  0.00    -0.002 C 
ATOM     11  C   UNL     1      34.982 -22.595 -16.541  0.00  0.00    -0.000 C 
ATOM     12  C   UNL     1      32.351 -22.753 -17.468  0.00  0.00    -0.000 C 
ATOM     13  C   UNL     1      34.673 -22.158 -17.848  0.00  0.00    -0.000 C 
ATOM     14  C   UNL     1      36.317 -22.514 -16.079  0.00  0.00    -0.000 C 
ATOM     15  C   UNL     1      35.623 -23.467 -13.959  0.00  0.00    -0.000 C 
ATOM     16  C   UNL     1      33.355 -22.246 -18.297  0.00  0.00    -0.000 C 
ATOM     17  C   UNL     1      36.621 -22.953 -14.786  0.00  0.00    -0.000 C 
ATOM     18  C   UNL     1      35.688 -21.648 -18.669  0.00  0.00    -0.000 C 
ATOM     19  C   UNL     1      37.314 -21.999 -16.921  0.00  0.00    -0.000 C 
ATOM     20  C   UNL     1      37.000 -21.569 -18.208  0.00  0.00    +0.000 C 
ENDROOT
BRANCH   2  21
ATOM     21  O   UNL     1      29.845 -26.380 -14.433  0.00  0.00    -0.379 OA
ATOM     22  H   UNL     1      30.454 -26.210 -15.168  0.00  0.00    +0.211 HD
ENDBRANCH   2  21
BRANCH   3  23
ATOM     23  O   UNL     1      30.696 -23.768 -12.034  0.00  0.00    -0.377 OA
ATOM     24  H   UNL     1      30.870 -22.888 -12.402  0.00  0.00    +0.211 HD
ENDBRANCH   3  23
BRANCH   4  25
ATOM     25  O   UNL     1      27.917 -24.438 -15.213  0.00  0.00    -0.382 OA
ATOM     26  H   UNL     1      28.079 -24.955 -16.018  0.00  0.00    +0.210 HD
ENDBRANCH   4  25
TORSDOF 3
ENDMDL
MODEL 4
REMARK VINA RESULT:     -10.2      1.324      3.412
REMARK  Name = 5287739
REMARK  3 active torsions:
REMARK  status: ('A' for Active; 'I' for Inactive)
REMARK    1  A    between atoms: C_2  and  O_21
REMARK    2  A    between atoms: C_3  and  O_23
REMARK    3  A    between atoms: C_4  and  O_25
REMARK                            x       y       z     vdW  Elec       q    Type
REMARK                         _______ _______ _______ _____ _____    ______ ____
ROOT
ATOM      1  C   UNL     1      36.797 -23.743 -14.966  0.00  0.00    -0.021 C 
ATOM      2  C   UNL     1      37.737 -24.745 -12.389  0.00  0.00    +0.168 C 
ATOM      3  C   UNL     1      36.295 -25.041 -12.808  0.00  0.00    +0.162 C 
ATOM      4  C   UNL     1      38.662 -24.845 -13.599  0.00  0.00    +0.144 C 
ATOM      5  C   UNL     1      38.284 -23.824 -14.671  0.00  0.00    +0.058 C 
ATOM      6  C   UNL     1      35.871 -24.315 -14.069  0.00  0.00    +0.003 C 
ATOM      7  C   UNL     1      36.330 -23.049 -16.124  0.00  0.00    -0.004 C 
ATOM      8  C   UNL     1      34.936 -22.984 -16.379  0.00  0.00    -0.000 C 
ATOM      9  C   UNL     1      34.022 -23.586 -15.489  0.00  0.00    -0.000 C 
ATOM     10  C   UNL     1      34.498 -24.239 -14.348  0.00  0.00    -0.002 C 
ATOM     11  C   UNL     1      34.436 -22.309 -17.528  0.00  0.00    -0.000 C 
ATOM     12  C   UNL     1      37.186 -22.409 -17.046  0.00  0.00    -0.000 C 
ATOM     13  C   UNL     1      35.328 -21.688 -18.430  0.00  0.00    -0.000 C 
ATOM     14  C   UNL     1      33.044 -22.253 -17.778  0.00  0.00    -0.000 C 
ATOM     15  C   UNL     1      32.646 -23.521 -15.749  0.00  0.00    -0.000 C 
ATOM     16  C   UNL     1      36.699 -21.744 -18.174  0.00  0.00    -0.000 C 
ATOM     17  C   UNL     1      32.163 -22.864 -16.880  0.00  0.00    -0.000 C 
ATOM     18  C   UNL     1      34.826 -21.027 -19.560  0.00  0.00    -0.000 C 
ATOM     19  C   UNL     1      32.569 -21.585 -18.916  0.00  0.00    -0.000 C 
ATOM     20  C   UNL     1      33.456 -20.977 -19.801  0.00  0.00    +0.000 C 
ENDROOT
BRANCH   2  21
ATOM     21  O   UNL     1      37.817 -23.434 -11.831  0.00  0.00    -0.379 OA
ATOM     22  H   UNL     1      37.446 -22.793 -12.457  0.00  0.00    +0.211 HD
ENDBRANCH   2  21
BRANCH   3  23
ATOM     23  O   UNL     1      36.148 -26.439 -13.048  0.00  0.00    -0.377 OA
ATOM     24  H   UNL     1      36.480 -26.651 -13.935  0.00  0.00    +0.211 HD
ENDBRANCH   3  23
BRANCH   4  25
ATOM     25  O   UNL     1      40.011 -24.613 -13.205  0.00  0.00    -0.382 OA
ATOM     26  H   UNL     1      40.206 -23.665 -13.261  0.00  0.00    +0.210 HD
ENDBRANCH   4  25
TORSDOF 3
ENDMDL
MODEL 5
REMARK VINA RESULT:     -10.2      2.732      4.492
REMARK  Name = 5287739
REMARK  3 active torsions:
REMARK  status: ('A' for Active; 'I' for Inactive)
REMARK    1  A    between atoms: C_2  and  O_21
REMARK    2  A    between atoms: C_3  and  O_23
REMARK    3  A    between atoms: C_4  and  O_25
REMARK                            x       y       z     vdW  Elec       q    Type
REMARK                         _______ _______ _______ _____ _____    ______ ____
ROOT
ATOM      1  C   UNL     1      32.087 -23.231 -15.721  0.00  0.00    -0.021 C 
ATOM      2  C   UNL     1      30.631 -24.765 -13.708  0.00  0.00    +0.168 C 
ATOM      3  C   UNL     1      32.059 -24.314 -13.393  0.00  0.00    +0.162 C 
ATOM      4  C   UNL     1      29.895 -23.667 -14.471  0.00  0.00    +0.144 C 
ATOM      5  C   UNL     1      30.578 -23.366 -15.805  0.00  0.00    +0.058 C 
ATOM      6  C   UNL     1      32.772 -23.694 -14.578  0.00  0.00    +0.003 C 
ATOM      7  C   UNL     1      32.822 -22.681 -16.815  0.00  0.00    -0.004 C 
ATOM      8  C   UNL     1      34.233 -22.566 -16.717  0.00  0.00    -0.000 C 
ATOM      9  C   UNL     1      34.902 -23.006 -15.555  0.00  0.00    -0.000 C 
ATOM     10  C   UNL     1      34.168 -23.565 -14.506  0.00  0.00    -0.002 C 
ATOM     11  C   UNL     1      34.995 -22.013 -17.784  0.00  0.00    -0.000 C 
ATOM     12  C   UNL     1      32.220 -22.239 -18.013  0.00  0.00    -0.000 C 
ATOM     13  C   UNL     1      34.353 -21.575 -18.963  0.00  0.00    -0.000 C 
ATOM     14  C   UNL     1      36.402 -21.898 -17.676  0.00  0.00    -0.000 C 
ATOM     15  C   UNL     1      36.296 -22.886 -15.464  0.00  0.00    -0.000 C 
ATOM     16  C   UNL     1      32.966 -21.697 -19.063  0.00  0.00    -0.000 C 
ATOM     17  C   UNL     1      37.036 -22.337 -16.510  0.00  0.00    -0.000 C 
ATOM     18  C   UNL     1      35.112 -21.031 -20.009  0.00  0.00    -0.000 C 
ATOM     19  C   UNL     1      37.138 -21.349 -18.737  0.00  0.00    -0.000 C 
ATOM     20  C   UNL     1      36.495 -20.918 -19.895  0.00  0.00    +0.000 C 
ENDROOT
BRANCH   2  21
ATOM     21  O   UNL     1      30.663 -25.957 -14.492  0.00  0.00    -0.379 OA
ATOM     22  H   UNL     1      31.403 -25.912 -15.117  0.00  0.00    +0.211 HD
ENDBRANCH   2  21
BRANCH   3  23
ATOM     23  O   UNL     1      32.032 -23.340 -12.352  0.00  0.00    -0.377 OA
ATOM     24  H   UNL     1      31.662 -23.738 -11.547  0.00  0.00    +0.211 HD
ENDBRANCH   3  23
BRANCH   4  25
ATOM     25  O   UNL     1      28.551 -24.064 -14.728  0.00  0.00    -0.382 OA
ATOM     26  H   UNL     1      28.542 -24.973 -15.067  0.00  0.00    +0.210 HD
ENDBRANCH   4  25
TORSDOF 3
ENDMDL
MODEL 6
REMARK VINA RESULT:     -10.2      1.471      3.691
REMARK  Name = 5287739
REMARK  3 active torsions:
REMARK  status: ('A' for Active; 'I' for Inactive)
REMARK    1  A    between atoms: C_2  and  O_21
REMARK    2  A    between atoms: C_3  and  O_23
REMARK    3  A    between atoms: C_4  and  O_25
REMARK                            x       y       z     vdW  Elec       q    Type
REMARK                         _______ _______ _______ _____ _____    ______ ____
ROOT
ATOM      1  C   UNL     1      36.404 -23.372 -15.526  0.00  0.00    -0.021 C 
ATOM      2  C   UNL     1      36.895 -24.502 -12.879  0.00  0.00    +0.168 C 
ATOM      3  C   UNL     1      35.522 -24.711 -13.520  0.00  0.00    +0.162 C 
ATOM      4  C   UNL     1      37.987 -24.610 -13.940  0.00  0.00    +0.144 C 
ATOM      5  C   UNL     1      37.823 -23.538 -15.015  0.00  0.00    +0.058 C 
ATOM      6  C   UNL     1      35.327 -23.925 -14.801  0.00  0.00    +0.003 C 
ATOM      7  C   UNL     1      36.149 -22.619 -16.713  0.00  0.00    -0.004 C 
ATOM      8  C   UNL     1      34.814 -22.475 -17.171  0.00  0.00    -0.000 C 
ATOM      9  C   UNL     1      33.749 -23.059 -16.452  0.00  0.00    -0.000 C 
ATOM     10  C   UNL     1      34.017 -23.771 -15.280  0.00  0.00    -0.002 C 
ATOM     11  C   UNL     1      34.525 -21.740 -18.355  0.00  0.00    -0.000 C 
ATOM     12  C   UNL     1      37.163 -21.994 -17.470  0.00  0.00    -0.000 C 
ATOM     13  C   UNL     1      35.571 -21.136 -19.088  0.00  0.00    -0.000 C 
ATOM     14  C   UNL     1      33.191 -21.605 -18.808  0.00  0.00    -0.000 C 
ATOM     15  C   UNL     1      32.433 -22.916 -16.913  0.00  0.00    -0.000 C 
ATOM     16  C   UNL     1      36.882 -21.269 -18.631  0.00  0.00    -0.000 C 
ATOM     17  C   UNL     1      32.157 -22.200 -18.078  0.00  0.00    -0.000 C 
ATOM     18  C   UNL     1      35.277 -20.414 -20.254  0.00  0.00    -0.000 C 
ATOM     19  C   UNL     1      32.925 -20.878 -19.978  0.00  0.00    -0.000 C 
ATOM     20  C   UNL     1      33.962 -20.287 -20.695  0.00  0.00    +0.000 C 
ENDROOT
BRANCH   2  21
ATOM     21  O   UNL     1      36.949 -23.215 -12.264  0.00  0.00    -0.379 OA
ATOM     22  H   UNL     1      36.817 -22.530 -12.937  0.00  0.00    +0.211 HD
ENDBRANCH   2  21
BRANCH   3  23
ATOM     23  O   UNL     1      35.349 -26.092 -13.835  0.00  0.00    -0.377 OA
ATOM     24  H   UNL     1      34.712 -26.180 -14.560  0.00  0.00    +0.211 HD
ENDBRANCH   3  23
BRANCH   4  25
ATOM     25  O   UNL     1      39.270 -24.459 -13.339  0.00  0.00    -0.382 OA
ATOM     26  H   UNL     1      39.166 -24.300 -12.388  0.00  0.00    +0.210 HD
ENDBRANCH   4  25
TORSDOF 3
ENDMDL
MODEL 7
REMARK VINA RESULT:      -9.9      2.037      3.573
REMARK  Name = 5287739
REMARK  3 active torsions:
REMARK  status: ('A' for Active; 'I' for Inactive)
REMARK    1  A    between atoms: C_2  and  O_21
REMARK    2  A    between atoms: C_3  and  O_23
REMARK    3  A    between atoms: C_4  and  O_25
REMARK                            x       y       z     vdW  Elec       q    Type
REMARK                         _______ _______ _______ _____ _____    ______ ____
ROOT
ATOM      1  C   UNL     1      34.990 -24.475 -13.736  0.00  0.00    -0.021 C 
ATOM      2  C   UNL     1      37.858 -25.026 -13.719  0.00  0.00    +0.168 C 
ATOM      3  C   UNL     1      37.312 -24.018 -14.732  0.00  0.00    +0.162 C 
ATOM      4  C   UNL     1      37.130 -24.870 -12.386  0.00  0.00    +0.144 C 
ATOM      5  C   UNL     1      35.635 -25.144 -12.536  0.00  0.00    +0.058 C 
ATOM      6  C   UNL     1      35.799 -23.958 -14.770  0.00  0.00    +0.003 C 
ATOM      7  C   UNL     1      33.568 -24.410 -13.846  0.00  0.00    -0.004 C 
ATOM      8  C   UNL     1      32.986 -23.783 -14.978  0.00  0.00    -0.000 C 
ATOM      9  C   UNL     1      33.807 -23.242 -15.990  0.00  0.00    -0.000 C 
ATOM     10  C   UNL     1      35.196 -23.339 -15.876  0.00  0.00    -0.002 C 
ATOM     11  C   UNL     1      31.572 -23.691 -15.114  0.00  0.00    -0.000 C 
ATOM     12  C   UNL     1      32.687 -24.946 -12.881  0.00  0.00    -0.000 C 
ATOM     13  C   UNL     1      30.727 -24.233 -14.121  0.00  0.00    -0.000 C 
ATOM     14  C   UNL     1      31.000 -23.059 -16.244  0.00  0.00    -0.000 C 
ATOM     15  C   UNL     1      33.226 -22.620 -17.103  0.00  0.00    -0.000 C 
ATOM     16  C   UNL     1      31.299 -24.859 -13.013  0.00  0.00    -0.000 C 
ATOM     17  C   UNL     1      31.840 -22.527 -17.228  0.00  0.00    -0.000 C 
ATOM     18  C   UNL     1      29.335 -24.137 -14.263  0.00  0.00    -0.000 C 
ATOM     19  C   UNL     1      29.605 -22.976 -16.362  0.00  0.00    -0.000 C 
ATOM     20  C   UNL     1      28.779 -23.512 -15.376  0.00  0.00    +0.000 C 
ENDROOT
BRANCH   2  21
ATOM     21  O   UNL     1      37.676 -26.353 -14.213  0.00  0.00    -0.379 OA
ATOM     22  H   UNL     1      38.283 -26.507 -14.954  0.00  0.00    +0.211 HD
ENDBRANCH   2  21
BRANCH   3  23
ATOM     23  O   UNL     1      37.785 -22.712 -14.406  0.00  0.00    -0.377 OA
ATOM     24  H   UNL     1      38.732 -22.652 -14.611  0.00  0.00    +0.211 HD
ENDBRANCH   3  23
BRANCH   4  25
ATOM     25  O   UNL     1      37.665 -25.777 -11.427  0.00  0.00    -0.382 OA
ATOM     26  H   UNL     1      37.443 -25.472 -10.533  0.00  0.00    +0.210 HD
ENDBRANCH   4  25
TORSDOF 3
ENDMDL
MODEL 8
REMARK VINA RESULT:      -9.8      2.164      4.544
REMARK  Name = 5287739
REMARK  3 active torsions:
REMARK  status: ('A' for Active; 'I' for Inactive)
REMARK    1  A    between atoms: C_2  and  O_21
REMARK    2  A    between atoms: C_3  and  O_23
REMARK    3  A    between atoms: C_4  and  O_25
REMARK                            x       y       z     vdW  Elec       q    Type
REMARK                         _______ _______ _______ _____ _____    ______ ____
ROOT
ATOM      1  C   UNL     1      35.086 -23.940 -14.630  0.00  0.00    -0.021 C 
ATOM      2  C   UNL     1      37.648 -24.185 -13.250  0.00  0.00    +0.168 C 
ATOM      3  C   UNL     1      36.425 -24.883 -12.652  0.00  0.00    +0.162 C 
ATOM      4  C   UNL     1      37.618 -24.296 -14.772  0.00  0.00    +0.144 C 
ATOM      5  C   UNL     1      36.380 -23.615 -15.353  0.00  0.00    +0.058 C 
ATOM      6  C   UNL     1      35.127 -24.531 -13.349  0.00  0.00    +0.003 C 
ATOM      7  C   UNL     1      33.829 -23.608 -15.220  0.00  0.00    -0.004 C 
ATOM      8  C   UNL     1      32.631 -23.919 -14.525  0.00  0.00    -0.000 C 
ATOM      9  C   UNL     1      32.686 -24.538 -13.258  0.00  0.00    -0.000 C 
ATOM     10  C   UNL     1      33.927 -24.831 -12.687  0.00  0.00    -0.002 C 
ATOM     11  C   UNL     1      31.361 -23.612 -15.089  0.00  0.00    -0.000 C 
ATOM     12  C   UNL     1      33.701 -22.974 -16.474  0.00  0.00    -0.000 C 
ATOM     13  C   UNL     1      31.278 -22.983 -16.350  0.00  0.00    -0.000 C 
ATOM     14  C   UNL     1      30.171 -23.930 -14.391  0.00  0.00    -0.000 C 
ATOM     15  C   UNL     1      31.499 -24.846 -12.579  0.00  0.00    -0.000 C 
ATOM     16  C   UNL     1      32.456 -22.668 -17.029  0.00  0.00    -0.000 C 
ATOM     17  C   UNL     1      30.257 -24.548 -13.139  0.00  0.00    -0.000 C 
ATOM     18  C   UNL     1      30.022 -22.685 -16.898  0.00  0.00    -0.000 C 
ATOM     19  C   UNL     1      28.928 -23.621 -14.962  0.00  0.00    -0.000 C 
ATOM     20  C   UNL     1      28.855 -23.003 -16.207  0.00  0.00    +0.000 C 
ENDROOT
BRANCH   2  21
ATOM     21  O   UNL     1      37.652 -22.810 -12.868  0.00  0.00    -0.379 OA
ATOM     22  H   UNL     1      38.567 -22.507 -12.763  0.00  0.00    +0.211 HD
ENDBRANCH   2  21
BRANCH   3  23
ATOM     23  O   UNL     1      36.592 -26.297 -12.746  0.00  0.00    -0.377 OA
ATOM     24  H   UNL     1      36.012 -26.734 -12.101  0.00  0.00    +0.211 HD
ENDBRANCH   3  23
BRANCH   4  25
ATOM     25  O   UNL     1      38.778 -23.684 -15.330  0.00  0.00    -0.382 OA
ATOM     26  H   UNL     1      39.572 -24.053 -14.912  0.00  0.00    +0.210 HD
ENDBRANCH   4  25
TORSDOF 3
ENDMDL
MODEL 9
REMARK VINA RESULT:      -9.6     18.837     21.865
REMARK  Name = 5287739
REMARK  3 active torsions:
REMARK  status: ('A' for Active; 'I' for Inactive)
REMARK    1  A    between atoms: C_2  and  O_21
REMARK    2  A    between atoms: C_3  and  O_23
REMARK    3  A    between atoms: C_4  and  O_25
REMARK                            x       y       z     vdW  Elec       q    Type
REMARK                         _______ _______ _______ _____ _____    ______ ____
ROOT
ATOM      1  C   UNL     1      34.466  -4.874 -25.873  0.00  0.00    -0.021 C 
ATOM      2  C   UNL     1      34.851  -3.743 -28.538  0.00  0.00    +0.168 C 
ATOM      3  C   UNL     1      33.849  -3.073 -27.596  0.00  0.00    +0.162 C 
ATOM      4  C   UNL     1      36.074  -4.207 -27.752  0.00  0.00    +0.144 C 
ATOM      5  C   UNL     1      35.692  -5.238 -26.691  0.00  0.00    +0.058 C 
ATOM      6  C   UNL     1      33.600  -3.854 -26.322  0.00  0.00    +0.003 C 
ATOM      7  C   UNL     1      34.160  -5.591 -24.677  0.00  0.00    -0.004 C 
ATOM      8  C   UNL     1      33.007  -5.236 -23.930  0.00  0.00    -0.000 C 
ATOM      9  C   UNL     1      32.165  -4.194 -24.375  0.00  0.00    -0.000 C 
ATOM     10  C   UNL     1      32.469  -3.521 -25.561  0.00  0.00    -0.002 C 
ATOM     11  C   UNL     1      32.678  -5.923 -22.728  0.00  0.00    -0.000 C 
ATOM     12  C   UNL     1      34.946  -6.655 -24.184  0.00  0.00    -0.000 C 
ATOM     13  C   UNL     1      33.496  -6.977 -22.265  0.00  0.00    -0.000 C 
ATOM     14  C   UNL     1      31.528  -5.559 -21.986  0.00  0.00    -0.000 C 
ATOM     15  C   UNL     1      31.031  -3.846 -23.629  0.00  0.00    -0.000 C 
ATOM     16  C   UNL     1      34.624  -7.332 -23.006  0.00  0.00    -0.000 C 
ATOM     17  C   UNL     1      30.717  -4.518 -22.449  0.00  0.00    -0.000 C 
ATOM     18  C   UNL     1      33.164  -7.647 -21.079  0.00  0.00    -0.000 C 
ATOM     19  C   UNL     1      31.219  -6.246 -20.803  0.00  0.00    -0.000 C 
ATOM     20  C   UNL     1      32.033  -7.283 -20.353  0.00  0.00    +0.000 C 
ENDROOT
BRANCH   2  21
ATOM     21  O   UNL     1      34.237  -4.862 -29.177  0.00  0.00    -0.379 OA
ATOM     22  H   UNL     1      34.541  -4.915 -30.097  0.00  0.00    +0.211 HD
ENDBRANCH   2  21
BRANCH   3  23
ATOM     23  O   UNL     1      34.337  -1.786 -27.221  0.00  0.00    -0.377 OA
ATOM     24  H   UNL     1      35.304  -1.775 -27.289  0.00  0.00    +0.211 HD
ENDBRANCH   3  23
BRANCH   4  25
ATOM     25  O   UNL     1      37.029  -4.793 -28.632  0.00  0.00    -0.382 OA
ATOM     26  H   UNL     1      37.620  -4.104 -28.974  0.00  0.00    +0.210 HD
ENDBRANCH   4  25
TORSDOF 3
ENDMDL
