MODEL 1
REMARK VINA RESULT:     -12.1      0.000      0.000
REMARK  Name = 447735
REMARK  4 active torsions:
REMARK  status: ('A' for Active; 'I' for Inactive)
REMARK    1  A    between atoms: N_2  and  C_13
REMARK    2  A    between atoms: C_3  and  C_18
REMARK    3  A    between atoms: C_7  and  C_15
REMARK    4  A    between atoms: C_26  and  C_30
REMARK                            x       y       z     vdW  Elec       q    Type
REMARK                         _______ _______ _______ _____ _____    ______ ____
ROOT
ATOM      1  O   UNL     1      33.793 -23.966 -17.775  0.00  0.00    -0.270 OA
ATOM      2  N   UNL     1      35.047 -22.462 -16.472  0.00  0.00    -0.280 N 
ATOM      3  C   UNL     1      34.328 -22.877 -17.602  0.00  0.00    +0.249 C 
ATOM      4  H   UNL     1      35.409 -21.548 -16.504  0.00  0.00    +0.155 HD
ENDROOT
BRANCH   2  13
ATOM      5  N   UNL     1      38.505 -25.481 -12.474  0.00  0.00    -0.274 NA
ATOM      6  C   UNL     1      36.830 -24.456 -13.933  0.00  0.00    +0.010 C 
ATOM      7  C   UNL     1      38.143 -25.089 -13.651  0.00  0.00    +0.053 C 
ATOM      8  C   UNL     1      35.826 -24.626 -12.970  0.00  0.00    -0.019 C 
ATOM      9  C   UNL     1      36.133 -25.435 -11.745  0.00  0.00    +0.053 C 
ATOM     10  C   UNL     1      37.591 -25.224 -11.356  0.00  0.00    +0.130 C 
ATOM     11  C   UNL     1      36.575 -23.732 -15.100  0.00  0.00    +0.016 C 
ATOM     12  C   UNL     1      34.555 -24.089 -13.196  0.00  0.00    -0.003 C 
ATOM     13  C   UNL     1      35.308 -23.186 -15.309  0.00  0.00    +0.051 C 
ATOM     14  C   UNL     1      34.301 -23.367 -14.361  0.00  0.00    +0.014 C 
BRANCH   7  15
ATOM     15  C   UNL     1      39.110 -25.296 -14.790  0.00  0.00    +0.040 C 
ATOM     16  C   UNL     1      39.516 -23.939 -15.336  0.00  0.00    +0.006 C 
ATOM     17  C   UNL     1      40.305 -26.090 -14.293  0.00  0.00    +0.006 C 
ENDBRANCH   7  15
ENDBRANCH   2  13
BRANCH   3  18
ATOM     18  C   UNL     1      34.242 -21.881 -18.703  0.00  0.00    +0.054 C 
ATOM     19  C   UNL     1      35.340 -20.359 -20.206  0.00  0.00    +0.000 C 
ATOM     20  C   UNL     1      34.082 -20.025 -20.760  0.00  0.00    +0.000 C 
ATOM     21  C   UNL     1      35.405 -21.301 -19.167  0.00  0.00    +0.005 C 
ATOM     22  C   UNL     1      33.007 -21.574 -19.223  0.00  0.00    +0.005 C 
ATOM     23  C   UNL     1      32.923 -20.641 -20.258  0.00  0.00    +0.000 C 
ATOM     24  C   UNL     1      34.017 -19.082 -21.800  0.00  0.00    +0.003 C 
ATOM     25  C   UNL     1      36.497 -19.742 -20.709  0.00  0.00    +0.000 C 
ATOM     26  C   UNL     1      35.177 -18.479 -22.287  0.00  0.00    +0.031 C 
ATOM     27  C   UNL     1      36.415 -18.808 -21.742  0.00  0.00    +0.003 C 
BRANCH  26  30
ATOM     28  N   UNL     1      34.379 -17.775 -24.530  0.00  0.00    -0.343 N 
ATOM     29  N   UNL     1      35.708 -16.342 -23.249  0.00  0.00    -0.285 NA
ATOM     30  C   UNL     1      35.094 -17.507 -23.364  0.00  0.00    +0.117 C 
ATOM     31  H   UNL     1      34.336 -17.101 -25.247  0.00  0.00    +0.144 HD
ATOM     32  H   UNL     1      33.917 -18.637 -24.637  0.00  0.00    +0.144 HD
ATOM     33  H   UNL     1      35.654 -15.682 -23.977  0.00  0.00    +0.188 HD
ENDBRANCH  26  30
ENDBRANCH   3  18
TORSDOF 4
ENDMDL
MODEL 2
REMARK VINA RESULT:     -11.4      9.491     16.181
REMARK  Name = 447735
REMARK  4 active torsions:
REMARK  status: ('A' for Active; 'I' for Inactive)
REMARK    1  A    between atoms: N_2  and  C_13
REMARK    2  A    between atoms: C_3  and  C_18
REMARK    3  A    between atoms: C_7  and  C_15
REMARK    4  A    between atoms: C_26  and  C_30
REMARK                            x       y       z     vdW  Elec       q    Type
REMARK                         _______ _______ _______ _____ _____    ______ ____
ROOT
ATOM      1  O   UNL     1      30.395 -10.212 -21.772  0.00  0.00    -0.270 OA
ATOM      2  N   UNL     1      32.514  -9.201 -21.908  0.00  0.00    -0.280 N 
ATOM      3  C   UNL     1      31.620 -10.271 -21.768  0.00  0.00    +0.249 C 
ATOM      4  H   UNL     1      33.470  -9.432 -21.882  0.00  0.00    +0.155 HD
ENDROOT
BRANCH   2  13
ATOM      5  N   UNL     1      32.235  -3.922 -24.927  0.00  0.00    -0.274 NA
ATOM      6  C   UNL     1      32.326  -5.836 -23.405  0.00  0.00    +0.010 C 
ATOM      7  C   UNL     1      32.755  -5.057 -24.595  0.00  0.00    +0.053 C 
ATOM      8  C   UNL     1      31.600  -5.145 -22.427  0.00  0.00    -0.019 C 
ATOM      9  C   UNL     1      31.321  -3.686 -22.632  0.00  0.00    +0.053 C 
ATOM     10  C   UNL     1      31.121  -3.417 -24.118  0.00  0.00    +0.130 C 
ATOM     11  C   UNL     1      32.630  -7.189 -23.239  0.00  0.00    +0.016 C 
ATOM     12  C   UNL     1      31.202  -5.812 -21.264  0.00  0.00    -0.003 C 
ATOM     13  C   UNL     1      32.214  -7.850 -22.082  0.00  0.00    +0.051 C 
ATOM     14  C   UNL     1      31.505  -7.163 -21.096  0.00  0.00    +0.014 C 
BRANCH   7  15
ATOM     15  C   UNL     1      33.860  -5.607 -25.464  0.00  0.00    +0.040 C 
ATOM     16  C   UNL     1      34.082  -4.656 -26.626  0.00  0.00    +0.006 C 
ATOM     17  C   UNL     1      35.114  -5.784 -24.626  0.00  0.00    +0.006 C 
ENDBRANCH   7  15
ENDBRANCH   2  13
BRANCH   3  18
ATOM     18  C   UNL     1      32.247 -11.604 -21.570  0.00  0.00    +0.054 C 
ATOM     19  C   UNL     1      33.561 -13.423 -22.436  0.00  0.00    +0.000 C 
ATOM     20  C   UNL     1      33.420 -14.092 -21.197  0.00  0.00    +0.000 C 
ATOM     21  C   UNL     1      32.962 -12.164 -22.608  0.00  0.00    +0.005 C 
ATOM     22  C   UNL     1      32.095 -12.234 -20.356  0.00  0.00    +0.005 C 
ATOM     23  C   UNL     1      32.683 -13.485 -20.166  0.00  0.00    +0.000 C 
ATOM     24  C   UNL     1      34.019 -15.351 -21.025  0.00  0.00    +0.003 C 
ATOM     25  C   UNL     1      34.297 -14.031 -23.464  0.00  0.00    +0.000 C 
ATOM     26  C   UNL     1      34.747 -15.941 -22.059  0.00  0.00    +0.031 C 
ATOM     27  C   UNL     1      34.886 -15.282 -23.277  0.00  0.00    +0.003 C 
BRANCH  26  30
ATOM     28  N   UNL     1      35.429 -17.833 -20.603  0.00  0.00    -0.343 N 
ATOM     29  N   UNL     1      35.874 -17.891 -22.897  0.00  0.00    -0.285 NA
ATOM     30  C   UNL     1      35.362 -17.244 -21.864  0.00  0.00    +0.117 C 
ATOM     31  H   UNL     1      35.850 -18.717 -20.495  0.00  0.00    +0.144 HD
ATOM     32  H   UNL     1      35.056 -17.367 -19.821  0.00  0.00    +0.144 HD
ATOM     33  H   UNL     1      36.292 -18.773 -22.768  0.00  0.00    +0.188 HD
ENDBRANCH  26  30
ENDBRANCH   3  18
TORSDOF 4
ENDMDL
MODEL 3
REMARK VINA RESULT:     -11.3      1.043      2.631
REMARK  Name = 447735
REMARK  4 active torsions:
REMARK  status: ('A' for Active; 'I' for Inactive)
REMARK    1  A    between atoms: N_2  and  C_13
REMARK    2  A    between atoms: C_3  and  C_18
REMARK    3  A    between atoms: C_7  and  C_15
REMARK    4  A    between atoms: C_26  and  C_30
REMARK                            x       y       z     vdW  Elec       q    Type
REMARK                         _______ _______ _______ _____ _____    ______ ____
ROOT
ATOM      1  O   UNL     1      34.461 -23.368 -17.434  0.00  0.00    -0.270 OA
ATOM      2  N   UNL     1      36.494 -22.271 -16.990  0.00  0.00    -0.280 N 
ATOM      3  C   UNL     1      35.283 -22.487 -17.662  0.00  0.00    +0.249 C 
ATOM      4  H   UNL     1      37.033 -21.511 -17.307  0.00  0.00    +0.155 HD
ENDROOT
BRANCH   2  13
ATOM      5  N   UNL     1      36.309 -25.520 -11.845  0.00  0.00    -0.274 NA
ATOM      6  C   UNL     1      36.737 -24.143 -13.822  0.00  0.00    +0.010 C 
ATOM      7  C   UNL     1      35.927 -24.596 -12.663  0.00  0.00    +0.053 C 
ATOM      8  C   UNL     1      38.100 -24.470 -13.806  0.00  0.00    -0.019 C 
ATOM      9  C   UNL     1      38.645 -25.229 -12.633  0.00  0.00    +0.053 C 
ATOM     10  C   UNL     1      37.583 -26.194 -12.121  0.00  0.00    +0.130 C 
ATOM     11  C   UNL     1      36.197 -23.414 -14.883  0.00  0.00    +0.016 C 
ATOM     12  C   UNL     1      38.925 -24.038 -14.848  0.00  0.00    -0.003 C 
ATOM     13  C   UNL     1      37.026 -23.000 -15.927  0.00  0.00    +0.051 C 
ATOM     14  C   UNL     1      38.387 -23.309 -15.907  0.00  0.00    +0.014 C 
BRANCH   7  15
ATOM     15  C   UNL     1      34.587 -23.946 -12.414  0.00  0.00    +0.040 C 
ATOM     16  C   UNL     1      33.512 -24.775 -13.093  0.00  0.00    +0.006 C 
ATOM     17  C   UNL     1      34.358 -23.831 -10.918  0.00  0.00    +0.006 C 
ENDBRANCH   7  15
ENDBRANCH   2  13
BRANCH   3  18
ATOM     18  C   UNL     1      34.999 -21.550 -18.781  0.00  0.00    +0.054 C 
ATOM     19  C   UNL     1      35.797 -19.974 -20.413  0.00  0.00    +0.000 C 
ATOM     20  C   UNL     1      34.470 -19.804 -20.873  0.00  0.00    +0.000 C 
ATOM     21  C   UNL     1      36.049 -20.863 -19.354  0.00  0.00    +0.005 C 
ATOM     22  C   UNL     1      33.700 -21.403 -19.209  0.00  0.00    +0.005 C 
ATOM     23  C   UNL     1      33.432 -20.525 -20.260  0.00  0.00    +0.000 C 
ATOM     24  C   UNL     1      34.219 -18.915 -21.931  0.00  0.00    +0.003 C 
ATOM     25  C   UNL     1      36.834 -19.252 -21.026  0.00  0.00    +0.000 C 
ATOM     26  C   UNL     1      35.261 -18.206 -22.528  0.00  0.00    +0.031 C 
ATOM     27  C   UNL     1      36.567 -18.374 -22.076  0.00  0.00    +0.003 C 
BRANCH  26  30
ATOM     28  N   UNL     1      34.145 -17.652 -24.676  0.00  0.00    -0.343 N 
ATOM     29  N   UNL     1      35.539 -16.091 -23.635  0.00  0.00    -0.285 NA
ATOM     30  C   UNL     1      34.985 -17.291 -23.624  0.00  0.00    +0.117 C 
ATOM     31  H   UNL     1      33.972 -17.016 -25.407  0.00  0.00    +0.144 HD
ATOM     32  H   UNL     1      33.725 -18.542 -24.687  0.00  0.00    +0.144 HD
ATOM     33  H   UNL     1      35.354 -15.470 -24.376  0.00  0.00    +0.188 HD
ENDBRANCH  26  30
ENDBRANCH   3  18
TORSDOF 4
ENDMDL
MODEL 4
REMARK VINA RESULT:     -11.3      9.204     15.774
REMARK  Name = 447735
REMARK  4 active torsions:
REMARK  status: ('A' for Active; 'I' for Inactive)
REMARK    1  A    between atoms: N_2  and  C_13
REMARK    2  A    between atoms: C_3  and  C_18
REMARK    3  A    between atoms: C_7  and  C_15
REMARK    4  A    between atoms: C_26  and  C_30
REMARK                            x       y       z     vdW  Elec       q    Type
REMARK                         _______ _______ _______ _____ _____    ______ ____
ROOT
ATOM      1  O   UNL     1      34.796 -10.019 -24.008  0.00  0.00    -0.270 OA
ATOM      2  N   UNL     1      32.691 -10.162 -22.969  0.00  0.00    -0.280 N 
ATOM      3  C   UNL     1      33.828 -10.663 -23.618  0.00  0.00    +0.249 C 
ATOM      4  H   UNL     1      32.007 -10.826 -22.725  0.00  0.00    +0.155 HD
ENDROOT
BRANCH   2  13
ATOM      5  N   UNL     1      32.115  -4.180 -23.939  0.00  0.00    -0.274 NA
ATOM      6  C   UNL     1      32.381  -6.494 -23.190  0.00  0.00    +0.010 C 
ATOM      7  C   UNL     1      32.643  -5.348 -24.097  0.00  0.00    +0.053 C 
ATOM      8  C   UNL     1      31.840  -6.193 -21.933  0.00  0.00    -0.019 C 
ATOM      9  C   UNL     1      31.580  -4.758 -21.585  0.00  0.00    +0.053 C 
ATOM     10  C   UNL     1      31.158  -4.005 -22.840  0.00  0.00    +0.130 C 
ATOM     11  C   UNL     1      32.662  -7.816 -23.541  0.00  0.00    +0.016 C 
ATOM     12  C   UNL     1      31.607  -7.224 -21.017  0.00  0.00    -0.003 C 
ATOM     13  C   UNL     1      32.412  -8.840 -22.626  0.00  0.00    +0.051 C 
ATOM     14  C   UNL     1      31.889  -8.544 -21.367  0.00  0.00    +0.014 C 
BRANCH   7  15
ATOM     15  C   UNL     1      33.579  -5.545 -25.265  0.00  0.00    +0.040 C 
ATOM     16  C   UNL     1      33.485  -4.332 -26.172  0.00  0.00    +0.006 C 
ATOM     17  C   UNL     1      34.989  -5.759 -24.744  0.00  0.00    +0.006 C 
ENDBRANCH   7  15
ENDBRANCH   2  13
BRANCH   3  18
ATOM     18  C   UNL     1      33.823 -12.128 -23.873  0.00  0.00    +0.054 C 
ATOM     19  C   UNL     1      34.260 -14.363 -23.102  0.00  0.00    +0.000 C 
ATOM     20  C   UNL     1      33.813 -14.862 -24.348  0.00  0.00    +0.000 C 
ATOM     21  C   UNL     1      34.258 -12.977 -22.877  0.00  0.00    +0.005 C 
ATOM     22  C   UNL     1      33.383 -12.586 -25.093  0.00  0.00    +0.005 C 
ATOM     23  C   UNL     1      33.377 -13.961 -25.334  0.00  0.00    +0.000 C 
ATOM     24  C   UNL     1      33.815 -16.249 -24.574  0.00  0.00    +0.003 C 
ATOM     25  C   UNL     1      34.695 -15.265 -22.118  0.00  0.00    +0.000 C 
ATOM     26  C   UNL     1      34.251 -17.130 -23.584  0.00  0.00    +0.031 C 
ATOM     27  C   UNL     1      34.691 -16.639 -22.358  0.00  0.00    +0.003 C 
BRANCH  26  30
ATOM     28  N   UNL     1      35.175 -19.407 -23.228  0.00  0.00    -0.343 N 
ATOM     29  N   UNL     1      33.348 -19.086 -24.650  0.00  0.00    -0.285 NA
ATOM     30  C   UNL     1      34.245 -18.563 -23.832  0.00  0.00    +0.117 C 
ATOM     31  H   UNL     1      35.152 -20.374 -23.410  0.00  0.00    +0.144 HD
ATOM     32  H   UNL     1      35.853 -19.037 -22.618  0.00  0.00    +0.144 HD
ATOM     33  H   UNL     1      33.343 -20.056 -24.820  0.00  0.00    +0.188 HD
ENDBRANCH  26  30
ENDBRANCH   3  18
TORSDOF 4
ENDMDL
MODEL 5
REMARK VINA RESULT:     -11.0      2.084     10.359
REMARK  Name = 447735
REMARK  4 active torsions:
REMARK  status: ('A' for Active; 'I' for Inactive)
REMARK    1  A    between atoms: N_2  and  C_13
REMARK    2  A    between atoms: C_3  and  C_18
REMARK    3  A    between atoms: C_7  and  C_15
REMARK    4  A    between atoms: C_26  and  C_30
REMARK                            x       y       z     vdW  Elec       q    Type
REMARK                         _______ _______ _______ _____ _____    ______ ____
ROOT
ATOM      1  O   UNL     1      33.549 -21.413 -19.893  0.00  0.00    -0.270 OA
ATOM      2  N   UNL     1      35.463 -20.076 -20.173  0.00  0.00    -0.280 N 
ATOM      3  C   UNL     1      34.666 -21.044 -19.548  0.00  0.00    +0.249 C 
ATOM      4  H   UNL     1      36.339 -19.905 -19.758  0.00  0.00    +0.155 HD
ENDROOT
BRANCH   2  13
ATOM      5  N   UNL     1      34.799 -14.991 -23.455  0.00  0.00    -0.274 NA
ATOM      6  C   UNL     1      34.836 -17.191 -22.384  0.00  0.00    +0.010 C 
ATOM      7  C   UNL     1      34.756 -15.708 -22.381  0.00  0.00    +0.053 C 
ATOM      8  C   UNL     1      34.585 -17.835 -23.603  0.00  0.00    -0.019 C 
ATOM      9  C   UNL     1      34.242 -17.001 -24.800  0.00  0.00    +0.053 C 
ATOM     10  C   UNL     1      35.005 -15.684 -24.732  0.00  0.00    +0.130 C 
ATOM     11  C   UNL     1      35.133 -17.934 -21.239  0.00  0.00    +0.016 C 
ATOM     12  C   UNL     1      34.606 -19.231 -23.663  0.00  0.00    -0.003 C 
ATOM     13  C   UNL     1      35.168 -19.327 -21.313  0.00  0.00    +0.051 C 
ATOM     14  C   UNL     1      34.902 -19.974 -22.520  0.00  0.00    +0.014 C 
BRANCH   7  15
ATOM     15  C   UNL     1      34.607 -14.991 -21.061  0.00  0.00    +0.040 C 
ATOM     16  C   UNL     1      33.573 -13.891 -21.220  0.00  0.00    +0.006 C 
ATOM     17  C   UNL     1      34.213 -15.992 -19.990  0.00  0.00    +0.006 C 
ENDBRANCH   7  15
ENDBRANCH   2  13
BRANCH   3  18
ATOM     18  C   UNL     1      35.249 -21.655 -18.324  0.00  0.00    +0.054 C 
ATOM     19  C   UNL     1      34.970 -22.995 -16.346  0.00  0.00    +0.000 C 
ATOM     20  C   UNL     1      36.337 -22.797 -16.040  0.00  0.00    +0.000 C 
ATOM     21  C   UNL     1      34.435 -22.411 -17.506  0.00  0.00    +0.005 C 
ATOM     22  C   UNL     1      36.580 -21.446 -18.049  0.00  0.00    +0.005 C 
ATOM     23  C   UNL     1      37.130 -22.019 -16.901  0.00  0.00    +0.000 C 
ATOM     24  C   UNL     1      36.873 -23.380 -14.880  0.00  0.00    +0.003 C 
ATOM     25  C   UNL     1      34.180 -23.771 -15.484  0.00  0.00    +0.000 C 
ATOM     26  C   UNL     1      36.072 -24.149 -14.035  0.00  0.00    +0.031 C 
ATOM     27  C   UNL     1      34.728 -24.344 -14.336  0.00  0.00    +0.003 C 
BRANCH  26  30
ATOM     28  N   UNL     1      38.002 -24.644 -12.553  0.00  0.00    -0.343 N 
ATOM     29  N   UNL     1      35.863 -25.408 -11.998  0.00  0.00    -0.285 NA
ATOM     30  C   UNL     1      36.642 -24.747 -12.838  0.00  0.00    +0.117 C 
ATOM     31  H   UNL     1      38.366 -25.057 -11.736  0.00  0.00    +0.144 HD
ATOM     32  H   UNL     1      38.598 -24.159 -13.167  0.00  0.00    +0.144 HD
ATOM     33  H   UNL     1      36.247 -25.814 -11.187  0.00  0.00    +0.188 HD
ENDBRANCH  26  30
ENDBRANCH   3  18
TORSDOF 4
ENDMDL
MODEL 6
REMARK VINA RESULT:     -11.0      3.531     11.657
REMARK  Name = 447735
REMARK  4 active torsions:
REMARK  status: ('A' for Active; 'I' for Inactive)
REMARK    1  A    between atoms: N_2  and  C_13
REMARK    2  A    between atoms: C_3  and  C_18
REMARK    3  A    between atoms: C_7  and  C_15
REMARK    4  A    between atoms: C_26  and  C_30
REMARK                            x       y       z     vdW  Elec       q    Type
REMARK                         _______ _______ _______ _____ _____    ______ ____
ROOT
ATOM      1  O   UNL     1      34.146 -19.276 -23.454  0.00  0.00    -0.270 OA
ATOM      2  N   UNL     1      34.756 -17.280 -22.370  0.00  0.00    -0.280 N 
ATOM      3  C   UNL     1      34.612 -18.669 -22.496  0.00  0.00    +0.249 C 
ATOM      4  H   UNL     1      35.154 -16.963 -21.528  0.00  0.00    +0.155 HD
ENDROOT
BRANCH   2  13
ATOM      5  N   UNL     1      33.446 -11.633 -24.229  0.00  0.00    -0.274 NA
ATOM      6  C   UNL     1      33.787 -14.016 -23.785  0.00  0.00    +0.010 C 
ATOM      7  C   UNL     1      33.460 -12.620 -23.395  0.00  0.00    +0.053 C 
ATOM      8  C   UNL     1      33.719 -14.322 -25.150  0.00  0.00    -0.019 C 
ATOM      9  C   UNL     1      33.312 -13.246 -26.111  0.00  0.00    +0.053 C 
ATOM     10  C   UNL     1      33.838 -11.905 -25.616  0.00  0.00    +0.130 C 
ATOM     11  C   UNL     1      34.136 -14.997 -22.855  0.00  0.00    +0.016 C 
ATOM     12  C   UNL     1      33.976 -15.629 -25.577  0.00  0.00    -0.003 C 
ATOM     13  C   UNL     1      34.407 -16.295 -23.293  0.00  0.00    +0.051 C 
ATOM     14  C   UNL     1      34.324 -16.610 -24.649  0.00  0.00    +0.014 C 
BRANCH   7  15
ATOM     15  C   UNL     1      33.117 -12.329 -21.954  0.00  0.00    +0.040 C 
ATOM     16  C   UNL     1      32.421 -10.982 -21.884  0.00  0.00    +0.006 C 
ATOM     17  C   UNL     1      32.246 -13.449 -21.412  0.00  0.00    +0.006 C 
ENDBRANCH   7  15
ENDBRANCH   2  13
BRANCH   3  18
ATOM     18  C   UNL     1      35.056 -19.465 -21.321  0.00  0.00    +0.054 C 
ATOM     19  C   UNL     1      34.532 -20.996 -19.542  0.00  0.00    +0.000 C 
ATOM     20  C   UNL     1      35.884 -20.952 -19.129  0.00  0.00    +0.000 C 
ATOM     21  C   UNL     1      34.128 -20.238 -20.654  0.00  0.00    +0.005 C 
ATOM     22  C   UNL     1      36.376 -19.404 -20.940  0.00  0.00    +0.005 C 
ATOM     23  C   UNL     1      36.795 -20.151 -19.838  0.00  0.00    +0.000 C 
ATOM     24  C   UNL     1      36.288 -21.709 -18.017  0.00  0.00    +0.003 C 
ATOM     25  C   UNL     1      33.623 -21.796 -18.832  0.00  0.00    +0.000 C 
ATOM     26  C   UNL     1      35.370 -22.499 -17.323  0.00  0.00    +0.031 C 
ATOM     27  C   UNL     1      34.040 -22.542 -17.730  0.00  0.00    +0.003 C 
BRANCH  26  30
ATOM     28  N   UNL     1      37.119 -23.227 -15.718  0.00  0.00    -0.343 N 
ATOM     29  N   UNL     1      34.942 -24.058 -15.545  0.00  0.00    -0.285 NA
ATOM     30  C   UNL     1      35.804 -23.278 -16.174  0.00  0.00    +0.117 C 
ATOM     31  H   UNL     1      37.390 -23.763 -14.938  0.00  0.00    +0.144 HD
ATOM     32  H   UNL     1      37.777 -22.654 -16.175  0.00  0.00    +0.144 HD
ATOM     33  H   UNL     1      35.233 -24.588 -14.767  0.00  0.00    +0.188 HD
ENDBRANCH  26  30
ENDBRANCH   3  18
TORSDOF 4
ENDMDL
MODEL 7
REMARK VINA RESULT:     -10.5      1.861      3.711
REMARK  Name = 447735
REMARK  4 active torsions:
REMARK  status: ('A' for Active; 'I' for Inactive)
REMARK    1  A    between atoms: N_2  and  C_13
REMARK    2  A    between atoms: C_3  and  C_18
REMARK    3  A    between atoms: C_7  and  C_15
REMARK    4  A    between atoms: C_26  and  C_30
REMARK                            x       y       z     vdW  Elec       q    Type
REMARK                         _______ _______ _______ _____ _____    ______ ____
ROOT
ATOM      1  O   UNL     1      35.537 -22.594 -19.694  0.00  0.00    -0.270 OA
ATOM      2  N   UNL     1      36.343 -21.110 -18.059  0.00  0.00    -0.280 N 
ATOM      3  C   UNL     1      35.859 -21.471 -19.323  0.00  0.00    +0.249 C 
ATOM      4  H   UNL     1      36.553 -20.157 -17.933  0.00  0.00    +0.155 HD
ENDROOT
BRANCH   2  13
ATOM      5  N   UNL     1      34.759 -24.861 -13.533  0.00  0.00    -0.274 NA
ATOM      6  C   UNL     1      35.703 -23.288 -15.152  0.00  0.00    +0.010 C 
ATOM      7  C   UNL     1      34.601 -23.864 -14.340  0.00  0.00    +0.053 C 
ATOM      8  C   UNL     1      37.010 -23.598 -14.754  0.00  0.00    -0.019 C 
ATOM      9  C   UNL     1      37.209 -24.465 -13.547  0.00  0.00    +0.053 C 
ATOM     10  C   UNL     1      36.083 -25.489 -13.472  0.00  0.00    +0.130 C 
ATOM     11  C   UNL     1      35.476 -22.462 -16.255  0.00  0.00    +0.016 C 
ATOM     12  C   UNL     1      38.091 -23.054 -15.453  0.00  0.00    -0.003 C 
ATOM     13  C   UNL     1      36.562 -21.936 -16.956  0.00  0.00    +0.051 C 
ATOM     14  C   UNL     1      37.865 -22.228 -16.554  0.00  0.00    +0.014 C 
BRANCH   7  15
ATOM     15  C   UNL     1      33.223 -23.259 -14.450  0.00  0.00    +0.040 C 
ATOM     16  C   UNL     1      32.624 -23.655 -15.788  0.00  0.00    +0.006 C 
ATOM     17  C   UNL     1      32.374 -23.733 -13.284  0.00  0.00    +0.006 C 
ENDBRANCH   7  15
ENDBRANCH   2  13
BRANCH   3  18
ATOM     18  C   UNL     1      35.759 -20.362 -20.308  0.00  0.00    +0.054 C 
ATOM     19  C   UNL     1      34.693 -19.394 -22.234  0.00  0.00    +0.000 C 
ATOM     20  C   UNL     1      35.573 -18.290 -22.145  0.00  0.00    +0.000 C 
ATOM     21  C   UNL     1      34.799 -20.434 -21.296  0.00  0.00    +0.005 C 
ATOM     22  C   UNL     1      36.628 -19.301 -20.200  0.00  0.00    +0.005 C 
ATOM     23  C   UNL     1      36.536 -18.257 -21.122  0.00  0.00    +0.000 C 
ATOM     24  C   UNL     1      35.467 -17.250 -23.083  0.00  0.00    +0.003 C 
ATOM     25  C   UNL     1      33.732 -19.425 -23.257  0.00  0.00    +0.000 C 
ATOM     26  C   UNL     1      34.506 -17.297 -24.093  0.00  0.00    +0.031 C 
ATOM     27  C   UNL     1      33.640 -18.383 -24.180  0.00  0.00    +0.003 C 
BRANCH  26  30
ATOM     28  N   UNL     1      33.172 -15.733 -25.485  0.00  0.00    -0.343 N 
ATOM     29  N   UNL     1      35.507 -15.664 -25.544  0.00  0.00    -0.285 NA
ATOM     30  C   UNL     1      34.408 -16.212 -25.056  0.00  0.00    +0.117 C 
ATOM     31  H   UNL     1      33.129 -14.997 -26.138  0.00  0.00    +0.144 HD
ATOM     32  H   UNL     1      32.341 -16.130 -25.136  0.00  0.00    +0.144 HD
ATOM     33  H   UNL     1      35.443 -14.929 -26.197  0.00  0.00    +0.188 HD
ENDBRANCH  26  30
ENDBRANCH   3  18
TORSDOF 4
ENDMDL
MODEL 8
REMARK VINA RESULT:     -10.5      2.750     11.013
REMARK  Name = 447735
REMARK  4 active torsions:
REMARK  status: ('A' for Active; 'I' for Inactive)
REMARK    1  A    between atoms: N_2  and  C_13
REMARK    2  A    between atoms: C_3  and  C_18
REMARK    3  A    between atoms: C_7  and  C_15
REMARK    4  A    between atoms: C_26  and  C_30
REMARK                            x       y       z     vdW  Elec       q    Type
REMARK                         _______ _______ _______ _____ _____    ______ ____
ROOT
ATOM      1  O   UNL     1      33.195 -20.201 -21.354  0.00  0.00    -0.270 OA
ATOM      2  N   UNL     1      35.019 -18.747 -21.653  0.00  0.00    -0.280 N 
ATOM      3  C   UNL     1      34.318 -19.806 -21.061  0.00  0.00    +0.249 C 
ATOM      4  H   UNL     1      35.916 -18.568 -21.290  0.00  0.00    +0.155 HD
ENDROOT
BRANCH   2  13
ATOM      5  N   UNL     1      33.414 -13.483 -24.255  0.00  0.00    -0.274 NA
ATOM      6  C   UNL     1      33.870 -15.761 -23.486  0.00  0.00    +0.010 C 
ATOM      7  C   UNL     1      33.493 -14.338 -23.290  0.00  0.00    +0.053 C 
ATOM      8  C   UNL     1      33.778 -16.264 -24.791  0.00  0.00    -0.019 C 
ATOM      9  C   UNL     1      33.298 -15.354 -25.882  0.00  0.00    +0.053 C 
ATOM     10  C   UNL     1      33.779 -13.936 -25.602  0.00  0.00    +0.130 C 
ATOM     11  C   UNL     1      34.287 -16.584 -22.438  0.00  0.00    +0.016 C 
ATOM     12  C   UNL     1      34.080 -17.607 -25.036  0.00  0.00    -0.003 C 
ATOM     13  C   UNL     1      34.602 -17.919 -22.695  0.00  0.00    +0.051 C 
ATOM     14  C   UNL     1      34.496 -18.429 -23.989  0.00  0.00    +0.014 C 
BRANCH   7  15
ATOM     15  C   UNL     1      33.178 -13.856 -21.894  0.00  0.00    +0.040 C 
ATOM     16  C   UNL     1      34.476 -13.739 -21.116  0.00  0.00    +0.006 C 
ATOM     17  C   UNL     1      32.443 -12.530 -21.978  0.00  0.00    +0.006 C 
ENDBRANCH   7  15
ENDBRANCH   2  13
BRANCH   3  18
ATOM     18  C   UNL     1      35.022 -20.490 -19.943  0.00  0.00    +0.054 C 
ATOM     19  C   UNL     1      34.937 -21.917 -18.010  0.00  0.00    +0.000 C 
ATOM     20  C   UNL     1      36.336 -21.767 -17.859  0.00  0.00    +0.000 C 
ATOM     21  C   UNL     1      34.287 -21.265 -19.070  0.00  0.00    +0.005 C 
ATOM     22  C   UNL     1      36.382 -20.327 -19.819  0.00  0.00    +0.005 C 
ATOM     23  C   UNL     1      37.045 -20.968 -18.772  0.00  0.00    +0.000 C 
ATOM     24  C   UNL     1      36.986 -22.419 -16.798  0.00  0.00    +0.003 C 
ATOM     25  C   UNL     1      34.230 -22.716 -17.097  0.00  0.00    +0.000 C 
ATOM     26  C   UNL     1      36.267 -23.209 -15.900  0.00  0.00    +0.031 C 
ATOM     27  C   UNL     1      34.891 -23.357 -16.049  0.00  0.00    +0.003 C 
BRANCH  26  30
ATOM     28  N   UNL     1      37.196 -25.250 -14.835  0.00  0.00    -0.343 N 
ATOM     29  N   UNL     1      37.360 -23.182 -13.760  0.00  0.00    -0.285 NA
ATOM     30  C   UNL     1      36.955 -23.878 -14.808  0.00  0.00    +0.117 C 
ATOM     31  H   UNL     1      37.664 -25.683 -14.084  0.00  0.00    +0.144 HD
ATOM     32  H   UNL     1      36.900 -25.787 -15.605  0.00  0.00    +0.144 HD
ATOM     33  H   UNL     1      37.826 -23.633 -13.018  0.00  0.00    +0.188 HD
ENDBRANCH  26  30
ENDBRANCH   3  18
TORSDOF 4
ENDMDL
MODEL 9
REMARK VINA RESULT:     -10.2      8.651     15.262
REMARK  Name = 447735
REMARK  4 active torsions:
REMARK  status: ('A' for Active; 'I' for Inactive)
REMARK    1  A    between atoms: N_2  and  C_13
REMARK    2  A    between atoms: C_3  and  C_18
REMARK    3  A    between atoms: C_7  and  C_15
REMARK    4  A    between atoms: C_26  and  C_30
REMARK                            x       y       z     vdW  Elec       q    Type
REMARK                         _______ _______ _______ _____ _____    ______ ____
ROOT
ATOM      1  O   UNL     1      33.575 -10.801 -24.389  0.00  0.00    -0.270 OA
ATOM      2  N   UNL     1      32.923 -10.592 -22.139  0.00  0.00    -0.280 N 
ATOM      3  C   UNL     1      33.413 -11.266 -23.266  0.00  0.00    +0.249 C 
ATOM      4  H   UNL     1      32.859 -11.123 -21.313  0.00  0.00    +0.155 HD
ENDROOT
BRANCH   2  13
ATOM      5  N   UNL     1      32.272  -4.842 -24.032  0.00  0.00    -0.274 NA
ATOM      6  C   UNL     1      32.491  -7.015 -22.928  0.00  0.00    +0.010 C 
ATOM      7  C   UNL     1      32.877  -5.979 -23.919  0.00  0.00    +0.053 C 
ATOM      8  C   UNL     1      31.693  -6.597 -21.855  0.00  0.00    -0.019 C 
ATOM      9  C   UNL     1      31.300  -5.152 -21.769  0.00  0.00    +0.053 C 
ATOM     10  C   UNL     1      31.106  -4.600 -23.176  0.00  0.00    +0.130 C 
ATOM     11  C   UNL     1      32.900  -8.347 -23.029  0.00  0.00    +0.016 C 
ATOM     12  C   UNL     1      31.329  -7.516 -20.866  0.00  0.00    -0.003 C 
ATOM     13  C   UNL     1      32.518  -9.260 -22.045  0.00  0.00    +0.051 C 
ATOM     14  C   UNL     1      31.738  -8.845 -20.966  0.00  0.00    +0.014 C 
BRANCH   7  15
ATOM     15  C   UNL     1      34.038  -6.254 -24.843  0.00  0.00    +0.040 C 
ATOM     16  C   UNL     1      34.079  -5.170 -25.906  0.00  0.00    +0.006 C 
ATOM     17  C   UNL     1      35.320  -6.305 -24.032  0.00  0.00    +0.006 C 
ENDBRANCH   7  15
ENDBRANCH   2  13
BRANCH   3  18
ATOM     18  C   UNL     1      33.738 -12.702 -23.058  0.00  0.00    +0.054 C 
ATOM     19  C   UNL     1      33.906 -14.934 -23.936  0.00  0.00    +0.000 C 
ATOM     20  C   UNL     1      34.347 -15.382 -22.669  0.00  0.00    +0.000 C 
ATOM     21  C   UNL     1      33.603 -13.574 -24.117  0.00  0.00    +0.005 C 
ATOM     22  C   UNL     1      34.164 -13.111 -21.815  0.00  0.00    +0.005 C 
ATOM     23  C   UNL     1      34.471 -14.458 -21.617  0.00  0.00    +0.000 C 
ATOM     24  C   UNL     1      34.651 -16.741 -22.488  0.00  0.00    +0.003 C 
ATOM     25  C   UNL     1      33.783 -15.859 -24.986  0.00  0.00    +0.000 C 
ATOM     26  C   UNL     1      34.522 -17.646 -23.542  0.00  0.00    +0.031 C 
ATOM     27  C   UNL     1      34.089 -17.205 -24.789  0.00  0.00    +0.003 C 
BRANCH  26  30
ATOM     28  N   UNL     1      34.763 -19.969 -24.383  0.00  0.00    -0.343 N 
ATOM     29  N   UNL     1      35.210 -19.474 -22.143  0.00  0.00    -0.285 NA
ATOM     30  C   UNL     1      34.841 -19.050 -23.339  0.00  0.00    +0.117 C 
ATOM     31  H   UNL     1      34.984 -20.916 -24.222  0.00  0.00    +0.144 HD
ATOM     32  H   UNL     1      34.487 -19.674 -25.280  0.00  0.00    +0.144 HD
ATOM     33  H   UNL     1      35.426 -20.425 -22.003  0.00  0.00    +0.188 HD
ENDBRANCH  26  30
ENDBRANCH   3  18
TORSDOF 4
ENDMDL
