MODEL 1
REMARK VINA RESULT:     -11.5      0.000      0.000
REMARK  Name = 77993
REMARK  6 active torsions:
REMARK  status: ('A' for Active; 'I' for Inactive)
REMARK    1  A    between atoms: C_2  and  C_11
REMARK    2  A    between atoms: C_7  and  C_19
REMARK    3  A    between atoms: C_11  and  C_13
REMARK    4  A    between atoms: C_19  and  C_20
REMARK    5  A    between atoms: C_20  and  S_21
REMARK    6  A    between atoms: S_21  and  C_24
REMARK                            x       y       z     vdW  Elec       q    Type
REMARK                         _______ _______ _______ _____ _____    ______ ____
ROOT
ATOM      1  N   UNL     1      33.430 -23.541 -15.856  0.00  0.00    -0.312 N 
ATOM      2  C   UNL     1      35.565 -23.132 -15.514  0.00  0.00    -0.008 C 
ATOM      3  C   UNL     1      35.234 -22.609 -16.782  0.00  0.00    +0.010 C 
ATOM      4  C   UNL     1      34.455 -23.697 -14.961  0.00  0.00    +0.058 C 
ATOM      5  C   UNL     1      33.877 -22.879 -16.978  0.00  0.00    +0.048 C 
ATOM      6  C   UNL     1      35.943 -21.931 -17.794  0.00  0.00    -0.003 C 
ATOM      7  C   UNL     1      35.271 -21.550 -18.960  0.00  0.00    -0.020 C 
ATOM      8  C   UNL     1      33.193 -22.504 -18.138  0.00  0.00    +0.014 C 
ATOM      9  C   UNL     1      33.917 -21.833 -19.128  0.00  0.00    -0.003 C 
ATOM     10  H   UNL     1      32.508 -23.854 -15.718  0.00  0.00    +0.152 HD
ENDROOT
BRANCH   2  11
ATOM     11  C   UNL     1      36.916 -23.079 -14.870  0.00  0.00    +0.007 C 
BRANCH  11  13
ATOM     12  N   UNL     1      37.481 -23.828 -12.551  0.00  0.00    +0.387 N 
ATOM     13  C   UNL     1      37.153 -24.247 -13.921  0.00  0.00    -0.054 C 
ATOM     14  C   UNL     1      38.382 -25.066 -14.324  0.00  0.00    -0.023 C 
ATOM     15  C   UNL     1      38.979 -25.568 -13.014  0.00  0.00    -0.025 C 
ATOM     16  C   UNL     1      38.074 -25.014 -11.925  0.00  0.00    -0.077 C 
ATOM     17  C   UNL     1      36.325 -23.352 -11.801  0.00  0.00    -0.101 C 
ATOM     18  H   UNL     1      38.117 -23.031 -12.559  0.00  0.00    -0.080 HD
ENDBRANCH  11  13
ENDBRANCH   2  11
BRANCH   7  19
ATOM     19  C   UNL     1      36.016 -20.832 -20.037  0.00  0.00    +0.052 C 
BRANCH  19  20
ATOM     20  C   UNL     1      35.128 -19.981 -20.949  0.00  0.00    +0.161 C 
BRANCH  20  21
ATOM     21  S   UNL     1      35.860 -18.423 -21.343  0.00  0.00    +0.009 S 
ATOM     22  O   UNL     1      37.245 -18.640 -21.723  0.00  0.00    -0.169 OA
ATOM     23  O   UNL     1      35.530 -17.495 -20.274  0.00  0.00    -0.169 OA
BRANCH  21  24
ATOM     24  C   UNL     1      35.001 -17.904 -22.797  0.00  0.00    +0.106 C 
ATOM     25  C   UNL     1      34.298 -18.839 -23.539  0.00  0.00    +0.018 C 
ATOM     26  C   UNL     1      35.046 -16.570 -23.169  0.00  0.00    +0.018 C 
ATOM     27  C   UNL     1      33.620 -18.428 -24.686  0.00  0.00    +0.001 C 
ATOM     28  C   UNL     1      34.367 -16.160 -24.317  0.00  0.00    +0.001 C 
ATOM     29  C   UNL     1      33.655 -17.089 -25.075  0.00  0.00    +0.000 C 
ENDBRANCH  21  24
ENDBRANCH  20  21
ENDBRANCH  19  20
ENDBRANCH   7  19
TORSDOF 6
ENDMDL
MODEL 2
REMARK VINA RESULT:     -10.5      2.112      4.122
REMARK  Name = 77993
REMARK  6 active torsions:
REMARK  status: ('A' for Active; 'I' for Inactive)
REMARK    1  A    between atoms: C_2  and  C_11
REMARK    2  A    between atoms: C_7  and  C_19
REMARK    3  A    between atoms: C_11  and  C_13
REMARK    4  A    between atoms: C_19  and  C_20
REMARK    5  A    between atoms: C_20  and  S_21
REMARK    6  A    between atoms: S_21  and  C_24
REMARK                            x       y       z     vdW  Elec       q    Type
REMARK                         _______ _______ _______ _____ _____    ______ ____
ROOT
ATOM      1  N   UNL     1      35.802 -22.877 -15.183  0.00  0.00    -0.312 N 
ATOM      2  C   UNL     1      33.887 -23.344 -16.160  0.00  0.00    -0.008 C 
ATOM      3  C   UNL     1      34.680 -22.651 -17.100  0.00  0.00    +0.010 C 
ATOM      4  C   UNL     1      34.584 -23.474 -14.996  0.00  0.00    +0.058 C 
ATOM      5  C   UNL     1      35.889 -22.366 -16.459  0.00  0.00    +0.048 C 
ATOM      6  C   UNL     1      34.505 -22.232 -18.433  0.00  0.00    -0.003 C 
ATOM      7  C   UNL     1      35.541 -21.545 -19.075  0.00  0.00    -0.020 C 
ATOM      8  C   UNL     1      36.933 -21.680 -17.088  0.00  0.00    +0.014 C 
ATOM      9  C   UNL     1      36.736 -21.273 -18.411  0.00  0.00    -0.003 C 
ATOM     10  H   UNL     1      36.513 -22.822 -14.505  0.00  0.00    +0.152 HD
ENDROOT
BRANCH   2  11
ATOM     11  C   UNL     1      32.500 -23.858 -16.395  0.00  0.00    +0.007 C 
BRANCH  11  13
ATOM     12  N   UNL     1      30.850 -24.410 -14.598  0.00  0.00    +0.387 N 
ATOM     13  C   UNL     1      31.506 -23.341 -15.363  0.00  0.00    -0.054 C 
ATOM     14  C   UNL     1      30.323 -22.627 -16.022  0.00  0.00    -0.023 C 
ATOM     15  C   UNL     1      29.127 -22.912 -15.120  0.00  0.00    -0.025 C 
ATOM     16  C   UNL     1      29.674 -23.777 -13.995  0.00  0.00    -0.077 C 
ATOM     17  C   UNL     1      31.713 -25.006 -13.584  0.00  0.00    -0.101 C 
ATOM     18  H   UNL     1      30.605 -25.192 -15.206  0.00  0.00    -0.080 HD
ENDBRANCH  11  13
ENDBRANCH   2  11
BRANCH   7  19
ATOM     19  C   UNL     1      35.361 -21.096 -20.488  0.00  0.00    +0.052 C 
BRANCH  19  20
ATOM     20  C   UNL     1      34.584 -19.784 -20.631  0.00  0.00    +0.161 C 
BRANCH  20  21
ATOM     21  S   UNL     1      35.607 -18.446 -21.160  0.00  0.00    +0.009 S 
ATOM     22  O   UNL     1      36.933 -18.961 -21.454  0.00  0.00    -0.169 OA
ATOM     23  O   UNL     1      35.438 -17.357 -20.213  0.00  0.00    -0.169 OA
BRANCH  21  24
ATOM     24  C   UNL     1      34.894 -17.945 -22.697  0.00  0.00    +0.106 C 
ATOM     25  C   UNL     1      34.990 -16.620 -23.088  0.00  0.00    +0.018 C 
ATOM     26  C   UNL     1      34.252 -18.887 -23.484  0.00  0.00    +0.018 C 
ATOM     27  C   UNL     1      34.428 -16.225 -24.301  0.00  0.00    +0.001 C 
ATOM     28  C   UNL     1      33.690 -18.491 -24.698  0.00  0.00    +0.001 C 
ATOM     29  C   UNL     1      33.778 -17.161 -25.106  0.00  0.00    +0.000 C 
ENDBRANCH  21  24
ENDBRANCH  20  21
ENDBRANCH  19  20
ENDBRANCH   7  19
TORSDOF 6
ENDMDL
MODEL 3
REMARK VINA RESULT:     -10.5      3.813      9.989
REMARK  Name = 77993
REMARK  6 active torsions:
REMARK  status: ('A' for Active; 'I' for Inactive)
REMARK    1  A    between atoms: C_2  and  C_11
REMARK    2  A    between atoms: C_7  and  C_19
REMARK    3  A    between atoms: C_11  and  C_13
REMARK    4  A    between atoms: C_19  and  C_20
REMARK    5  A    between atoms: C_20  and  S_21
REMARK    6  A    between atoms: S_21  and  C_24
REMARK                            x       y       z     vdW  Elec       q    Type
REMARK                         _______ _______ _______ _____ _____    ______ ____
ROOT
ATOM      1  N   UNL     1      32.662 -21.491 -19.546  0.00  0.00    -0.312 N 
ATOM      2  C   UNL     1      34.471 -20.502 -20.314  0.00  0.00    -0.008 C 
ATOM      3  C   UNL     1      34.845 -21.229 -19.164  0.00  0.00    +0.010 C 
ATOM      4  C   UNL     1      33.137 -20.671 -20.535  0.00  0.00    +0.058 C 
ATOM      5  C   UNL     1      33.683 -21.847 -18.694  0.00  0.00    +0.048 C 
ATOM      6  C   UNL     1      36.051 -21.431 -18.464  0.00  0.00    -0.003 C 
ATOM      7  C   UNL     1      36.050 -22.242 -17.324  0.00  0.00    -0.020 C 
ATOM      8  C   UNL     1      33.668 -22.660 -17.557  0.00  0.00    +0.014 C 
ATOM      9  C   UNL     1      34.876 -22.846 -16.878  0.00  0.00    -0.003 C 
ATOM     10  H   UNL     1      31.726 -21.784 -19.457  0.00  0.00    +0.152 HD
ENDROOT
BRANCH   2  11
ATOM     11  C   UNL     1      35.386 -19.674 -21.163  0.00  0.00    +0.007 C 
BRANCH  11  13
ATOM     12  N   UNL     1      34.938 -18.395 -23.266  0.00  0.00    +0.387 N 
ATOM     13  C   UNL     1      34.666 -18.507 -21.826  0.00  0.00    -0.054 C 
ATOM     14  C   UNL     1      35.154 -17.159 -21.288  0.00  0.00    -0.023 C 
ATOM     15  C   UNL     1      35.061 -16.197 -22.467  0.00  0.00    -0.025 C 
ATOM     16  C   UNL     1      34.534 -17.033 -23.622  0.00  0.00    -0.077 C 
ATOM     17  C   UNL     1      34.230 -19.388 -24.065  0.00  0.00    -0.101 C 
ATOM     18  H   UNL     1      35.923 -18.575 -23.462  0.00  0.00    -0.080 HD
ENDBRANCH  11  13
ENDBRANCH   2  11
BRANCH   7  19
ATOM     19  C   UNL     1      37.325 -22.460 -16.576  0.00  0.00    +0.052 C 
BRANCH  19  20
ATOM     20  C   UNL     1      37.150 -22.544 -15.057  0.00  0.00    +0.161 C 
BRANCH  20  21
ATOM     21  S   UNL     1      37.451 -24.167 -14.431  0.00  0.00    +0.009 S 
ATOM     22  O   UNL     1      38.886 -24.382 -14.361  0.00  0.00    -0.169 OA
ATOM     23  O   UNL     1      36.607 -25.092 -15.168  0.00  0.00    -0.169 OA
BRANCH  21  24
ATOM     24  C   UNL     1      36.857 -24.099 -12.767  0.00  0.00    +0.106 C 
ATOM     25  C   UNL     1      37.285 -23.077 -11.937  0.00  0.00    +0.018 C 
ATOM     26  C   UNL     1      35.975 -25.070 -12.324  0.00  0.00    +0.018 C 
ATOM     27  C   UNL     1      36.815 -23.023 -10.625  0.00  0.00    +0.001 C 
ATOM     28  C   UNL     1      35.506 -25.016 -11.011  0.00  0.00    +0.001 C 
ATOM     29  C   UNL     1      35.926 -23.993 -10.162  0.00  0.00    +0.000 C 
ENDBRANCH  21  24
ENDBRANCH  20  21
ENDBRANCH  19  20
ENDBRANCH   7  19
TORSDOF 6
ENDMDL
MODEL 4
REMARK VINA RESULT:     -10.2      4.832      8.342
REMARK  Name = 77993
REMARK  6 active torsions:
REMARK  status: ('A' for Active; 'I' for Inactive)
REMARK    1  A    between atoms: C_2  and  C_11
REMARK    2  A    between atoms: C_7  and  C_19
REMARK    3  A    between atoms: C_11  and  C_13
REMARK    4  A    between atoms: C_19  and  C_20
REMARK    5  A    between atoms: C_20  and  S_21
REMARK    6  A    between atoms: S_21  and  C_24
REMARK                            x       y       z     vdW  Elec       q    Type
REMARK                         _______ _______ _______ _____ _____    ______ ____
ROOT
ATOM      1  N   UNL     1      34.207 -18.828 -24.477  0.00  0.00    -0.312 N 
ATOM      2  C   UNL     1      34.855 -18.481 -22.403  0.00  0.00    -0.008 C 
ATOM      3  C   UNL     1      34.575 -17.221 -22.972  0.00  0.00    +0.010 C 
ATOM      4  C   UNL     1      34.626 -19.452 -23.332  0.00  0.00    +0.058 C 
ATOM      5  C   UNL     1      34.166 -17.464 -24.286  0.00  0.00    +0.048 C 
ATOM      6  C   UNL     1      34.624 -15.889 -22.514  0.00  0.00    -0.003 C 
ATOM      7  C   UNL     1      34.264 -14.855 -23.383  0.00  0.00    -0.020 C 
ATOM      8  C   UNL     1      33.803 -16.440 -25.166  0.00  0.00    +0.014 C 
ATOM      9  C   UNL     1      33.860 -15.127 -24.689  0.00  0.00    -0.003 C 
ATOM     10  H   UNL     1      33.969 -19.286 -25.314  0.00  0.00    +0.152 HD
ENDROOT
BRANCH   2  11
ATOM     11  C   UNL     1      35.328 -18.724 -21.002  0.00  0.00    +0.007 C 
BRANCH  11  13
ATOM     12  N   UNL     1      34.218 -20.515 -19.653  0.00  0.00    +0.387 N 
ATOM     13  C   UNL     1      35.279 -20.198 -20.620  0.00  0.00    -0.054 C 
ATOM     14  C   UNL     1      36.546 -20.636 -19.882  0.00  0.00    -0.023 C 
ATOM     15  C   UNL     1      36.089 -21.701 -18.892  0.00  0.00    -0.025 C 
ATOM     16  C   UNL     1      34.588 -21.822 -19.102  0.00  0.00    -0.077 C 
ATOM     17  C   UNL     1      32.887 -20.544 -20.247  0.00  0.00    -0.101 C 
ATOM     18  H   UNL     1      34.155 -19.792 -18.937  0.00  0.00    -0.080 HD
ENDBRANCH  11  13
ENDBRANCH   2  11
BRANCH   7  19
ATOM     19  C   UNL     1      34.314 -13.441 -22.904  0.00  0.00    +0.052 C 
BRANCH  19  20
ATOM     20  C   UNL     1      33.946 -13.268 -21.428  0.00  0.00    +0.161 C 
BRANCH  20  21
ATOM     21  S   UNL     1      32.211 -13.056 -21.184  0.00  0.00    +0.009 S 
ATOM     22  O   UNL     1      31.810 -13.807 -20.007  0.00  0.00    -0.169 OA
ATOM     23  O   UNL     1      31.552 -13.285 -22.458  0.00  0.00    -0.169 OA
BRANCH  21  24
ATOM     24  C   UNL     1      32.042 -11.343 -20.785  0.00  0.00    +0.106 C 
ATOM     25  C   UNL     1      31.859 -10.970 -19.465  0.00  0.00    +0.018 C 
ATOM     26  C   UNL     1      32.098 -10.404 -21.802  0.00  0.00    +0.018 C 
ATOM     27  C   UNL     1      31.726  -9.617 -19.151  0.00  0.00    +0.001 C 
ATOM     28  C   UNL     1      31.965  -9.051 -21.487  0.00  0.00    +0.001 C 
ATOM     29  C   UNL     1      31.779  -8.658 -20.163  0.00  0.00    +0.000 C 
ENDBRANCH  21  24
ENDBRANCH  20  21
ENDBRANCH  19  20
ENDBRANCH   7  19
TORSDOF 6
ENDMDL
MODEL 5
REMARK VINA RESULT:     -10.2      4.352     10.302
REMARK  Name = 77993
REMARK  6 active torsions:
REMARK  status: ('A' for Active; 'I' for Inactive)
REMARK    1  A    between atoms: C_2  and  C_11
REMARK    2  A    between atoms: C_7  and  C_19
REMARK    3  A    between atoms: C_11  and  C_13
REMARK    4  A    between atoms: C_19  and  C_20
REMARK    5  A    between atoms: C_20  and  S_21
REMARK    6  A    between atoms: S_21  and  C_24
REMARK                            x       y       z     vdW  Elec       q    Type
REMARK                         _______ _______ _______ _____ _____    ______ ____
ROOT
ATOM      1  N   UNL     1      34.334 -16.951 -24.833  0.00  0.00    -0.312 N 
ATOM      2  C   UNL     1      34.508 -15.742 -23.003  0.00  0.00    -0.008 C 
ATOM      3  C   UNL     1      34.666 -17.094 -22.631  0.00  0.00    +0.010 C 
ATOM      4  C   UNL     1      34.307 -15.670 -24.349  0.00  0.00    +0.058 C 
ATOM      5  C   UNL     1      34.553 -17.841 -23.806  0.00  0.00    +0.048 C 
ATOM      6  C   UNL     1      34.895 -17.770 -21.416  0.00  0.00    -0.003 C 
ATOM      7  C   UNL     1      35.001 -19.165 -21.422  0.00  0.00    -0.020 C 
ATOM      8  C   UNL     1      34.657 -19.236 -23.826  0.00  0.00    +0.014 C 
ATOM      9  C   UNL     1      34.883 -19.885 -22.609  0.00  0.00    -0.003 C 
ATOM     10  H   UNL     1      34.217 -17.199 -25.778  0.00  0.00    +0.152 HD
ENDROOT
BRANCH   2  11
ATOM     11  C   UNL     1      34.553 -14.567 -22.076  0.00  0.00    +0.007 C 
BRANCH  11  13
ATOM     12  N   UNL     1      33.382 -12.369 -22.322  0.00  0.00    +0.387 N 
ATOM     13  C   UNL     1      33.235 -13.804 -22.039  0.00  0.00    -0.054 C 
ATOM     14  C   UNL     1      32.615 -13.807 -20.640  0.00  0.00    -0.023 C 
ATOM     15  C   UNL     1      31.898 -12.468 -20.513  0.00  0.00    -0.025 C 
ATOM     16  C   UNL     1      32.142 -11.759 -21.836  0.00  0.00    -0.077 C 
ATOM     17  C   UNL     1      33.602 -12.080 -23.734  0.00  0.00    -0.101 C 
ATOM     18  H   UNL     1      34.211 -11.994 -21.860  0.00  0.00    -0.080 HD
ENDBRANCH  11  13
ENDBRANCH   2  11
BRANCH   7  19
ATOM     19  C   UNL     1      35.242 -19.889 -20.138  0.00  0.00    +0.052 C 
BRANCH  19  20
ATOM     20  C   UNL     1      35.251 -21.414 -20.274  0.00  0.00    +0.161 C 
BRANCH  20  21
ATOM     21  S   UNL     1      34.192 -22.204 -19.104  0.00  0.00    +0.009 S 
ATOM     22  O   UNL     1      33.955 -23.571 -19.536  0.00  0.00    -0.169 OA
ATOM     23  O   UNL     1      33.074 -21.313 -18.845  0.00  0.00    -0.169 OA
BRANCH  21  24
ATOM     24  C   UNL     1      35.169 -22.290 -17.633  0.00  0.00    +0.106 C 
ATOM     25  C   UNL     1      34.629 -22.861 -16.494  0.00  0.00    +0.018 C 
ATOM     26  C   UNL     1      36.459 -21.785 -17.649  0.00  0.00    +0.018 C 
ATOM     27  C   UNL     1      35.401 -22.928 -15.334  0.00  0.00    +0.001 C 
ATOM     28  C   UNL     1      37.230 -21.853 -16.488  0.00  0.00    +0.001 C 
ATOM     29  C   UNL     1      36.702 -22.424 -15.332  0.00  0.00    +0.000 C 
ENDBRANCH  21  24
ENDBRANCH  20  21
ENDBRANCH  19  20
ENDBRANCH   7  19
TORSDOF 6
ENDMDL
MODEL 6
REMARK VINA RESULT:     -10.2      7.216     12.833
REMARK  Name = 77993
REMARK  6 active torsions:
REMARK  status: ('A' for Active; 'I' for Inactive)
REMARK    1  A    between atoms: C_2  and  C_11
REMARK    2  A    between atoms: C_7  and  C_19
REMARK    3  A    between atoms: C_11  and  C_13
REMARK    4  A    between atoms: C_19  and  C_20
REMARK    5  A    between atoms: C_20  and  S_21
REMARK    6  A    between atoms: S_21  and  C_24
REMARK                            x       y       z     vdW  Elec       q    Type
REMARK                         _______ _______ _______ _____ _____    ______ ____
ROOT
ATOM      1  N   UNL     1      31.647 -10.817 -19.371  0.00  0.00    -0.312 N 
ATOM      2  C   UNL     1      31.657  -9.729 -21.283  0.00  0.00    -0.008 C 
ATOM      3  C   UNL     1      32.039 -11.060 -21.554  0.00  0.00    +0.010 C 
ATOM      4  C   UNL     1      31.421  -9.596 -19.947  0.00  0.00    +0.058 C 
ATOM      5  C   UNL     1      32.026 -11.731 -20.329  0.00  0.00    +0.048 C 
ATOM      6  C   UNL     1      32.398 -11.775 -22.714  0.00  0.00    -0.003 C 
ATOM      7  C   UNL     1      32.729 -13.129 -22.606  0.00  0.00    -0.020 C 
ATOM      8  C   UNL     1      32.355 -13.084 -20.206  0.00  0.00    +0.014 C 
ATOM      9  C   UNL     1      32.708 -13.773 -21.370  0.00  0.00    -0.003 C 
ATOM     10  H   UNL     1      31.552 -11.014 -18.411  0.00  0.00    +0.152 HD
ENDROOT
BRANCH   2  11
ATOM     11  C   UNL     1      31.528  -8.631 -22.293  0.00  0.00    +0.007 C 
BRANCH  11  13
ATOM     12  N   UNL     1      32.623  -6.599 -23.257  0.00  0.00    +0.387 N 
ATOM     13  C   UNL     1      32.773  -7.757 -22.365  0.00  0.00    -0.054 C 
ATOM     14  C   UNL     1      33.957  -8.504 -22.983  0.00  0.00    -0.023 C 
ATOM     15  C   UNL     1      34.753  -7.445 -23.737  0.00  0.00    -0.025 C 
ATOM     16  C   UNL     1      33.992  -6.147 -23.523  0.00  0.00    -0.077 C 
ATOM     17  C   UNL     1      31.811  -5.532 -22.684  0.00  0.00    -0.101 C 
ATOM     18  H   UNL     1      32.125  -6.860 -24.107  0.00  0.00    -0.080 HD
ENDBRANCH  11  13
ENDBRANCH   2  11
BRANCH   7  19
ATOM     19  C   UNL     1      33.111 -13.893 -23.831  0.00  0.00    +0.052 C 
BRANCH  19  20
ATOM     20  C   UNL     1      34.346 -14.781 -23.653  0.00  0.00    +0.161 C 
BRANCH  20  21
ATOM     21  S   UNL     1      34.172 -16.349 -24.446  0.00  0.00    +0.009 S 
ATOM     22  O   UNL     1      35.153 -16.444 -25.512  0.00  0.00    -0.169 OA
ATOM     23  O   UNL     1      32.761 -16.549 -24.729  0.00  0.00    -0.169 OA
BRANCH  21  24
ATOM     24  C   UNL     1      34.646 -17.512 -23.202  0.00  0.00    +0.106 C 
ATOM     25  C   UNL     1      34.450 -18.863 -23.429  0.00  0.00    +0.018 C 
ATOM     26  C   UNL     1      35.205 -17.049 -22.022  0.00  0.00    +0.018 C 
ATOM     27  C   UNL     1      34.825 -19.780 -22.447  0.00  0.00    +0.001 C 
ATOM     28  C   UNL     1      35.580 -17.967 -21.041  0.00  0.00    +0.001 C 
ATOM     29  C   UNL     1      35.390 -19.332 -21.253  0.00  0.00    +0.000 C 
ENDBRANCH  21  24
ENDBRANCH  20  21
ENDBRANCH  19  20
ENDBRANCH   7  19
TORSDOF 6
ENDMDL
MODEL 7
REMARK VINA RESULT:     -10.1      5.457     11.478
REMARK  Name = 77993
REMARK  6 active torsions:
REMARK  status: ('A' for Active; 'I' for Inactive)
REMARK    1  A    between atoms: C_2  and  C_11
REMARK    2  A    between atoms: C_7  and  C_19
REMARK    3  A    between atoms: C_11  and  C_13
REMARK    4  A    between atoms: C_19  and  C_20
REMARK    5  A    between atoms: C_20  and  S_21
REMARK    6  A    between atoms: S_21  and  C_24
REMARK                            x       y       z     vdW  Elec       q    Type
REMARK                         _______ _______ _______ _____ _____    ______ ____
ROOT
ATOM      1  N   UNL     1      33.115 -13.909 -26.104  0.00  0.00    -0.312 N 
ATOM      2  C   UNL     1      33.604 -12.613 -24.394  0.00  0.00    -0.008 C 
ATOM      3  C   UNL     1      33.957 -13.932 -24.037  0.00  0.00    +0.010 C 
ATOM      4  C   UNL     1      33.092 -12.614 -25.657  0.00  0.00    +0.058 C 
ATOM      5  C   UNL     1      33.639 -14.735 -25.135  0.00  0.00    +0.048 C 
ATOM      6  C   UNL     1      34.516 -14.537 -22.894  0.00  0.00    -0.003 C 
ATOM      7  C   UNL     1      34.735 -15.918 -22.890  0.00  0.00    -0.020 C 
ATOM      8  C   UNL     1      33.853 -16.117 -25.145  0.00  0.00    +0.014 C 
ATOM      9  C   UNL     1      34.408 -16.695 -24.000  0.00  0.00    -0.003 C 
ATOM     10  H   UNL     1      32.804 -14.206 -26.988  0.00  0.00    +0.152 HD
ENDROOT
BRANCH   2  11
ATOM     11  C   UNL     1      33.762 -11.399 -23.531  0.00  0.00    +0.007 C 
BRANCH  11  13
ATOM     12  N   UNL     1      32.569  -9.766 -22.059  0.00  0.00    +0.387 N 
ATOM     13  C   UNL     1      32.473 -11.025 -22.812  0.00  0.00    -0.054 C 
ATOM     14  C   UNL     1      32.114 -12.039 -21.723  0.00  0.00    -0.023 C 
ATOM     15  C   UNL     1      31.431 -11.229 -20.627  0.00  0.00    -0.025 C 
ATOM     16  C   UNL     1      31.436  -9.794 -21.130  0.00  0.00    -0.077 C 
ATOM     17  C   UNL     1      32.532  -8.582 -22.909  0.00  0.00    -0.101 C 
ATOM     18  H   UNL     1      33.466  -9.700 -21.580  0.00  0.00    -0.080 HD
ENDBRANCH  11  13
ENDBRANCH   2  11
BRANCH   7  19
ATOM     19  C   UNL     1      35.326 -16.566 -21.682  0.00  0.00    +0.052 C 
BRANCH  19  20
ATOM     20  C   UNL     1      34.600 -17.840 -21.239  0.00  0.00    +0.161 C 
BRANCH  20  21
ATOM     21  S   UNL     1      35.562 -19.295 -21.509  0.00  0.00    +0.009 S 
ATOM     22  O   UNL     1      36.945 -19.012 -21.164  0.00  0.00    -0.169 OA
ATOM     23  O   UNL     1      35.227 -19.811 -22.826  0.00  0.00    -0.169 OA
BRANCH  21  24
ATOM     24  C   UNL     1      34.953 -20.439 -20.307  0.00  0.00    +0.106 C 
ATOM     25  C   UNL     1      35.853 -21.187 -19.568  0.00  0.00    +0.018 C 
ATOM     26  C   UNL     1      33.586 -20.564 -20.125  0.00  0.00    +0.018 C 
ATOM     27  C   UNL     1      35.372 -22.089 -18.619  0.00  0.00    +0.001 C 
ATOM     28  C   UNL     1      33.105 -21.466 -19.176  0.00  0.00    +0.001 C 
ATOM     29  C   UNL     1      33.998 -22.228 -18.423  0.00  0.00    +0.000 C 
ENDBRANCH  21  24
ENDBRANCH  20  21
ENDBRANCH  19  20
ENDBRANCH   7  19
TORSDOF 6
ENDMDL
MODEL 8
REMARK VINA RESULT:     -10.0      9.045     14.124
REMARK  Name = 77993
REMARK  6 active torsions:
REMARK  status: ('A' for Active; 'I' for Inactive)
REMARK    1  A    between atoms: C_2  and  C_11
REMARK    2  A    between atoms: C_7  and  C_19
REMARK    3  A    between atoms: C_11  and  C_13
REMARK    4  A    between atoms: C_19  and  C_20
REMARK    5  A    between atoms: C_20  and  S_21
REMARK    6  A    between atoms: S_21  and  C_24
REMARK                            x       y       z     vdW  Elec       q    Type
REMARK                         _______ _______ _______ _____ _____    ______ ____
ROOT
ATOM      1  N   UNL     1      31.986  -7.764 -19.105  0.00  0.00    -0.312 N 
ATOM      2  C   UNL     1      31.826  -7.514 -21.285  0.00  0.00    -0.008 C 
ATOM      3  C   UNL     1      31.806  -8.899 -21.019  0.00  0.00    +0.010 C 
ATOM      4  C   UNL     1      31.936  -6.834 -20.109  0.00  0.00    +0.058 C 
ATOM      5  C   UNL     1      31.908  -9.035 -19.632  0.00  0.00    +0.048 C 
ATOM      6  C   UNL     1      31.712 -10.063 -21.808  0.00  0.00    -0.003 C 
ATOM      7  C   UNL     1      31.723 -11.314 -21.183  0.00  0.00    -0.020 C 
ATOM      8  C   UNL     1      31.920 -10.279 -18.994  0.00  0.00    +0.014 C 
ATOM      9  C   UNL     1      31.826 -11.419 -19.797  0.00  0.00    -0.003 C 
ATOM     10  H   UNL     1      32.065  -7.556 -18.147  0.00  0.00    +0.152 HD
ENDROOT
BRANCH   2  11
ATOM     11  C   UNL     1      31.741  -6.881 -22.640  0.00  0.00    +0.007 C 
BRANCH  11  13
ATOM     12  N   UNL     1      33.000  -5.626 -24.400  0.00  0.00    +0.387 N 
ATOM     13  C   UNL     1      33.046  -6.215 -23.054  0.00  0.00    -0.054 C 
ATOM     14  C   UNL     1      34.189  -7.227 -23.170  0.00  0.00    -0.023 C 
ATOM     15  C   UNL     1      35.076  -6.705 -24.295  0.00  0.00    -0.025 C 
ATOM     16  C   UNL     1      34.403  -5.429 -24.774  0.00  0.00    -0.077 C 
ATOM     17  C   UNL     1      32.252  -4.376 -24.457  0.00  0.00    -0.101 C 
ATOM     18  H   UNL     1      32.506  -6.241 -25.046  0.00  0.00    -0.080 HD
ENDBRANCH  11  13
ENDBRANCH   2  11
BRANCH   7  19
ATOM     19  C   UNL     1      31.624 -12.552 -22.013  0.00  0.00    +0.052 C 
BRANCH  19  20
ATOM     20  C   UNL     1      32.514 -13.700 -21.529  0.00  0.00    +0.161 C 
BRANCH  20  21
ATOM     21  S   UNL     1      34.101 -13.698 -22.303  0.00  0.00    +0.009 S 
ATOM     22  O   UNL     1      35.122 -13.813 -21.275  0.00  0.00    -0.169 OA
ATOM     23  O   UNL     1      34.134 -12.594 -23.246  0.00  0.00    -0.169 OA
BRANCH  21  24
ATOM     24  C   UNL     1      34.127 -15.204 -23.228  0.00  0.00    +0.106 C 
ATOM     25  C   UNL     1      34.828 -16.291 -22.732  0.00  0.00    +0.018 C 
ATOM     26  C   UNL     1      33.445 -15.270 -24.431  0.00  0.00    +0.018 C 
ATOM     27  C   UNL     1      34.847 -17.479 -23.462  0.00  0.00    +0.001 C 
ATOM     28  C   UNL     1      33.464 -16.459 -25.161  0.00  0.00    +0.001 C 
ATOM     29  C   UNL     1      34.165 -17.562 -24.677  0.00  0.00    +0.000 C 
ENDBRANCH  21  24
ENDBRANCH  20  21
ENDBRANCH  19  20
ENDBRANCH   7  19
TORSDOF 6
ENDMDL
MODEL 9
REMARK VINA RESULT:      -9.9      9.305     13.018
REMARK  Name = 77993
REMARK  6 active torsions:
REMARK  status: ('A' for Active; 'I' for Inactive)
REMARK    1  A    between atoms: C_2  and  C_11
REMARK    2  A    between atoms: C_7  and  C_19
REMARK    3  A    between atoms: C_11  and  C_13
REMARK    4  A    between atoms: C_19  and  C_20
REMARK    5  A    between atoms: C_20  and  S_21
REMARK    6  A    between atoms: S_21  and  C_24
REMARK                            x       y       z     vdW  Elec       q    Type
REMARK                         _______ _______ _______ _____ _____    ______ ____
ROOT
ATOM      1  N   UNL     1      31.922 -13.185 -19.974  0.00  0.00    -0.312 N 
ATOM      2  C   UNL     1      33.258 -13.260 -21.720  0.00  0.00    -0.008 C 
ATOM      3  C   UNL     1      32.637 -11.993 -21.720  0.00  0.00    +0.010 C 
ATOM      4  C   UNL     1      32.813 -13.976 -20.650  0.00  0.00    +0.058 C 
ATOM      5  C   UNL     1      31.795 -11.968 -20.605  0.00  0.00    +0.048 C 
ATOM      6  C   UNL     1      32.697 -10.856 -22.550  0.00  0.00    -0.003 C 
ATOM      7  C   UNL     1      31.915  -9.739 -22.235  0.00  0.00    -0.020 C 
ATOM      8  C   UNL     1      31.008 -10.859 -20.279  0.00  0.00    +0.014 C 
ATOM      9  C   UNL     1      31.083  -9.743 -21.117  0.00  0.00    -0.003 C 
ATOM     10  H   UNL     1      31.442 -13.448 -19.156  0.00  0.00    +0.152 HD
ENDROOT
BRANCH   2  11
ATOM     11  C   UNL     1      34.251 -13.749 -22.730  0.00  0.00    +0.007 C 
BRANCH  11  13
ATOM     12  N   UNL     1      34.800 -15.932 -23.822  0.00  0.00    +0.387 N 
ATOM     13  C   UNL     1      33.745 -14.960 -23.503  0.00  0.00    -0.054 C 
ATOM     14  C   UNL     1      33.219 -14.571 -24.888  0.00  0.00    -0.023 C 
ATOM     15  C   UNL     1      33.541 -15.758 -25.788  0.00  0.00    -0.025 C 
ATOM     16  C   UNL     1      34.237 -16.765 -24.887  0.00  0.00    -0.077 C 
ATOM     17  C   UNL     1      35.208 -16.735 -22.675  0.00  0.00    -0.101 C 
ATOM     18  H   UNL     1      35.655 -15.455 -24.107  0.00  0.00    -0.080 HD
ENDBRANCH  11  13
ENDBRANCH   2  11
BRANCH   7  19
ATOM     19  C   UNL     1      31.972  -8.531 -23.111  0.00  0.00    +0.052 C 
BRANCH  19  20
ATOM     20  C   UNL     1      30.906  -7.479 -22.792  0.00  0.00    +0.161 C 
BRANCH  20  21
ATOM     21  S   UNL     1      31.604  -5.896 -22.436  0.00  0.00    +0.009 S 
ATOM     22  O   UNL     1      32.225  -5.945 -21.124  0.00  0.00    -0.169 OA
ATOM     23  O   UNL     1      30.598  -4.891 -22.733  0.00  0.00    -0.169 OA
BRANCH  21  24
ATOM     24  C   UNL     1      32.907  -5.728 -23.618  0.00  0.00    +0.106 C 
ATOM     25  C   UNL     1      32.688  -4.982 -24.764  0.00  0.00    +0.018 C 
ATOM     26  C   UNL     1      34.123  -6.345 -23.376  0.00  0.00    +0.018 C 
ATOM     27  C   UNL     1      33.717  -4.849 -25.697  0.00  0.00    +0.001 C 
ATOM     28  C   UNL     1      35.151  -6.211 -24.310  0.00  0.00    +0.001 C 
ATOM     29  C   UNL     1      34.948  -5.464 -25.469  0.00  0.00    +0.000 C 
ENDBRANCH  21  24
ENDBRANCH  20  21
ENDBRANCH  19  20
ENDBRANCH   7  19
TORSDOF 6
ENDMDL
