MODEL 1
REMARK VINA RESULT:     -12.8      0.000      0.000
REMARK  Name = 24794406
REMARK  5 active torsions:
REMARK  status: ('A' for Active; 'I' for Inactive)
REMARK    1  A    between atoms: C_1  and  S_24
REMARK    2  A    between atoms: C_2  and  N_8
REMARK    3  A    between atoms: C_9  and  C_11
REMARK    4  A    between atoms: C_12  and  N_18
REMARK    5  A    between atoms: S_24  and  N_28
REMARK                            x       y       z     vdW  Elec       q    Type
REMARK                         _______ _______ _______ _____ _____    ______ ____
ROOT
ATOM      1  C   UNL     1      32.485 -24.064 -14.185  0.00  0.00    +0.139 C 
ATOM      2  C   UNL     1      31.713 -23.656 -15.273  0.00  0.00    +0.070 C 
ATOM      3  C   UNL     1      31.892 -24.761 -13.132  0.00  0.00    +0.021 C 
ATOM      4  C   UNL     1      30.349 -23.945 -15.308  0.00  0.00    +0.016 C 
ATOM      5  C   UNL     1      30.528 -25.050 -13.167  0.00  0.00    +0.001 C 
ATOM      6  C   UNL     1      29.756 -24.642 -14.256  0.00  0.00    +0.001 C 
ENDROOT
BRANCH   2   8
ATOM      7  O   UNL     1      33.488 -24.613 -17.492  0.00  0.00    -0.270 OA
ATOM      8  N   UNL     1      32.290 -22.947 -16.355  0.00  0.00    -0.279 N 
ATOM      9  C   UNL     1      33.119 -23.434 -17.376  0.00  0.00    +0.250 C 
ATOM     10  H   UNL     1      32.083 -21.985 -16.395  0.00  0.00    +0.155 HD
BRANCH   9  11
ATOM     11  C   UNL     1      33.582 -22.449 -18.340  0.00  0.00    +0.054 C 
ATOM     12  C   UNL     1      34.469 -20.561 -20.192  0.00  0.00    +0.058 C 
ATOM     13  C   UNL     1      32.667 -21.598 -18.960  0.00  0.00    +0.006 C 
ATOM     14  C   UNL     1      34.939 -22.357 -18.647  0.00  0.00    +0.006 C 
ATOM     15  C   UNL     1      33.111 -20.653 -19.886  0.00  0.00    +0.015 C 
ATOM     16  C   UNL     1      35.383 -21.413 -19.573  0.00  0.00    +0.015 C 
BRANCH  12  18
ATOM     17  O   UNL     1      36.872 -18.972 -19.938  0.00  0.00    -0.269 OA
ATOM     18  N   UNL     1      34.930 -19.579 -21.155  0.00  0.00    -0.233 N 
ATOM     19  C   UNL     1      36.150 -18.890 -20.933  0.00  0.00    +0.257 C 
ATOM     20  C   UNL     1      34.169 -19.286 -22.289  0.00  0.00    +0.072 C 
ATOM     21  C   UNL     1      36.576 -17.929 -21.997  0.00  0.00    +0.059 C 
ATOM     22  C   UNL     1      34.555 -18.397 -23.211  0.00  0.00    +0.017 C 
ATOM     23  C   UNL     1      35.799 -17.705 -23.059  0.00  0.00    +0.006 C 
ENDBRANCH  12  18
ENDBRANCH   9  11
ENDBRANCH   2   8
BRANCH   1  24
ATOM     24  S   UNL     1      34.201 -23.721 -14.102  0.00  0.00    +0.076 S 
ATOM     25  O   UNL     1      34.601 -23.821 -12.706  0.00  0.00    -0.150 OA
ATOM     26  O   UNL     1      34.459 -22.484 -14.824  0.00  0.00    -0.150 OA
BRANCH  24  28
ATOM     27 CL   UNL     1      40.570 -26.190 -13.946  0.00  0.00    -0.081 Cl
ATOM     28  N   UNL     1      34.890 -25.046 -14.957  0.00  0.00    -0.199 N 
ATOM     29  N   UNL     1      37.101 -24.317 -14.522  0.00  0.00    -0.227 NA
ATOM     30  C   UNL     1      36.272 -25.368 -14.714  0.00  0.00    +0.147 C 
ATOM     31  C   UNL     1      36.677 -26.692 -14.686  0.00  0.00    +0.036 C 
ATOM     32  C   UNL     1      38.021 -26.956 -14.445  0.00  0.00    +0.016 C 
ATOM     33  C   UNL     1      38.400 -24.614 -14.291  0.00  0.00    +0.112 C 
ATOM     34  C   UNL     1      38.906 -25.902 -14.243  0.00  0.00    +0.077 C 
ATOM     35  H   UNL     1      34.356 -25.570 -15.596  0.00  0.00    +0.175 HD
ENDBRANCH  24  28
ENDBRANCH   1  24
TORSDOF 5
ENDMDL
MODEL 2
REMARK VINA RESULT:     -12.7      1.159      1.652
REMARK  Name = 24794406
REMARK  5 active torsions:
REMARK  status: ('A' for Active; 'I' for Inactive)
REMARK    1  A    between atoms: C_1  and  S_24
REMARK    2  A    between atoms: C_2  and  N_8
REMARK    3  A    between atoms: C_9  and  C_11
REMARK    4  A    between atoms: C_12  and  N_18
REMARK    5  A    between atoms: S_24  and  N_28
REMARK                            x       y       z     vdW  Elec       q    Type
REMARK                         _______ _______ _______ _____ _____    ______ ____
ROOT
ATOM      1  C   UNL     1      33.217 -23.803 -14.615  0.00  0.00    +0.139 C 
ATOM      2  C   UNL     1      32.273 -23.363 -15.544  0.00  0.00    +0.070 C 
ATOM      3  C   UNL     1      32.809 -24.539 -13.503  0.00  0.00    +0.021 C 
ATOM      4  C   UNL     1      30.923 -23.658 -15.359  0.00  0.00    +0.016 C 
ATOM      5  C   UNL     1      31.458 -24.835 -13.319  0.00  0.00    +0.001 C 
ATOM      6  C   UNL     1      30.515 -24.395 -14.248  0.00  0.00    +0.001 C 
ENDROOT
BRANCH   2   8
ATOM      7  O   UNL     1      33.542 -24.251 -18.111  0.00  0.00    -0.270 OA
ATOM      8  N   UNL     1      32.660 -22.613 -16.681  0.00  0.00    -0.279 N 
ATOM      9  C   UNL     1      33.254 -23.068 -17.867  0.00  0.00    +0.250 C 
ATOM     10  H   UNL     1      32.491 -21.644 -16.633  0.00  0.00    +0.155 HD
BRANCH   9  11
ATOM     11  C   UNL     1      33.564 -22.047 -18.855  0.00  0.00    +0.054 C 
ATOM     12  C   UNL     1      34.161 -20.087 -20.748  0.00  0.00    +0.058 C 
ATOM     13  C   UNL     1      34.891 -21.798 -19.206  0.00  0.00    +0.006 C 
ATOM     14  C   UNL     1      32.537 -21.315 -19.449  0.00  0.00    +0.006 C 
ATOM     15  C   UNL     1      35.189 -20.818 -20.153  0.00  0.00    +0.015 C 
ATOM     16  C   UNL     1      32.835 -20.335 -20.395  0.00  0.00    +0.015 C 
BRANCH  12  18
ATOM     17  O   UNL     1      35.504 -17.585 -20.198  0.00  0.00    -0.269 OA
ATOM     18  N   UNL     1      34.471 -19.068 -21.732  0.00  0.00    -0.233 N 
ATOM     19  C   UNL     1      35.171 -17.898 -21.342  0.00  0.00    +0.257 C 
ATOM     20  C   UNL     1      34.065 -19.219 -23.060  0.00  0.00    +0.072 C 
ATOM     21  C   UNL     1      35.491 -16.919 -22.428  0.00  0.00    +0.059 C 
ATOM     22  C   UNL     1      34.334 -18.313 -24.007  0.00  0.00    +0.017 C 
ATOM     23  C   UNL     1      35.075 -17.133 -23.678  0.00  0.00    +0.006 C 
ENDBRANCH  12  18
ENDBRANCH   9  11
ENDBRANCH   2   8
BRANCH   1  24
ATOM     24  S   UNL     1      34.922 -23.453 -14.811  0.00  0.00    +0.076 S 
ATOM     25  O   UNL     1      35.071 -22.005 -14.852  0.00  0.00    -0.150 OA
ATOM     26  O   UNL     1      35.431 -24.248 -15.919  0.00  0.00    -0.150 OA
BRANCH  24  28
ATOM     27 CL   UNL     1      40.885 -26.573 -13.629  0.00  0.00    -0.081 Cl
ATOM     28  N   UNL     1      35.595 -24.022 -13.332  0.00  0.00    -0.199 N 
ATOM     29  N   UNL     1      37.170 -25.393 -14.449  0.00  0.00    -0.227 NA
ATOM     30  C   UNL     1      36.899 -24.629 -13.367  0.00  0.00    +0.147 C 
ATOM     31  C   UNL     1      37.789 -24.411 -12.328  0.00  0.00    +0.036 C 
ATOM     32  C   UNL     1      39.039 -25.016 -12.405  0.00  0.00    +0.016 C 
ATOM     33  C   UNL     1      38.394 -25.965 -14.488  0.00  0.00    +0.112 C 
ATOM     34  C   UNL     1      39.355 -25.809 -13.502  0.00  0.00    +0.077 C 
ATOM     35  H   UNL     1      35.101 -23.935 -12.485  0.00  0.00    +0.175 HD
ENDBRANCH  24  28
ENDBRANCH   1  24
TORSDOF 5
ENDMDL
MODEL 3
REMARK VINA RESULT:     -10.7      3.447      5.755
REMARK  Name = 24794406
REMARK  5 active torsions:
REMARK  status: ('A' for Active; 'I' for Inactive)
REMARK    1  A    between atoms: C_1  and  S_24
REMARK    2  A    between atoms: C_2  and  N_8
REMARK    3  A    between atoms: C_9  and  C_11
REMARK    4  A    between atoms: C_12  and  N_18
REMARK    5  A    between atoms: S_24  and  N_28
REMARK                            x       y       z     vdW  Elec       q    Type
REMARK                         _______ _______ _______ _____ _____    ______ ____
ROOT
ATOM      1  C   UNL     1      34.772 -23.265 -16.143  0.00  0.00    +0.139 C 
ATOM      2  C   UNL     1      35.752 -22.355 -16.538  0.00  0.00    +0.070 C 
ATOM      3  C   UNL     1      34.976 -24.065 -15.018  0.00  0.00    +0.021 C 
ATOM      4  C   UNL     1      36.937 -22.246 -15.810  0.00  0.00    +0.016 C 
ATOM      5  C   UNL     1      36.160 -23.954 -14.289  0.00  0.00    +0.001 C 
ATOM      6  C   UNL     1      37.140 -23.043 -14.685  0.00  0.00    +0.001 C 
ENDROOT
BRANCH   2   8
ATOM      7  O   UNL     1      37.099 -22.428 -19.215  0.00  0.00    -0.270 OA
ATOM      8  N   UNL     1      35.571 -21.532 -17.677  0.00  0.00    -0.279 N 
ATOM      9  C   UNL     1      36.225 -21.599 -18.916  0.00  0.00    +0.250 C 
ATOM     10  H   UNL     1      34.899 -20.819 -17.587  0.00  0.00    +0.155 HD
BRANCH   9  11
ATOM     11  C   UNL     1      35.842 -20.591 -19.890  0.00  0.00    +0.054 C 
ATOM     12  C   UNL     1      35.110 -18.654 -21.760  0.00  0.00    +0.058 C 
ATOM     13  C   UNL     1      36.812 -19.755 -20.445  0.00  0.00    +0.006 C 
ATOM     14  C   UNL     1      34.507 -20.457 -20.270  0.00  0.00    +0.006 C 
ATOM     15  C   UNL     1      36.445 -18.786 -21.380  0.00  0.00    +0.015 C 
ATOM     16  C   UNL     1      34.140 -19.489 -21.204  0.00  0.00    +0.015 C 
BRANCH  12  18
ATOM     17  O   UNL     1      34.093 -19.193 -24.413  0.00  0.00    -0.269 OA
ATOM     18  N   UNL     1      34.728 -17.648 -22.732  0.00  0.00    -0.233 N 
ATOM     19  C   UNL     1      34.204 -18.042 -23.990  0.00  0.00    +0.257 C 
ATOM     20  C   UNL     1      34.895 -16.290 -22.449  0.00  0.00    +0.072 C 
ATOM     21  C   UNL     1      33.793 -16.941 -24.915  0.00  0.00    +0.059 C 
ATOM     22  C   UNL     1      34.551 -15.324 -23.307  0.00  0.00    +0.017 C 
ATOM     23  C   UNL     1      33.977 -15.663 -24.574  0.00  0.00    +0.006 C 
ENDBRANCH  12  18
ENDBRANCH   9  11
ENDBRANCH   2   8
BRANCH   1  24
ATOM     24  S   UNL     1      33.271 -23.434 -17.030  0.00  0.00    +0.076 S 
ATOM     25  O   UNL     1      33.539 -24.271 -18.191  0.00  0.00    -0.150 OA
ATOM     26  O   UNL     1      32.703 -22.108 -17.231  0.00  0.00    -0.150 OA
BRANCH  24  28
ATOM     27 CL   UNL     1      26.766 -22.442 -15.189  0.00  0.00    -0.081 Cl
ATOM     28  N   UNL     1      32.286 -24.327 -15.937  0.00  0.00    -0.199 N 
ATOM     29  N   UNL     1      30.707 -22.571 -15.753  0.00  0.00    -0.227 NA
ATOM     30  C   UNL     1      30.923 -23.906 -15.750  0.00  0.00    +0.147 C 
ATOM     31  C   UNL     1      29.926 -24.853 -15.583  0.00  0.00    +0.036 C 
ATOM     32  C   UNL     1      28.622 -24.401 -15.409  0.00  0.00    +0.016 C 
ATOM     33  C   UNL     1      29.428 -22.170 -15.580  0.00  0.00    +0.112 C 
ATOM     34  C   UNL     1      28.360 -23.035 -15.405  0.00  0.00    +0.077 C 
ATOM     35  H   UNL     1      32.645 -25.105 -15.452  0.00  0.00    +0.175 HD
ENDBRANCH  24  28
ENDBRANCH   1  24
TORSDOF 5
ENDMDL
MODEL 4
REMARK VINA RESULT:     -10.3      3.307      5.431
REMARK  Name = 24794406
REMARK  5 active torsions:
REMARK  status: ('A' for Active; 'I' for Inactive)
REMARK    1  A    between atoms: C_1  and  S_24
REMARK    2  A    between atoms: C_2  and  N_8
REMARK    3  A    between atoms: C_9  and  C_11
REMARK    4  A    between atoms: C_12  and  N_18
REMARK    5  A    between atoms: S_24  and  N_28
REMARK                            x       y       z     vdW  Elec       q    Type
REMARK                         _______ _______ _______ _____ _____    ______ ____
ROOT
ATOM      1  C   UNL     1      34.942 -24.046 -12.733  0.00  0.00    +0.139 C 
ATOM      2  C   UNL     1      35.986 -23.214 -13.136  0.00  0.00    +0.070 C 
ATOM      3  C   UNL     1      34.940 -24.590 -11.448  0.00  0.00    +0.021 C 
ATOM      4  C   UNL     1      37.028 -22.926 -12.255  0.00  0.00    +0.016 C 
ATOM      5  C   UNL     1      35.981 -24.300 -10.567  0.00  0.00    +0.001 C 
ATOM      6  C   UNL     1      37.025 -23.467 -10.970  0.00  0.00    +0.001 C 
ENDROOT
BRANCH   2   8
ATOM      7  O   UNL     1      38.110 -23.320 -15.250  0.00  0.00    -0.270 OA
ATOM      8  N   UNL     1      36.013 -22.650 -14.435  0.00  0.00    -0.279 N 
ATOM      9  C   UNL     1      37.031 -22.723 -15.397  0.00  0.00    +0.250 C 
ATOM     10  H   UNL     1      35.214 -22.139 -14.697  0.00  0.00    +0.155 HD
BRANCH   9  11
ATOM     11  C   UNL     1      36.781 -22.013 -16.641  0.00  0.00    +0.054 C 
ATOM     12  C   UNL     1      36.299 -20.652 -19.028  0.00  0.00    +0.058 C 
ATOM     13  C   UNL     1      35.769 -22.446 -17.499  0.00  0.00    +0.006 C 
ATOM     14  C   UNL     1      37.551 -20.900 -16.978  0.00  0.00    +0.006 C 
ATOM     15  C   UNL     1      35.529 -21.765 -18.692  0.00  0.00    +0.015 C 
ATOM     16  C   UNL     1      37.311 -20.220 -18.171  0.00  0.00    +0.015 C 
BRANCH  12  18
ATOM     17  O   UNL     1      33.743 -20.488 -20.373  0.00  0.00    -0.269 OA
ATOM     18  N   UNL     1      36.048 -19.944 -20.269  0.00  0.00    -0.233 N 
ATOM     19  C   UNL     1      34.737 -19.905 -20.809  0.00  0.00    +0.257 C 
ATOM     20  C   UNL     1      37.094 -19.319 -20.952  0.00  0.00    +0.072 C 
ATOM     21  C   UNL     1      34.557 -19.115 -22.066  0.00  0.00    +0.059 C 
ATOM     22  C   UNL     1      36.914 -18.646 -22.094  0.00  0.00    +0.017 C 
ATOM     23  C   UNL     1      35.603 -18.538 -22.661  0.00  0.00    +0.006 C 
ENDBRANCH  12  18
ENDBRANCH   9  11
ENDBRANCH   2   8
BRANCH   1  24
ATOM     24  S   UNL     1      33.615 -24.434 -13.809  0.00  0.00    +0.076 S 
ATOM     25  O   UNL     1      32.872 -25.534 -13.211  0.00  0.00    -0.150 OA
ATOM     26  O   UNL     1      34.145 -24.589 -15.156  0.00  0.00    -0.150 OA
BRANCH  24  28
ATOM     27 CL   UNL     1      27.702 -23.010 -16.923  0.00  0.00    -0.081 Cl
ATOM     28  N   UNL     1      32.640 -23.018 -13.728  0.00  0.00    -0.199 N 
ATOM     29  N   UNL     1      31.444 -23.598 -15.689  0.00  0.00    -0.227 NA
ATOM     30  C   UNL     1      31.412 -22.994 -14.480  0.00  0.00    +0.147 C 
ATOM     31  C   UNL     1      30.292 -22.376 -13.949  0.00  0.00    +0.036 C 
ATOM     32  C   UNL     1      29.127 -22.379 -14.709  0.00  0.00    +0.016 C 
ATOM     33  C   UNL     1      30.293 -23.580 -16.398  0.00  0.00    +0.112 C 
ATOM     34  C   UNL     1      29.119 -22.991 -15.958  0.00  0.00    +0.077 C 
ATOM     35  H   UNL     1      32.913 -22.245 -13.184  0.00  0.00    +0.175 HD
ENDBRANCH  24  28
ENDBRANCH   1  24
TORSDOF 5
ENDMDL
MODEL 5
REMARK VINA RESULT:     -10.0      3.105      5.422
REMARK  Name = 24794406
REMARK  5 active torsions:
REMARK  status: ('A' for Active; 'I' for Inactive)
REMARK    1  A    between atoms: C_1  and  S_24
REMARK    2  A    between atoms: C_2  and  N_8
REMARK    3  A    between atoms: C_9  and  C_11
REMARK    4  A    between atoms: C_12  and  N_18
REMARK    5  A    between atoms: S_24  and  N_28
REMARK                            x       y       z     vdW  Elec       q    Type
REMARK                         _______ _______ _______ _____ _____    ______ ____
ROOT
ATOM      1  C   UNL     1      35.370 -22.947 -16.366  0.00  0.00    +0.139 C 
ATOM      2  C   UNL     1      36.352 -22.130 -16.925  0.00  0.00    +0.070 C 
ATOM      3  C   UNL     1      35.693 -23.807 -15.315  0.00  0.00    +0.021 C 
ATOM      4  C   UNL     1      37.658 -22.174 -16.436  0.00  0.00    +0.016 C 
ATOM      5  C   UNL     1      36.998 -23.849 -14.825  0.00  0.00    +0.001 C 
ATOM      6  C   UNL     1      37.980 -23.032 -15.385  0.00  0.00    +0.001 C 
ENDROOT
BRANCH   2   8
ATOM      7  O   UNL     1      36.808 -22.432 -19.873  0.00  0.00    -0.270 OA
ATOM      8  N   UNL     1      36.052 -21.249 -17.993  0.00  0.00    -0.279 N 
ATOM      9  C   UNL     1      36.283 -21.429 -19.365  0.00  0.00    +0.250 C 
ATOM     10  H   UNL     1      35.626 -20.399 -17.739  0.00  0.00    +0.155 HD
BRANCH   9  11
ATOM     11  C   UNL     1      35.887 -20.325 -20.224  0.00  0.00    +0.054 C 
ATOM     12  C   UNL     1      35.126 -18.209 -21.875  0.00  0.00    +0.058 C 
ATOM     13  C   UNL     1      34.558 -20.200 -20.630  0.00  0.00    +0.006 C 
ATOM     14  C   UNL     1      36.834 -19.393 -20.645  0.00  0.00    +0.006 C 
ATOM     15  C   UNL     1      34.178 -19.142 -21.455  0.00  0.00    +0.015 C 
ATOM     16  C   UNL     1      36.455 -18.335 -21.470  0.00  0.00    +0.015 C 
BRANCH  12  18
ATOM     17  O   UNL     1      34.689 -15.485 -21.005  0.00  0.00    -0.269 OA
ATOM     18  N   UNL     1      34.731 -17.108 -22.732  0.00  0.00    -0.233 N 
ATOM     19  C   UNL     1      34.586 -15.805 -22.190  0.00  0.00    +0.257 C 
ATOM     20  C   UNL     1      34.466 -17.325 -24.087  0.00  0.00    +0.072 C 
ATOM     21  C   UNL     1      34.221 -14.720 -23.152  0.00  0.00    +0.059 C 
ATOM     22  C   UNL     1      34.109 -16.343 -24.921  0.00  0.00    +0.017 C 
ATOM     23  C   UNL     1      33.990 -15.000 -24.437  0.00  0.00    +0.006 C 
ENDBRANCH  12  18
ENDBRANCH   9  11
ENDBRANCH   2   8
BRANCH   1  24
ATOM     24  S   UNL     1      33.719 -22.922 -16.951  0.00  0.00    +0.076 S 
ATOM     25  O   UNL     1      33.351 -24.292 -17.283  0.00  0.00    -0.150 OA
ATOM     26  O   UNL     1      33.609 -21.894 -17.976  0.00  0.00    -0.150 OA
BRANCH  24  28
ATOM     27 CL   UNL     1      28.456 -25.996 -13.863  0.00  0.00    -0.081 Cl
ATOM     28  N   UNL     1      32.831 -22.449 -15.555  0.00  0.00    -0.199 N 
ATOM     29  N   UNL     1      31.039 -23.911 -16.065  0.00  0.00    -0.227 NA
ATOM     30  C   UNL     1      31.770 -23.308 -15.101  0.00  0.00    +0.147 C 
ATOM     31  C   UNL     1      31.552 -23.475 -13.743  0.00  0.00    +0.036 C 
ATOM     32  C   UNL     1      30.517 -24.316 -13.349  0.00  0.00    +0.016 C 
ATOM     33  C   UNL     1      30.042 -24.721 -15.644  0.00  0.00    +0.112 C 
ATOM     34  C   UNL     1      29.743 -24.955 -14.312  0.00  0.00    +0.077 C 
ATOM     35  H   UNL     1      33.042 -21.613 -15.080  0.00  0.00    +0.175 HD
ENDBRANCH  24  28
ENDBRANCH   1  24
TORSDOF 5
ENDMDL
