MODEL 1
REMARK VINA RESULT:     -12.0      0.000      0.000
REMARK  Name = 208951
REMARK  4 active torsions:
REMARK  status: ('A' for Active; 'I' for Inactive)
REMARK    1  A    between atoms: N_1  and  C_19
REMARK    2  A    between atoms: N_2  and  C_11
REMARK    3  A    between atoms: C_19  and  C_20
REMARK    4  A    between atoms: C_23  and  C_26
REMARK                            x       y       z     vdW  Elec       q    Type
REMARK                         _______ _______ _______ _____ _____    ______ ____
ROOT
ATOM      1  N   UNL     1      34.601 -16.324 -23.624  0.00  0.00    +0.392 N 
ATOM      2  N   UNL     1      33.353 -13.905 -22.756  0.00  0.00    -0.309 N 
ATOM      3  C   UNL     1      34.514 -16.004 -22.194  0.00  0.00    -0.055 C 
ATOM      4  C   UNL     1      33.420 -15.805 -24.324  0.00  0.00    -0.055 C 
ATOM      5  C   UNL     1      34.444 -14.491 -21.971  0.00  0.00    +0.068 C 
ATOM      6  C   UNL     1      33.314 -14.286 -24.174  0.00  0.00    +0.068 C 
ATOM      7  H   UNL     1      35.434 -15.879 -24.011  0.00  0.00    -0.079 HD
ENDROOT
BRANCH   2  11
ATOM      8  O   UNL     1      34.410 -11.347 -23.760  0.00  0.00    -0.406 OA
ATOM      9  O   UNL     1      35.365  -9.436 -24.647  0.00  0.00    -0.223 OA
ATOM     10  N   UNL     1      33.560  -9.292 -23.179  0.00  0.00    -0.287 N 
ATOM     11  C   UNL     1      32.830 -12.658 -22.396  0.00  0.00    +0.084 C 
ATOM     12  C   UNL     1      33.344 -11.462 -22.882  0.00  0.00    +0.179 A 
ATOM     13  C   UNL     1      31.739 -12.541 -21.511  0.00  0.00    +0.018 C 
ATOM     14  C   UNL     1      32.820 -10.240 -22.522  0.00  0.00    +0.098 A 
ATOM     15  C   UNL     1      31.211 -11.285 -21.148  0.00  0.00    +0.003 C 
ATOM     16  C   UNL     1      31.756 -10.106 -21.660  0.00  0.00    +0.020 C 
ATOM     17  C   UNL     1      34.520  -9.954 -23.927  0.00  0.00    +0.419 A 
ATOM     18  H   UNL     1      33.433  -8.318 -23.129  0.00  0.00    +0.172 HD
ENDBRANCH   2  11
BRANCH   1  19
ATOM     19  C   UNL     1      34.721 -17.767 -23.820  0.00  0.00    -0.050 C 
BRANCH  19  20
ATOM     20  C   UNL     1      35.424 -18.416 -22.659  0.00  0.00    -0.043 C 
ATOM     21  C   UNL     1      34.714 -19.256 -21.811  0.00  0.00    -0.006 C 
ATOM     22  C   UNL     1      36.774 -18.166 -22.450  0.00  0.00    -0.006 C 
ATOM     23  C   UNL     1      35.367 -19.858 -20.735  0.00  0.00    -0.000 C 
ATOM     24  C   UNL     1      37.426 -18.767 -21.374  0.00  0.00    -0.000 C 
ATOM     25  C   UNL     1      36.722 -19.613 -20.516  0.00  0.00    -0.000 C 
BRANCH  23  26
ATOM     26  C   UNL     1      34.638 -20.736 -19.846  0.00  0.00    -0.000 C 
ATOM     27  C   UNL     1      33.243 -20.719 -19.837  0.00  0.00    -0.000 C 
ATOM     28  C   UNL     1      35.330 -21.602 -18.998  0.00  0.00    -0.000 C 
ATOM     29  C   UNL     1      32.540 -21.567 -18.980  0.00  0.00    -0.000 C 
ATOM     30  C   UNL     1      34.627 -22.448 -18.142  0.00  0.00    -0.000 C 
ATOM     31  C   UNL     1      33.232 -22.431 -18.133  0.00  0.00    +0.000 C 
ENDBRANCH  23  26
ENDBRANCH  19  20
ENDBRANCH   1  19
TORSDOF 4
ENDMDL
MODEL 2
REMARK VINA RESULT:     -11.9      7.039     12.123
REMARK  Name = 208951
REMARK  4 active torsions:
REMARK  status: ('A' for Active; 'I' for Inactive)
REMARK    1  A    between atoms: N_1  and  C_19
REMARK    2  A    between atoms: N_2  and  C_11
REMARK    3  A    between atoms: C_19  and  C_20
REMARK    4  A    between atoms: C_23  and  C_26
REMARK                            x       y       z     vdW  Elec       q    Type
REMARK                         _______ _______ _______ _____ _____    ______ ____
ROOT
ATOM      1  N   UNL     1      36.190 -21.765 -17.533  0.00  0.00    +0.392 N 
ATOM      2  N   UNL     1      36.207 -23.197 -15.061  0.00  0.00    -0.309 N 
ATOM      3  C   UNL     1      37.448 -21.986 -16.810  0.00  0.00    -0.055 C 
ATOM      4  C   UNL     1      35.291 -22.908 -17.331  0.00  0.00    -0.055 C 
ATOM      5  C   UNL     1      37.200 -22.147 -15.309  0.00  0.00    +0.068 C 
ATOM      6  C   UNL     1      34.970 -23.099 -15.847  0.00  0.00    +0.068 C 
ATOM      7  H   UNL     1      35.742 -20.925 -17.165  0.00  0.00    -0.079 HD
ENDROOT
BRANCH   2  11
ATOM      8  O   UNL     1      38.273 -25.024 -14.028  0.00  0.00    -0.406 OA
ATOM      9  O   UNL     1      39.988 -26.433 -13.376  0.00  0.00    -0.223 OA
ATOM     10  N   UNL     1      38.176 -26.033 -11.965  0.00  0.00    -0.287 N 
ATOM     11  C   UNL     1      36.140 -23.808 -13.804  0.00  0.00    +0.084 C 
ATOM     12  C   UNL     1      37.127 -24.667 -13.336  0.00  0.00    +0.179 A 
ATOM     13  C   UNL     1      35.057 -23.583 -12.930  0.00  0.00    +0.018 C 
ATOM     14  C   UNL     1      37.051 -25.262 -12.095  0.00  0.00    +0.098 A 
ATOM     15  C   UNL     1      34.990 -24.198 -11.663  0.00  0.00    +0.003 C 
ATOM     16  C   UNL     1      36.002 -25.055 -11.228  0.00  0.00    +0.020 C 
ATOM     17  C   UNL     1      38.917 -25.893 -13.127  0.00  0.00    +0.419 A 
ATOM     18  H   UNL     1      38.415 -26.585 -11.186  0.00  0.00    +0.172 HD
ENDBRANCH   2  11
BRANCH   1  19
ATOM     19  C   UNL     1      36.445 -21.558 -18.957  0.00  0.00    -0.050 C 
BRANCH  19  20
ATOM     20  C   UNL     1      35.236 -20.988 -19.648  0.00  0.00    -0.043 C 
ATOM     21  C   UNL     1      35.405 -20.056 -20.663  0.00  0.00    -0.006 C 
ATOM     22  C   UNL     1      33.969 -21.402 -19.262  0.00  0.00    -0.006 C 
ATOM     23  C   UNL     1      34.283 -19.528 -21.304  0.00  0.00    -0.000 C 
ATOM     24  C   UNL     1      32.848 -20.875 -19.902  0.00  0.00    -0.000 C 
ATOM     25  C   UNL     1      33.005 -19.938 -20.923  0.00  0.00    -0.000 C 
BRANCH  23  26
ATOM     26  C   UNL     1      34.445 -18.557 -22.365  0.00  0.00    -0.000 C 
ATOM     27  C   UNL     1      35.033 -17.321 -22.095  0.00  0.00    -0.000 C 
ATOM     28  C   UNL     1      34.015 -18.858 -23.658  0.00  0.00    -0.000 C 
ATOM     29  C   UNL     1      35.190 -16.386 -23.118  0.00  0.00    -0.000 C 
ATOM     30  C   UNL     1      34.171 -17.922 -24.679  0.00  0.00    -0.000 C 
ATOM     31  C   UNL     1      34.759 -16.686 -24.409  0.00  0.00    +0.000 C 
ENDBRANCH  23  26
ENDBRANCH  19  20
ENDBRANCH   1  19
TORSDOF 4
ENDMDL
MODEL 3
REMARK VINA RESULT:     -11.8      6.771     11.882
REMARK  Name = 208951
REMARK  4 active torsions:
REMARK  status: ('A' for Active; 'I' for Inactive)
REMARK    1  A    between atoms: N_1  and  C_19
REMARK    2  A    between atoms: N_2  and  C_11
REMARK    3  A    between atoms: C_19  and  C_20
REMARK    4  A    between atoms: C_23  and  C_26
REMARK                            x       y       z     vdW  Elec       q    Type
REMARK                         _______ _______ _______ _____ _____    ______ ____
ROOT
ATOM      1  N   UNL     1      34.423 -22.170 -17.799  0.00  0.00    +0.392 N 
ATOM      2  N   UNL     1      35.113 -23.473 -15.353  0.00  0.00    -0.309 N 
ATOM      3  C   UNL     1      35.825 -22.473 -17.488  0.00  0.00    -0.055 C 
ATOM      4  C   UNL     1      33.552 -23.211 -17.242  0.00  0.00    -0.055 C 
ATOM      5  C   UNL     1      36.052 -22.535 -15.976  0.00  0.00    +0.068 C 
ATOM      6  C   UNL     1      33.702 -23.298 -15.721  0.00  0.00    +0.068 C 
ATOM      7  H   UNL     1      34.178 -21.274 -17.376  0.00  0.00    -0.079 HD
ENDROOT
BRANCH   2  11
ATOM      8  O   UNL     1      37.372 -25.291 -14.839  0.00  0.00    -0.406 OA
ATOM      9  O   UNL     1      39.190 -26.704 -14.616  0.00  0.00    -0.223 OA
ATOM     10  N   UNL     1      37.857 -26.182 -12.776  0.00  0.00    -0.287 N 
ATOM     11  C   UNL     1      35.401 -24.012 -14.093  0.00  0.00    +0.084 C 
ATOM     12  C   UNL     1      36.473 -24.868 -13.873  0.00  0.00    +0.179 A 
ATOM     13  C   UNL     1      34.613 -23.713 -12.964  0.00  0.00    +0.018 C 
ATOM     14  C   UNL     1      36.747 -25.392 -12.628  0.00  0.00    +0.098 A 
ATOM     15  C   UNL     1      34.903 -24.255 -11.695  0.00  0.00    +0.003 C 
ATOM     16  C   UNL     1      35.990 -25.112 -11.514  0.00  0.00    +0.020 C 
ATOM     17  C   UNL     1      38.238 -26.125 -14.107  0.00  0.00    +0.419 A 
ATOM     18  H   UNL     1      38.303 -26.696 -12.066  0.00  0.00    +0.172 HD
ENDBRANCH   2  11
BRANCH   1  19
ATOM     19  C   UNL     1      34.231 -22.059 -19.244  0.00  0.00    -0.050 C 
BRANCH  19  20
ATOM     20  C   UNL     1      35.109 -20.985 -19.827  0.00  0.00    -0.043 C 
ATOM     21  C   UNL     1      34.631 -20.203 -20.871  0.00  0.00    -0.006 C 
ATOM     22  C   UNL     1      36.384 -20.790 -19.314  0.00  0.00    -0.006 C 
ATOM     23  C   UNL     1      35.446 -19.206 -21.410  0.00  0.00    -0.000 C 
ATOM     24  C   UNL     1      37.197 -19.794 -19.853  0.00  0.00    -0.000 C 
ATOM     25  C   UNL     1      36.729 -19.003 -20.901  0.00  0.00    -0.000 C 
BRANCH  23  26
ATOM     26  C   UNL     1      34.959 -18.383 -22.496  0.00  0.00    -0.000 C 
ATOM     27  C   UNL     1      34.275 -18.968 -23.562  0.00  0.00    -0.000 C 
ATOM     28  C   UNL     1      35.174 -17.005 -22.478  0.00  0.00    -0.000 C 
ATOM     29  C   UNL     1      33.805 -18.174 -24.608  0.00  0.00    -0.000 C 
ATOM     30  C   UNL     1      34.705 -16.212 -23.525  0.00  0.00    -0.000 C 
ATOM     31  C   UNL     1      34.020 -16.797 -24.590  0.00  0.00    +0.000 C 
ENDBRANCH  23  26
ENDBRANCH  19  20
ENDBRANCH   1  19
TORSDOF 4
ENDMDL
MODEL 4
REMARK VINA RESULT:     -11.7      1.392      2.167
REMARK  Name = 208951
REMARK  4 active torsions:
REMARK  status: ('A' for Active; 'I' for Inactive)
REMARK    1  A    between atoms: N_1  and  C_19
REMARK    2  A    between atoms: N_2  and  C_11
REMARK    3  A    between atoms: C_19  and  C_20
REMARK    4  A    between atoms: C_23  and  C_26
REMARK                            x       y       z     vdW  Elec       q    Type
REMARK                         _______ _______ _______ _____ _____    ______ ____
ROOT
ATOM      1  N   UNL     1      34.476 -16.140 -23.622  0.00  0.00    +0.392 N 
ATOM      2  N   UNL     1      33.889 -13.353 -23.409  0.00  0.00    -0.309 N 
ATOM      3  C   UNL     1      34.213 -15.534 -22.311  0.00  0.00    -0.055 C 
ATOM      4  C   UNL     1      33.673 -15.470 -24.651  0.00  0.00    -0.055 C 
ATOM      5  C   UNL     1      34.571 -14.046 -22.311  0.00  0.00    +0.068 C 
ATOM      6  C   UNL     1      34.013 -13.980 -24.731  0.00  0.00    +0.068 C 
ATOM      7  H   UNL     1      35.464 -16.023 -23.847  0.00  0.00    -0.079 HD
ENDROOT
BRANCH   2  11
ATOM      8  O   UNL     1      31.863 -12.030 -21.730  0.00  0.00    -0.406 OA
ATOM      9  O   UNL     1      30.219 -11.160 -20.354  0.00  0.00    -0.223 OA
ATOM     10  N   UNL     1      31.570  -9.752 -21.629  0.00  0.00    -0.287 N 
ATOM     11  C   UNL     1      33.717 -11.965 -23.354  0.00  0.00    +0.084 C 
ATOM     12  C   UNL     1      32.754 -11.361 -22.554  0.00  0.00    +0.179 A 
ATOM     13  C   UNL     1      34.520 -11.089 -24.113  0.00  0.00    +0.018 C 
ATOM     14  C   UNL     1      32.594  -9.993 -22.507  0.00  0.00    +0.098 A 
ATOM     15  C   UNL     1      34.347  -9.691 -24.058  0.00  0.00    +0.003 C 
ATOM     16  C   UNL     1      33.368  -9.123 -23.241  0.00  0.00    +0.020 C 
ATOM     17  C   UNL     1      31.125 -10.977 -21.158  0.00  0.00    +0.419 A 
ATOM     18  H   UNL     1      31.215  -8.870 -21.379  0.00  0.00    +0.172 HD
ENDBRANCH   2  11
BRANCH   1  19
ATOM     19  C   UNL     1      34.181 -17.572 -23.592  0.00  0.00    -0.050 C 
BRANCH  19  20
ATOM     20  C   UNL     1      35.037 -18.281 -22.578  0.00  0.00    -0.043 C 
ATOM     21  C   UNL     1      34.449 -19.172 -21.690  0.00  0.00    -0.006 C 
ATOM     22  C   UNL     1      36.403 -18.036 -22.545  0.00  0.00    -0.006 C 
ATOM     23  C   UNL     1      35.244 -19.830 -20.751  0.00  0.00    -0.000 C 
ATOM     24  C   UNL     1      37.197 -18.694 -21.606  0.00  0.00    -0.000 C 
ATOM     25  C   UNL     1      36.618 -19.590 -20.709  0.00  0.00    -0.000 C 
BRANCH  23  26
ATOM     26  C   UNL     1      34.644 -20.761 -19.820  0.00  0.00    -0.000 C 
ATOM     27  C   UNL     1      33.255 -20.857 -19.727  0.00  0.00    -0.000 C 
ATOM     28  C   UNL     1      35.454 -21.565 -19.017  0.00  0.00    -0.000 C 
ATOM     29  C   UNL     1      32.677 -21.756 -18.831  0.00  0.00    -0.000 C 
ATOM     30  C   UNL     1      34.875 -22.462 -18.120  0.00  0.00    -0.000 C 
ATOM     31  C   UNL     1      33.486 -22.559 -18.028  0.00  0.00    +0.000 C 
ENDBRANCH  23  26
ENDBRANCH  19  20
ENDBRANCH   1  19
TORSDOF 4
ENDMDL
MODEL 5
REMARK VINA RESULT:     -11.6      4.727     10.074
REMARK  Name = 208951
REMARK  4 active torsions:
REMARK  status: ('A' for Active; 'I' for Inactive)
REMARK    1  A    between atoms: N_1  and  C_19
REMARK    2  A    between atoms: N_2  and  C_11
REMARK    3  A    between atoms: C_19  and  C_20
REMARK    4  A    between atoms: C_23  and  C_26
REMARK                            x       y       z     vdW  Elec       q    Type
REMARK                         _______ _______ _______ _____ _____    ______ ____
ROOT
ATOM      1  N   UNL     1      35.660 -19.753 -21.360  0.00  0.00    +0.392 N 
ATOM      2  N   UNL     1      34.772 -21.215 -19.073  0.00  0.00    -0.309 N 
ATOM      3  C   UNL     1      34.342 -19.485 -20.772  0.00  0.00    -0.055 C 
ATOM      4  C   UNL     1      36.610 -20.131 -20.307  0.00  0.00    -0.055 C 
ATOM      5  C   UNL     1      33.799 -20.721 -20.052  0.00  0.00    +0.068 C 
ATOM      6  C   UNL     1      36.142 -21.390 -19.571  0.00  0.00    +0.068 C 
ATOM      7  H   UNL     1      35.575 -20.527 -22.020  0.00  0.00    -0.079 HD
ENDROOT
BRANCH   2  11
ATOM      8  O   UNL     1      36.550 -22.169 -16.928  0.00  0.00    -0.406 OA
ATOM      9  O   UNL     1      38.084 -22.823 -15.325  0.00  0.00    -0.223 OA
ATOM     10  N   UNL     1      35.863 -23.516 -15.197  0.00  0.00    -0.287 N 
ATOM     11  C   UNL     1      34.345 -22.037 -18.023  0.00  0.00    +0.084 C 
ATOM     12  C   UNL     1      35.202 -22.475 -17.021  0.00  0.00    +0.179 A 
ATOM     13  C   UNL     1      33.008 -22.470 -17.920  0.00  0.00    +0.018 C 
ATOM     14  C   UNL     1      34.770 -23.283 -15.991  0.00  0.00    +0.098 A 
ATOM     15  C   UNL     1      32.578 -23.298 -16.863  0.00  0.00    +0.003 C 
ATOM     16  C   UNL     1      33.470 -23.716 -15.873  0.00  0.00    +0.020 C 
ATOM     17  C   UNL     1      36.938 -22.847 -15.757  0.00  0.00    +0.419 A 
ATOM     18  H   UNL     1      35.880 -24.061 -14.378  0.00  0.00    +0.172 HD
ENDBRANCH   2  11
BRANCH   1  19
ATOM     19  C   UNL     1      36.144 -18.583 -22.091  0.00  0.00    -0.050 C 
BRANCH  19  20
ATOM     20  C   UNL     1      35.136 -18.126 -23.111  0.00  0.00    -0.043 C 
ATOM     21  C   UNL     1      34.968 -16.767 -23.345  0.00  0.00    -0.006 C 
ATOM     22  C   UNL     1      34.389 -19.068 -23.804  0.00  0.00    -0.006 C 
ATOM     23  C   UNL     1      34.034 -16.344 -24.292  0.00  0.00    -0.000 C 
ATOM     24  C   UNL     1      33.456 -18.645 -24.750  0.00  0.00    -0.000 C 
ATOM     25  C   UNL     1      33.278 -17.283 -24.993  0.00  0.00    -0.000 C 
BRANCH  23  26
ATOM     26  C   UNL     1      33.851 -14.932 -24.546  0.00  0.00    -0.000 C 
ATOM     27  C   UNL     1      34.045 -14.007 -23.520  0.00  0.00    -0.000 C 
ATOM     28  C   UNL     1      33.480 -14.494 -25.818  0.00  0.00    -0.000 C 
ATOM     29  C   UNL     1      33.868 -12.645 -23.766  0.00  0.00    -0.000 C 
ATOM     30  C   UNL     1      33.303 -13.133 -26.063  0.00  0.00    -0.000 C 
ATOM     31  C   UNL     1      33.498 -12.208 -25.037  0.00  0.00    +0.000 C 
ENDBRANCH  23  26
ENDBRANCH  19  20
ENDBRANCH   1  19
TORSDOF 4
ENDMDL
MODEL 6
REMARK VINA RESULT:     -11.2      3.276     10.581
REMARK  Name = 208951
REMARK  4 active torsions:
REMARK  status: ('A' for Active; 'I' for Inactive)
REMARK    1  A    between atoms: N_1  and  C_19
REMARK    2  A    between atoms: N_2  and  C_11
REMARK    3  A    between atoms: C_19  and  C_20
REMARK    4  A    between atoms: C_23  and  C_26
REMARK                            x       y       z     vdW  Elec       q    Type
REMARK                         _______ _______ _______ _____ _____    ______ ____
ROOT
ATOM      1  N   UNL     1      32.127 -11.103 -21.240  0.00  0.00    +0.392 N 
ATOM      2  N   UNL     1      33.258 -13.651 -21.861  0.00  0.00    -0.309 N 
ATOM      3  C   UNL     1      32.639 -11.381 -22.587  0.00  0.00    -0.055 C 
ATOM      4  C   UNL     1      31.563 -12.326 -20.658  0.00  0.00    -0.055 C 
ATOM      5  C   UNL     1      33.735 -12.448 -22.550  0.00  0.00    +0.068 C 
ATOM      6  C   UNL     1      32.623 -13.426 -20.556  0.00  0.00    +0.068 C 
ATOM      7  H   UNL     1      32.899 -10.785 -20.653  0.00  0.00    -0.079 HD
ENDROOT
BRANCH   2  11
ATOM      8  O   UNL     1      33.288 -15.038 -24.458  0.00  0.00    -0.406 OA
ATOM      9  O   UNL     1      33.211 -15.986 -26.567  0.00  0.00    -0.223 OA
ATOM     10  N   UNL     1      34.339 -17.049 -24.826  0.00  0.00    -0.287 N 
ATOM     11  C   UNL     1      33.900 -14.876 -22.076  0.00  0.00    +0.084 C 
ATOM     12  C   UNL     1      33.902 -15.513 -23.311  0.00  0.00    +0.179 A 
ATOM     13  C   UNL     1      34.590 -15.541 -21.042  0.00  0.00    +0.018 C 
ATOM     14  C   UNL     1      34.538 -16.719 -23.511  0.00  0.00    +0.098 A 
ATOM     15  C   UNL     1      35.237 -16.775 -21.258  0.00  0.00    +0.003 C 
ATOM     16  C   UNL     1      35.216 -17.383 -22.515  0.00  0.00    +0.020 C 
ATOM     17  C   UNL     1      33.586 -16.038 -25.402  0.00  0.00    +0.419 A 
ATOM     18  H   UNL     1      34.671 -17.856 -25.279  0.00  0.00    +0.172 HD
ENDBRANCH   2  11
BRANCH   1  19
ATOM     19  C   UNL     1      31.120 -10.043 -21.282  0.00  0.00    -0.050 C 
BRANCH  19  20
ATOM     20  C   UNL     1      31.759  -8.685 -21.184  0.00  0.00    -0.043 C 
ATOM     21  C   UNL     1      32.207  -8.055 -22.338  0.00  0.00    -0.006 C 
ATOM     22  C   UNL     1      31.891  -8.078 -19.943  0.00  0.00    -0.006 C 
ATOM     23  C   UNL     1      32.798  -6.794 -22.247  0.00  0.00    -0.000 C 
ATOM     24  C   UNL     1      32.481  -6.818 -19.852  0.00  0.00    -0.000 C 
ATOM     25  C   UNL     1      32.935  -6.176 -21.004  0.00  0.00    -0.000 C 
BRANCH  23  26
ATOM     26  C   UNL     1      33.267  -6.127 -23.442  0.00  0.00    -0.000 C 
ATOM     27  C   UNL     1      32.438  -5.225 -24.109  0.00  0.00    -0.000 C 
ATOM     28  C   UNL     1      34.550  -6.385 -23.927  0.00  0.00    -0.000 C 
ATOM     29  C   UNL     1      32.891  -4.581 -25.260  0.00  0.00    -0.000 C 
ATOM     30  C   UNL     1      35.003  -5.741 -25.078  0.00  0.00    -0.000 C 
ATOM     31  C   UNL     1      34.173  -4.839 -25.745  0.00  0.00    +0.000 C 
ENDBRANCH  23  26
ENDBRANCH  19  20
ENDBRANCH   1  19
TORSDOF 4
ENDMDL
MODEL 7
REMARK VINA RESULT:     -11.1      2.927      5.632
REMARK  Name = 208951
REMARK  4 active torsions:
REMARK  status: ('A' for Active; 'I' for Inactive)
REMARK    1  A    between atoms: N_1  and  C_19
REMARK    2  A    between atoms: N_2  and  C_11
REMARK    3  A    between atoms: C_19  and  C_20
REMARK    4  A    between atoms: C_23  and  C_26
REMARK                            x       y       z     vdW  Elec       q    Type
REMARK                         _______ _______ _______ _____ _____    ______ ____
ROOT
ATOM      1  N   UNL     1      35.937 -20.526 -19.824  0.00  0.00    +0.392 N 
ATOM      2  N   UNL     1      35.231 -18.577 -21.790  0.00  0.00    -0.309 N 
ATOM      3  C   UNL     1      34.743 -20.710 -20.658  0.00  0.00    -0.055 C 
ATOM      4  C   UNL     1      36.980 -19.834 -20.592  0.00  0.00    -0.055 C 
ATOM      5  C   UNL     1      34.186 -19.364 -21.127  0.00  0.00    +0.068 C 
ATOM      6  C   UNL     1      36.498 -18.458 -21.057  0.00  0.00    +0.068 C 
ATOM      7  H   UNL     1      35.690 -19.954 -19.016  0.00  0.00    -0.079 HD
ENDROOT
BRANCH   2  11
ATOM      8  O   UNL     1      34.685 -15.825 -20.897  0.00  0.00    -0.406 OA
ATOM      9  O   UNL     1      34.292 -13.719 -20.022  0.00  0.00    -0.223 OA
ATOM     10  N   UNL     1      34.099 -14.110 -22.312  0.00  0.00    -0.287 N 
ATOM     11  C   UNL     1      34.874 -17.539 -22.659  0.00  0.00    +0.084 C 
ATOM     12  C   UNL     1      34.621 -16.247 -22.216  0.00  0.00    +0.179 A 
ATOM     13  C   UNL     1      34.751 -17.747 -24.048  0.00  0.00    +0.018 C 
ATOM     14  C   UNL     1      34.271 -15.233 -23.080  0.00  0.00    +0.098 A 
ATOM     15  C   UNL     1      34.391 -16.701 -24.923  0.00  0.00    +0.003 C 
ATOM     16  C   UNL     1      34.145 -15.415 -24.438  0.00  0.00    +0.020 C 
ATOM     17  C   UNL     1      34.348 -14.462 -20.995  0.00  0.00    +0.419 A 
ATOM     18  H   UNL     1      33.846 -13.217 -22.637  0.00  0.00    +0.172 HD
ENDBRANCH   2  11
BRANCH   1  19
ATOM     19  C   UNL     1      36.428 -21.814 -19.339  0.00  0.00    -0.050 C 
BRANCH  19  20
ATOM     20  C   UNL     1      36.140 -21.986 -17.872  0.00  0.00    -0.043 C 
ATOM     21  C   UNL     1      34.901 -22.465 -17.469  0.00  0.00    -0.006 C 
ATOM     22  C   UNL     1      37.118 -21.664 -16.940  0.00  0.00    -0.006 C 
ATOM     23  C   UNL     1      34.636 -22.625 -16.108  0.00  0.00    -0.000 C 
ATOM     24  C   UNL     1      36.853 -21.823 -15.581  0.00  0.00    -0.000 C 
ATOM     25  C   UNL     1      35.612 -22.304 -15.165  0.00  0.00    -0.000 C 
BRANCH  23  26
ATOM     26  C   UNL     1      33.349 -23.125 -15.676  0.00  0.00    -0.000 C 
ATOM     27  C   UNL     1      32.224 -22.947 -16.481  0.00  0.00    -0.000 C 
ATOM     28  C   UNL     1      33.232 -23.788 -14.453  0.00  0.00    -0.000 C 
ATOM     29  C   UNL     1      30.983 -23.429 -16.064  0.00  0.00    -0.000 C 
ATOM     30  C   UNL     1      31.992 -24.269 -14.036  0.00  0.00    -0.000 C 
ATOM     31  C   UNL     1      30.867 -24.091 -14.842  0.00  0.00    +0.000 C 
ENDBRANCH  23  26
ENDBRANCH  19  20
ENDBRANCH   1  19
TORSDOF 4
ENDMDL
MODEL 8
REMARK VINA RESULT:     -11.1      3.068      5.981
REMARK  Name = 208951
REMARK  4 active torsions:
REMARK  status: ('A' for Active; 'I' for Inactive)
REMARK    1  A    between atoms: N_1  and  C_19
REMARK    2  A    between atoms: N_2  and  C_11
REMARK    3  A    between atoms: C_19  and  C_20
REMARK    4  A    between atoms: C_23  and  C_26
REMARK                            x       y       z     vdW  Elec       q    Type
REMARK                         _______ _______ _______ _____ _____    ______ ____
ROOT
ATOM      1  N   UNL     1      35.873 -20.289 -19.713  0.00  0.00    +0.392 N 
ATOM      2  N   UNL     1      35.177 -18.528 -21.853  0.00  0.00    -0.309 N 
ATOM      3  C   UNL     1      34.729 -20.591 -20.583  0.00  0.00    -0.055 C 
ATOM      4  C   UNL     1      36.920 -19.608 -20.484  0.00  0.00    -0.055 C 
ATOM      5  C   UNL     1      34.137 -19.311 -21.178  0.00  0.00    +0.068 C 
ATOM      6  C   UNL     1      36.401 -18.295 -21.075  0.00  0.00    +0.068 C 
ATOM      7  H   UNL     1      35.562 -19.671 -18.963  0.00  0.00    -0.079 HD
ENDROOT
BRANCH   2  11
ATOM      8  O   UNL     1      34.695 -15.691 -21.229  0.00  0.00    -0.406 OA
ATOM      9  O   UNL     1      34.356 -13.502 -20.562  0.00  0.00    -0.223 OA
ATOM     10  N   UNL     1      34.106 -14.116 -22.797  0.00  0.00    -0.287 N 
ATOM     11  C   UNL     1      34.818 -17.576 -22.813  0.00  0.00    +0.084 C 
ATOM     12  C   UNL     1      34.595 -16.242 -22.497  0.00  0.00    +0.179 A 
ATOM     13  C   UNL     1      34.660 -17.919 -24.171  0.00  0.00    +0.018 C 
ATOM     14  C   UNL     1      34.242 -15.312 -23.451  0.00  0.00    +0.098 A 
ATOM     15  C   UNL     1      34.298 -16.960 -25.139  0.00  0.00    +0.003 C 
ATOM     16  C   UNL     1      34.084 -15.628 -24.781  0.00  0.00    +0.020 C 
ATOM     17  C   UNL     1      34.378 -14.339 -21.457  0.00  0.00    +0.419 A 
ATOM     18  H   UNL     1      33.859 -13.256 -23.204  0.00  0.00    +0.172 HD
ENDBRANCH   2  11
BRANCH   1  19
ATOM     19  C   UNL     1      36.395 -21.514 -19.109  0.00  0.00    -0.050 C 
BRANCH  19  20
ATOM     20  C   UNL     1      35.406 -22.105 -18.141  0.00  0.00    -0.043 C 
ATOM     21  C   UNL     1      35.812 -22.409 -16.848  0.00  0.00    -0.006 C 
ATOM     22  C   UNL     1      34.100 -22.338 -18.553  0.00  0.00    -0.006 C 
ATOM     23  C   UNL     1      34.894 -22.956 -15.951  0.00  0.00    -0.000 C 
ATOM     24  C   UNL     1      33.184 -22.885 -17.657  0.00  0.00    -0.000 C 
ATOM     25  C   UNL     1      33.580 -23.194 -16.356  0.00  0.00    -0.000 C 
BRANCH  23  26
ATOM     26  C   UNL     1      35.304 -23.276 -14.601  0.00  0.00    -0.000 C 
ATOM     27  C   UNL     1      34.397 -23.857 -13.716  0.00  0.00    -0.000 C 
ATOM     28  C   UNL     1      36.608 -23.002 -14.185  0.00  0.00    -0.000 C 
ATOM     29  C   UNL     1      34.792 -24.166 -12.414  0.00  0.00    -0.000 C 
ATOM     30  C   UNL     1      37.002 -23.310 -12.883  0.00  0.00    -0.000 C 
ATOM     31  C   UNL     1      36.095 -23.893 -11.998  0.00  0.00    +0.000 C 
ENDBRANCH  23  26
ENDBRANCH  19  20
ENDBRANCH   1  19
TORSDOF 4
ENDMDL
MODEL 9
REMARK VINA RESULT:     -11.0      3.385     10.492
REMARK  Name = 208951
REMARK  4 active torsions:
REMARK  status: ('A' for Active; 'I' for Inactive)
REMARK    1  A    between atoms: N_1  and  C_19
REMARK    2  A    between atoms: N_2  and  C_11
REMARK    3  A    between atoms: C_19  and  C_20
REMARK    4  A    between atoms: C_23  and  C_26
REMARK                            x       y       z     vdW  Elec       q    Type
REMARK                         _______ _______ _______ _____ _____    ______ ____
ROOT
ATOM      1  N   UNL     1      32.239 -11.250 -21.233  0.00  0.00    +0.392 N 
ATOM      2  N   UNL     1      33.068 -13.484 -22.807  0.00  0.00    -0.309 N 
ATOM      3  C   UNL     1      32.391 -11.119 -22.687  0.00  0.00    -0.055 C 
ATOM      4  C   UNL     1      31.781 -12.604 -20.898  0.00  0.00    -0.055 C 
ATOM      5  C   UNL     1      33.414 -12.122 -23.226  0.00  0.00    +0.068 C 
ATOM      6  C   UNL     1      32.784 -13.657 -21.377  0.00  0.00    +0.068 C 
ATOM      7  H   UNL     1      33.145 -11.090 -20.791  0.00  0.00    -0.079 HD
ENDROOT
BRANCH   2  11
ATOM      8  O   UNL     1      34.475 -15.730 -21.523  0.00  0.00    -0.406 OA
ATOM      9  O   UNL     1      35.552 -17.408 -20.351  0.00  0.00    -0.223 OA
ATOM     10  N   UNL     1      35.322 -17.534 -22.667  0.00  0.00    -0.287 N 
ATOM     11  C   UNL     1      33.582 -14.579 -23.512  0.00  0.00    +0.084 C 
ATOM     12  C   UNL     1      34.243 -15.628 -22.885  0.00  0.00    +0.179 A 
ATOM     13  C   UNL     1      33.457 -14.682 -24.912  0.00  0.00    +0.018 C 
ATOM     14  C   UNL     1      34.744 -16.702 -23.589  0.00  0.00    +0.098 A 
ATOM     15  C   UNL     1      33.975 -15.784 -25.622  0.00  0.00    +0.003 C 
ATOM     16  C   UNL     1      34.632 -16.820 -24.955  0.00  0.00    +0.020 C 
ATOM     17  C   UNL     1      35.163 -16.953 -21.420  0.00  0.00    +0.419 A 
ATOM     18  H   UNL     1      35.770 -18.390 -22.856  0.00  0.00    +0.172 HD
ENDBRANCH   2  11
BRANCH   1  19
ATOM     19  C   UNL     1      31.300 -10.251 -20.723  0.00  0.00    -0.050 C 
BRANCH  19  20
ATOM     20  C   UNL     1      31.922  -8.881 -20.708  0.00  0.00    -0.043 C 
ATOM     21  C   UNL     1      32.335  -8.303 -21.901  0.00  0.00    -0.006 C 
ATOM     22  C   UNL     1      32.075  -8.212 -19.501  0.00  0.00    -0.006 C 
ATOM     23  C   UNL     1      32.910  -7.032 -21.886  0.00  0.00    -0.000 C 
ATOM     24  C   UNL     1      32.650  -6.943 -19.486  0.00  0.00    -0.000 C 
ATOM     25  C   UNL     1      33.069  -6.353 -20.678  0.00  0.00    -0.000 C 
BRANCH  23  26
ATOM     26  C   UNL     1      33.343  -6.419 -23.123  0.00  0.00    -0.000 C 
ATOM     27  C   UNL     1      32.454  -5.639 -23.863  0.00  0.00    -0.000 C 
ATOM     28  C   UNL     1      34.650  -6.607 -23.576  0.00  0.00    -0.000 C 
ATOM     29  C   UNL     1      32.871  -5.047 -25.055  0.00  0.00    -0.000 C 
ATOM     30  C   UNL     1      35.066  -6.016 -24.768  0.00  0.00    -0.000 C 
ATOM     31  C   UNL     1      34.177  -5.235 -25.508  0.00  0.00    +0.000 C 
ENDBRANCH  23  26
ENDBRANCH  19  20
ENDBRANCH   1  19
TORSDOF 4
ENDMDL
