MODEL 1
REMARK VINA RESULT:     -13.1      0.000      0.000
REMARK  Name = 9800765
REMARK  5 active torsions:
REMARK  status: ('A' for Active; 'I' for Inactive)
REMARK    1  A    between atoms: C_3  and  C_17
REMARK    2  A    between atoms: C_5  and  N_8
REMARK    3  A    between atoms: N_8  and  C_14
REMARK    4  A    between atoms: C_17  and  C_20
REMARK    5  A    between atoms: C_23  and  C_26
REMARK                            x       y       z     vdW  Elec       q    Type
REMARK                         _______ _______ _______ _____ _____    ______ ____
ROOT
ATOM      1  O   UNL     1      37.285 -21.988 -16.362  0.00  0.00    -0.337 OA
ATOM      2  N   UNL     1      36.484 -22.054 -17.495  0.00  0.00    -0.079 NA
ATOM      3  C   UNL     1      35.316 -22.541 -17.065  0.00  0.00    +0.106 C 
ATOM      4  C   UNL     1      35.322 -22.798 -15.683  0.00  0.00    +0.076 C 
ATOM      5  C   UNL     1      36.578 -22.433 -15.299  0.00  0.00    +0.252 C 
ENDROOT
BRANCH   3   6
ATOM      6  C   UNL     1      34.212 -22.747 -18.016  0.00  0.00    +0.066 C 
ATOM      7  C   UNL     1      32.822 -22.862 -17.342  0.00  0.00    +0.011 C 
BRANCH   6   9
ATOM      8  F   UNL     1      36.880 -19.841 -20.856  0.00  0.00    -0.204 F 
ATOM      9  C   UNL     1      34.319 -21.656 -19.086  0.00  0.00    -0.015 C 
ATOM     10  C   UNL     1      35.569 -21.246 -19.483  0.00  0.00    +0.026 C 
ATOM     11  C   UNL     1      33.159 -21.129 -19.606  0.00  0.00    -0.004 C 
ATOM     12  C   UNL     1      34.511 -19.698 -21.005  0.00  0.00    +0.027 C 
ATOM     13  C   UNL     1      35.667 -20.252 -20.457  0.00  0.00    +0.140 C 
ATOM     14  C   UNL     1      33.257 -20.136 -20.580  0.00  0.00    +0.002 C 
BRANCH  12  15
ATOM     15  C   UNL     1      34.607 -18.668 -22.018  0.00  0.00    +0.002 C 
ATOM     16  C   UNL     1      34.221 -18.944 -23.330  0.00  0.00    +0.000 C 
ATOM     17  C   UNL     1      35.083 -17.401 -21.682  0.00  0.00    +0.000 C 
ATOM     18  C   UNL     1      34.312 -17.952 -24.306  0.00  0.00    +0.000 C 
ATOM     19  C   UNL     1      35.174 -16.409 -22.659  0.00  0.00    +0.000 C 
ATOM     20  C   UNL     1      34.789 -16.684 -23.971  0.00  0.00    +0.000 C 
ENDBRANCH  12  15
ENDBRANCH   6   9
ENDBRANCH   3   6
BRANCH   5  21
ATOM     21  N   UNL     1      37.145 -22.467 -14.060  0.00  0.00    -0.147 NA
BRANCH  21  29
ATOM     22  O   UNL     1      38.459 -27.104 -14.074  0.00  0.00    -0.350 OA
ATOM     23  N   UNL     1      37.382 -24.635 -13.305  0.00  0.00    -0.277 N 
ATOM     24  N   UNL     1      35.786 -23.396 -12.289  0.00  0.00    -0.373 N 
ATOM     25  C   UNL     1      36.686 -25.874 -12.965  0.00  0.00    +0.125 C 
ATOM     26  C   UNL     1      38.821 -24.772 -13.512  0.00  0.00    +0.125 C 
ATOM     27  C   UNL     1      37.040 -26.947 -13.988  0.00  0.00    +0.164 C 
ATOM     28  C   UNL     1      39.081 -25.893 -14.511  0.00  0.00    +0.164 C 
ATOM     29  C   UNL     1      36.773 -23.429 -13.252  0.00  0.00    +0.182 C 
ATOM     30  H   UNL     1      35.602 -24.196 -11.744  0.00  0.00    +0.158 HD
ATOM     31  H   UNL     1      35.263 -22.574 -12.147  0.00  0.00    +0.158 HD
ENDBRANCH  21  29
ENDBRANCH   5  21
TORSDOF 5
ENDMDL
MODEL 2
REMARK VINA RESULT:     -13.0      1.027      1.363
REMARK  Name = 9800765
REMARK  5 active torsions:
REMARK  status: ('A' for Active; 'I' for Inactive)
REMARK    1  A    between atoms: C_3  and  C_17
REMARK    2  A    between atoms: C_5  and  N_8
REMARK    3  A    between atoms: N_8  and  C_14
REMARK    4  A    between atoms: C_17  and  C_20
REMARK    5  A    between atoms: C_23  and  C_26
REMARK                            x       y       z     vdW  Elec       q    Type
REMARK                         _______ _______ _______ _____ _____    ______ ____
ROOT
ATOM      1  O   UNL     1      37.356 -22.281 -15.876  0.00  0.00    -0.337 OA
ATOM      2  N   UNL     1      36.563 -22.420 -17.009  0.00  0.00    -0.079 NA
ATOM      3  C   UNL     1      35.369 -22.806 -16.550  0.00  0.00    +0.106 C 
ATOM      4  C   UNL     1      35.350 -22.925 -15.149  0.00  0.00    +0.076 C 
ATOM      5  C   UNL     1      36.618 -22.585 -14.785  0.00  0.00    +0.252 C 
ENDROOT
BRANCH   3   6
ATOM      6  C   UNL     1      34.264 -23.050 -17.491  0.00  0.00    +0.066 C 
ATOM      7  C   UNL     1      32.876 -23.150 -16.812  0.00  0.00    +0.011 C 
BRANCH   6   9
ATOM      8  F   UNL     1      32.168 -20.059 -20.698  0.00  0.00    -0.204 F 
ATOM      9  C   UNL     1      34.364 -21.996 -18.598  0.00  0.00    -0.015 C 
ATOM     10  C   UNL     1      33.202 -21.507 -19.145  0.00  0.00    +0.026 C 
ATOM     11  C   UNL     1      35.612 -21.582 -19.001  0.00  0.00    -0.004 C 
ATOM     12  C   UNL     1      34.543 -20.105 -20.585  0.00  0.00    +0.027 C 
ATOM     13  C   UNL     1      33.293 -20.547 -20.153  0.00  0.00    +0.140 C 
ATOM     14  C   UNL     1      35.703 -20.623 -20.009  0.00  0.00    +0.002 C 
BRANCH  12  15
ATOM     15  C   UNL     1      34.642 -19.109 -21.630  0.00  0.00    +0.002 C 
ATOM     16  C   UNL     1      34.224 -19.414 -22.926  0.00  0.00    +0.000 C 
ATOM     17  C   UNL     1      35.153 -17.844 -21.342  0.00  0.00    +0.000 C 
ATOM     18  C   UNL     1      34.318 -18.454 -23.933  0.00  0.00    +0.000 C 
ATOM     19  C   UNL     1      35.247 -16.884 -22.350  0.00  0.00    +0.000 C 
ATOM     20  C   UNL     1      34.831 -17.189 -23.646  0.00  0.00    +0.000 C 
ENDBRANCH  12  15
ENDBRANCH   6   9
ENDBRANCH   3   6
BRANCH   5  21
ATOM     21  N   UNL     1      37.171 -22.525 -13.541  0.00  0.00    -0.147 NA
BRANCH  21  29
ATOM     22  O   UNL     1      38.394 -27.153 -14.088  0.00  0.00    -0.350 OA
ATOM     23  N   UNL     1      37.523 -24.734 -12.976  0.00  0.00    -0.277 N 
ATOM     24  N   UNL     1      36.176 -23.557 -11.594  0.00  0.00    -0.373 N 
ATOM     25  C   UNL     1      36.892 -25.990 -12.580  0.00  0.00    +0.125 C 
ATOM     26  C   UNL     1      38.891 -24.860 -13.472  0.00  0.00    +0.125 C 
ATOM     27  C   UNL     1      37.023 -27.000 -13.714  0.00  0.00    +0.164 C 
ATOM     28  C   UNL     1      38.934 -25.919 -14.567  0.00  0.00    +0.164 C 
ATOM     29  C   UNL     1      36.953 -23.533 -12.733  0.00  0.00    +0.182 C 
ATOM     30  H   UNL     1      36.093 -24.388 -11.072  0.00  0.00    +0.158 HD
ATOM     31  H   UNL     1      35.702 -22.744 -11.303  0.00  0.00    +0.158 HD
ENDBRANCH  21  29
ENDBRANCH   5  21
TORSDOF 5
ENDMDL
MODEL 3
REMARK VINA RESULT:     -12.0     10.104     13.956
REMARK  Name = 9800765
REMARK  5 active torsions:
REMARK  status: ('A' for Active; 'I' for Inactive)
REMARK    1  A    between atoms: C_3  and  C_17
REMARK    2  A    between atoms: C_5  and  N_8
REMARK    3  A    between atoms: N_8  and  C_14
REMARK    4  A    between atoms: C_17  and  C_20
REMARK    5  A    between atoms: C_23  and  C_26
REMARK                            x       y       z     vdW  Elec       q    Type
REMARK                         _______ _______ _______ _____ _____    ______ ____
ROOT
ATOM      1  O   UNL     1      31.970 -12.230 -20.155  0.00  0.00    -0.337 OA
ATOM      2  N   UNL     1      31.789 -10.996 -19.543  0.00  0.00    -0.079 NA
ATOM      3  C   UNL     1      31.691 -10.123 -20.549  0.00  0.00    +0.106 C 
ATOM      4  C   UNL     1      31.802 -10.742 -21.806  0.00  0.00    +0.076 C 
ATOM      5  C   UNL     1      31.975 -12.059 -21.496  0.00  0.00    +0.252 C 
ENDROOT
BRANCH   3   6
ATOM      6  C   UNL     1      31.489  -8.693 -20.264  0.00  0.00    +0.066 C 
ATOM      7  C   UNL     1      31.989  -8.259 -18.864  0.00  0.00    +0.011 C 
BRANCH   6   9
ATOM      8  F   UNL     1      35.328  -6.899 -22.645  0.00  0.00    -0.204 F 
ATOM      9  C   UNL     1      32.087  -7.903 -21.432  0.00  0.00    -0.015 C 
ATOM     10  C   UNL     1      33.452  -7.763 -21.500  0.00  0.00    +0.026 C 
ATOM     11  C   UNL     1      31.233  -7.364 -22.367  0.00  0.00    -0.004 C 
ATOM     12  C   UNL     1      33.159  -6.485 -23.529  0.00  0.00    +0.027 C 
ATOM     13  C   UNL     1      33.997  -7.044 -22.564  0.00  0.00    +0.140 C 
ATOM     14  C   UNL     1      31.777  -6.645 -23.430  0.00  0.00    +0.002 C 
BRANCH  12  15
ATOM     15  C   UNL     1      33.719  -5.739 -24.635  0.00  0.00    +0.002 C 
ATOM     16  C   UNL     1      32.932  -4.812 -25.320  0.00  0.00    +0.000 C 
ATOM     17  C   UNL     1      35.044  -5.946 -25.017  0.00  0.00    +0.000 C 
ATOM     18  C   UNL     1      33.471  -4.092 -26.385  0.00  0.00    +0.000 C 
ATOM     19  C   UNL     1      35.583  -5.225 -26.083  0.00  0.00    +0.000 C 
ATOM     20  C   UNL     1      34.796  -4.299 -26.768  0.00  0.00    +0.000 C 
ENDBRANCH  12  15
ENDBRANCH   6   9
ENDBRANCH   3   6
BRANCH   5  21
ATOM     21  N   UNL     1      32.138 -13.126 -22.327  0.00  0.00    -0.147 NA
BRANCH  21  29
ATOM     22  O   UNL     1      34.198 -15.817 -25.752  0.00  0.00    -0.350 OA
ATOM     23  N   UNL     1      33.785 -14.306 -23.430  0.00  0.00    -0.277 N 
ATOM     24  N   UNL     1      34.153 -13.899 -21.237  0.00  0.00    -0.373 N 
ATOM     25  C   UNL     1      34.654 -15.480 -23.395  0.00  0.00    +0.125 C 
ATOM     26  C   UNL     1      33.645 -13.682 -24.743  0.00  0.00    +0.125 C 
ATOM     27  C   UNL     1      34.220 -16.461 -24.477  0.00  0.00    +0.164 C 
ATOM     28  C   UNL     1      33.255 -14.743 -25.766  0.00  0.00    +0.164 C 
ATOM     29  C   UNL     1      33.296 -13.737 -22.306  0.00  0.00    +0.182 C 
ATOM     30  H   UNL     1      35.002 -14.384 -21.355  0.00  0.00    +0.158 HD
ATOM     31  H   UNL     1      33.916 -13.531 -20.355  0.00  0.00    +0.158 HD
ENDBRANCH  21  29
ENDBRANCH   5  21
TORSDOF 5
ENDMDL
MODEL 4
REMARK VINA RESULT:     -11.9      1.923      2.824
REMARK  Name = 9800765
REMARK  5 active torsions:
REMARK  status: ('A' for Active; 'I' for Inactive)
REMARK    1  A    between atoms: C_3  and  C_17
REMARK    2  A    between atoms: C_5  and  N_8
REMARK    3  A    between atoms: N_8  and  C_14
REMARK    4  A    between atoms: C_17  and  C_20
REMARK    5  A    between atoms: C_23  and  C_26
REMARK                            x       y       z     vdW  Elec       q    Type
REMARK                         _______ _______ _______ _____ _____    ______ ____
ROOT
ATOM      1  O   UNL     1      36.106 -23.480 -14.705  0.00  0.00    -0.337 OA
ATOM      2  N   UNL     1      35.076 -22.829 -15.372  0.00  0.00    -0.079 NA
ATOM      3  C   UNL     1      34.375 -23.803 -15.961  0.00  0.00    +0.106 C 
ATOM      4  C   UNL     1      34.912 -25.076 -15.703  0.00  0.00    +0.076 C 
ATOM      5  C   UNL     1      35.991 -24.811 -14.913  0.00  0.00    +0.252 C 
ENDROOT
BRANCH   3   6
ATOM      6  C   UNL     1      33.190 -23.470 -16.766  0.00  0.00    +0.066 C 
ATOM      7  C   UNL     1      31.987 -22.967 -15.930  0.00  0.00    +0.011 C 
BRANCH   6   9
ATOM      8  F   UNL     1      36.696 -21.517 -19.509  0.00  0.00    -0.204 F 
ATOM      9  C   UNL     1      33.643 -22.517 -17.877  0.00  0.00    -0.015 C 
ATOM     10  C   UNL     1      34.981 -22.456 -18.185  0.00  0.00    +0.026 C 
ATOM     11  C   UNL     1      32.693 -21.759 -18.521  0.00  0.00    -0.004 C 
ATOM     12  C   UNL     1      34.456 -20.806 -19.869  0.00  0.00    +0.027 C 
ATOM     13  C   UNL     1      35.394 -21.588 -19.196  0.00  0.00    +0.140 C 
ATOM     14  C   UNL     1      33.105 -20.891 -19.531  0.00  0.00    +0.002 C 
BRANCH  12  15
ATOM     15  C   UNL     1      34.879 -19.905 -20.920  0.00  0.00    +0.002 C 
ATOM     16  C   UNL     1      36.118 -19.269 -20.835  0.00  0.00    +0.000 C 
ATOM     17  C   UNL     1      34.049 -19.674 -22.017  0.00  0.00    +0.000 C 
ATOM     18  C   UNL     1      36.526 -18.402 -21.847  0.00  0.00    +0.000 C 
ATOM     19  C   UNL     1      34.459 -18.806 -23.029  0.00  0.00    +0.000 C 
ATOM     20  C   UNL     1      35.697 -18.169 -22.945  0.00  0.00    +0.000 C 
ENDBRANCH  12  15
ENDBRANCH   6   9
ENDBRANCH   3   6
BRANCH   5  21
ATOM     21  N   UNL     1      36.889 -25.675 -14.361  0.00  0.00    -0.147 NA
BRANCH  21  29
ATOM     22  O   UNL     1      36.339 -23.836  -9.942  0.00  0.00    -0.350 OA
ATOM     23  N   UNL     1      37.481 -24.862 -12.285  0.00  0.00    -0.277 N 
ATOM     24  N   UNL     1      39.118 -24.897 -13.844  0.00  0.00    -0.373 N 
ATOM     25  C   UNL     1      38.144 -23.781 -11.560  0.00  0.00    +0.125 C 
ATOM     26  C   UNL     1      36.599 -25.698 -11.475  0.00  0.00    +0.125 C 
ATOM     27  C   UNL     1      37.103 -22.977 -10.790  0.00  0.00    +0.164 C 
ATOM     28  C   UNL     1      35.626 -24.810 -10.709  0.00  0.00    +0.164 C 
ATOM     29  C   UNL     1      37.797 -25.174 -13.562  0.00  0.00    +0.182 C 
ATOM     30  H   UNL     1      39.701 -24.516 -13.147  0.00  0.00    +0.158 HD
ATOM     31  H   UNL     1      39.479 -25.077 -14.742  0.00  0.00    +0.158 HD
ENDBRANCH  21  29
ENDBRANCH   5  21
TORSDOF 5
ENDMDL
MODEL 5
REMARK VINA RESULT:     -11.9      3.738      6.824
REMARK  Name = 9800765
REMARK  5 active torsions:
REMARK  status: ('A' for Active; 'I' for Inactive)
REMARK    1  A    between atoms: C_3  and  C_17
REMARK    2  A    between atoms: C_5  and  N_8
REMARK    3  A    between atoms: N_8  and  C_14
REMARK    4  A    between atoms: C_17  and  C_20
REMARK    5  A    between atoms: C_23  and  C_26
REMARK                            x       y       z     vdW  Elec       q    Type
REMARK                         _______ _______ _______ _____ _____    ______ ____
ROOT
ATOM      1  O   UNL     1      35.665 -18.840 -20.412  0.00  0.00    -0.337 OA
ATOM      2  N   UNL     1      35.874 -17.954 -21.461  0.00  0.00    -0.079 NA
ATOM      3  C   UNL     1      34.971 -18.293 -22.385  0.00  0.00    +0.106 C 
ATOM      4  C   UNL     1      34.172 -19.375 -21.978  0.00  0.00    +0.076 C 
ATOM      5  C   UNL     1      34.651 -19.673 -20.737  0.00  0.00    +0.252 C 
ENDROOT
BRANCH   3   6
ATOM      6  C   UNL     1      34.904 -17.549 -23.654  0.00  0.00    +0.066 C 
ATOM      7  C   UNL     1      34.142 -18.297 -24.776  0.00  0.00    +0.011 C 
BRANCH   6   9
ATOM      8  F   UNL     1      34.350 -13.814 -20.593  0.00  0.00    -0.204 F 
ATOM      9  C   UNL     1      34.368 -16.149 -23.337  0.00  0.00    -0.015 C 
ATOM     10  C   UNL     1      34.610 -15.620 -22.092  0.00  0.00    +0.026 C 
ATOM     11  C   UNL     1      33.667 -15.478 -24.311  0.00  0.00    -0.004 C 
ATOM     12  C   UNL     1      33.408 -13.637 -22.769  0.00  0.00    +0.027 C 
ATOM     13  C   UNL     1      34.123 -14.345 -21.804  0.00  0.00    +0.140 C 
ATOM     14  C   UNL     1      33.180 -14.204 -24.023  0.00  0.00    +0.002 C 
BRANCH  12  15
ATOM     15  C   UNL     1      32.902 -12.314 -22.475  0.00  0.00    +0.002 C 
ATOM     16  C   UNL     1      31.927 -12.144 -21.491  0.00  0.00    +0.000 C 
ATOM     17  C   UNL     1      33.388 -11.209 -23.174  0.00  0.00    +0.000 C 
ATOM     18  C   UNL     1      31.440 -10.869 -21.206  0.00  0.00    +0.000 C 
ATOM     19  C   UNL     1      32.900  -9.934 -22.889  0.00  0.00    +0.000 C 
ATOM     20  C   UNL     1      31.925  -9.763 -21.905  0.00  0.00    +0.000 C 
ENDBRANCH  12  15
ENDBRANCH   6   9
ENDBRANCH   3   6
BRANCH   5  21
ATOM     21  N   UNL     1      34.249 -20.642 -19.867  0.00  0.00    -0.147 NA
BRANCH  21  29
ATOM     22  O   UNL     1      33.894 -23.481 -15.990  0.00  0.00    -0.350 OA
ATOM     23  N   UNL     1      34.856 -22.225 -18.302  0.00  0.00    -0.277 N 
ATOM     24  N   UNL     1      36.539 -21.341 -19.525  0.00  0.00    -0.373 N 
ATOM     25  C   UNL     1      35.771 -22.550 -17.211  0.00  0.00    +0.125 C 
ATOM     26  C   UNL     1      33.653 -23.052 -18.365  0.00  0.00    +0.125 C 
ATOM     27  C   UNL     1      35.000 -22.580 -15.897  0.00  0.00    +0.164 C 
ATOM     28  C   UNL     1      32.975 -23.059 -17.001  0.00  0.00    +0.164 C 
ATOM     29  C   UNL     1      35.181 -21.351 -19.280  0.00  0.00    +0.182 C 
ATOM     30  H   UNL     1      37.137 -21.927 -19.008  0.00  0.00    +0.158 HD
ATOM     31  H   UNL     1      36.911 -20.746 -20.216  0.00  0.00    +0.158 HD
ENDBRANCH  21  29
ENDBRANCH   5  21
TORSDOF 5
ENDMDL
MODEL 6
REMARK VINA RESULT:     -11.7      9.545     13.511
REMARK  Name = 9800765
REMARK  5 active torsions:
REMARK  status: ('A' for Active; 'I' for Inactive)
REMARK    1  A    between atoms: C_3  and  C_17
REMARK    2  A    between atoms: C_5  and  N_8
REMARK    3  A    between atoms: N_8  and  C_14
REMARK    4  A    between atoms: C_17  and  C_20
REMARK    5  A    between atoms: C_23  and  C_26
REMARK                            x       y       z     vdW  Elec       q    Type
REMARK                         _______ _______ _______ _____ _____    ______ ____
ROOT
ATOM      1  O   UNL     1      31.956 -13.233 -20.763  0.00  0.00    -0.337 OA
ATOM      2  N   UNL     1      31.678 -12.158 -19.928  0.00  0.00    -0.079 NA
ATOM      3  C   UNL     1      31.768 -11.080 -20.711  0.00  0.00    +0.106 C 
ATOM      4  C   UNL     1      32.097 -11.410 -22.037  0.00  0.00    +0.076 C 
ATOM      5  C   UNL     1      32.201 -12.769 -22.009  0.00  0.00    +0.252 C 
ENDROOT
BRANCH   3   6
ATOM      6  C   UNL     1      31.529  -9.741 -20.148  0.00  0.00    +0.066 C 
ATOM      7  C   UNL     1      32.139  -9.539 -18.738  0.00  0.00    +0.011 C 
BRANCH   6   9
ATOM      8  F   UNL     1      30.966  -7.553 -24.451  0.00  0.00    -0.204 F 
ATOM      9  C   UNL     1      31.978  -8.716 -21.194  0.00  0.00    -0.015 C 
ATOM     10  C   UNL     1      31.254  -8.606 -22.357  0.00  0.00    +0.026 C 
ATOM     11  C   UNL     1      33.087  -7.948 -20.929  0.00  0.00    -0.004 C 
ATOM     12  C   UNL     1      32.783  -6.878 -23.073  0.00  0.00    +0.027 C 
ATOM     13  C   UNL     1      31.662  -7.673 -23.311  0.00  0.00    +0.140 C 
ATOM     14  C   UNL     1      33.495  -7.016 -21.882  0.00  0.00    +0.002 C 
BRANCH  12  15
ATOM     15  C   UNL     1      33.209  -5.908 -24.058  0.00  0.00    +0.002 C 
ATOM     16  C   UNL     1      32.421  -4.786 -24.317  0.00  0.00    +0.000 C 
ATOM     17  C   UNL     1      34.407  -6.092 -24.747  0.00  0.00    +0.000 C 
ATOM     18  C   UNL     1      32.832  -3.849 -25.265  0.00  0.00    +0.000 C 
ATOM     19  C   UNL     1      34.818  -5.155 -25.695  0.00  0.00    +0.000 C 
ATOM     20  C   UNL     1      34.030  -4.034 -25.955  0.00  0.00    +0.000 C 
ENDBRANCH  12  15
ENDBRANCH   6   9
ENDBRANCH   3   6
BRANCH   5  21
ATOM     21  N   UNL     1      32.502 -13.632 -23.020  0.00  0.00    -0.147 NA
BRANCH  21  29
ATOM     22  O   UNL     1      34.003 -17.627 -25.257  0.00  0.00    -0.350 OA
ATOM     23  N   UNL     1      33.971 -15.210 -23.842  0.00  0.00    -0.277 N 
ATOM     24  N   UNL     1      34.778 -13.841 -22.233  0.00  0.00    -0.373 N 
ATOM     25  C   UNL     1      34.941 -16.246 -23.498  0.00  0.00    +0.125 C 
ATOM     26  C   UNL     1      33.475 -15.259 -25.215  0.00  0.00    +0.125 C 
ATOM     27  C   UNL     1      34.377 -17.610 -23.878  0.00  0.00    +0.164 C 
ATOM     28  C   UNL     1      32.976 -16.666 -25.520  0.00  0.00    +0.164 C 
ATOM     29  C   UNL     1      33.691 -14.179 -23.013  0.00  0.00    +0.182 C 
ATOM     30  H   UNL     1      35.624 -14.338 -22.325  0.00  0.00    +0.158 HD
ATOM     31  H   UNL     1      34.709 -13.105 -21.583  0.00  0.00    +0.158 HD
ENDBRANCH  21  29
ENDBRANCH   5  21
TORSDOF 5
ENDMDL
MODEL 7
REMARK VINA RESULT:     -11.3      6.706     11.898
REMARK  Name = 9800765
REMARK  5 active torsions:
REMARK  status: ('A' for Active; 'I' for Inactive)
REMARK    1  A    between atoms: C_3  and  C_17
REMARK    2  A    between atoms: C_5  and  N_8
REMARK    3  A    between atoms: N_8  and  C_14
REMARK    4  A    between atoms: C_17  and  C_20
REMARK    5  A    between atoms: C_23  and  C_26
REMARK                            x       y       z     vdW  Elec       q    Type
REMARK                         _______ _______ _______ _____ _____    ______ ____
ROOT
ATOM      1  O   UNL     1      34.309 -13.242 -22.185  0.00  0.00    -0.337 OA
ATOM      2  N   UNL     1      34.729 -14.499 -22.604  0.00  0.00    -0.079 NA
ATOM      3  C   UNL     1      34.025 -14.745 -23.713  0.00  0.00    +0.106 C 
ATOM      4  C   UNL     1      33.156 -13.690 -24.038  0.00  0.00    +0.076 C 
ATOM      5  C   UNL     1      33.377 -12.780 -23.048  0.00  0.00    +0.252 C 
ENDROOT
BRANCH   3   6
ATOM      6  C   UNL     1      34.218 -16.011 -24.438  0.00  0.00    +0.066 C 
ATOM      7  C   UNL     1      35.334 -15.954 -25.510  0.00  0.00    +0.011 C 
BRANCH   6   9
ATOM      8  F   UNL     1      35.667 -17.505 -20.045  0.00  0.00    -0.204 F 
ATOM      9  C   UNL     1      34.389 -17.117 -23.392  0.00  0.00    -0.015 C 
ATOM     10  C   UNL     1      34.958 -16.795 -22.183  0.00  0.00    +0.026 C 
ATOM     11  C   UNL     1      33.967 -18.389 -23.704  0.00  0.00    -0.004 C 
ATOM     12  C   UNL     1      34.696 -19.102 -21.515  0.00  0.00    +0.027 C 
ATOM     13  C   UNL     1      35.113 -17.802 -21.230  0.00  0.00    +0.140 C 
ATOM     14  C   UNL     1      34.123 -19.395 -22.752  0.00  0.00    +0.002 C 
BRANCH  12  15
ATOM     15  C   UNL     1      34.854 -20.150 -20.529  0.00  0.00    +0.002 C 
ATOM     16  C   UNL     1      36.132 -20.555 -20.143  0.00  0.00    +0.000 C 
ATOM     17  C   UNL     1      33.730 -20.753 -19.965  0.00  0.00    +0.000 C 
ATOM     18  C   UNL     1      36.285 -21.564 -19.192  0.00  0.00    +0.000 C 
ATOM     19  C   UNL     1      33.884 -21.762 -19.015  0.00  0.00    +0.000 C 
ATOM     20  C   UNL     1      35.162 -22.169 -18.628  0.00  0.00    +0.000 C 
ENDBRANCH  12  15
ENDBRANCH   6   9
ENDBRANCH   3   6
BRANCH   5  21
ATOM     21  N   UNL     1      32.805 -11.558 -22.856  0.00  0.00    -0.147 NA
BRANCH  21  29
ATOM     22  O   UNL     1      31.789  -7.547 -20.387  0.00  0.00    -0.350 OA
ATOM     23  N   UNL     1      31.730 -10.175 -21.354  0.00  0.00    -0.277 N 
ATOM     24  N   UNL     1      31.435 -12.396 -21.048  0.00  0.00    -0.373 N 
ATOM     25  C   UNL     1      31.460  -9.908 -19.944  0.00  0.00    +0.125 C 
ATOM     26  C   UNL     1      31.461  -9.058 -22.256  0.00  0.00    +0.125 C 
ATOM     27  C   UNL     1      32.169  -8.625 -19.528  0.00  0.00    +0.164 C 
ATOM     28  C   UNL     1      32.170  -7.812 -21.739  0.00  0.00    +0.164 C 
ATOM     29  C   UNL     1      32.031 -11.412 -21.810  0.00  0.00    +0.182 C 
ATOM     30  H   UNL     1      30.872 -12.150 -20.279  0.00  0.00    +0.158 HD
ATOM     31  H   UNL     1      31.574 -13.345 -21.273  0.00  0.00    +0.158 HD
ENDBRANCH  21  29
ENDBRANCH   5  21
TORSDOF 5
ENDMDL
MODEL 8
REMARK VINA RESULT:     -11.2      4.165      9.555
REMARK  Name = 9800765
REMARK  5 active torsions:
REMARK  status: ('A' for Active; 'I' for Inactive)
REMARK    1  A    between atoms: C_3  and  C_17
REMARK    2  A    between atoms: C_5  and  N_8
REMARK    3  A    between atoms: N_8  and  C_14
REMARK    4  A    between atoms: C_17  and  C_20
REMARK    5  A    between atoms: C_23  and  C_26
REMARK                            x       y       z     vdW  Elec       q    Type
REMARK                         _______ _______ _______ _____ _____    ______ ____
ROOT
ATOM      1  O   UNL     1      36.199 -19.362 -20.555  0.00  0.00    -0.337 OA
ATOM      2  N   UNL     1      36.834 -20.140 -19.595  0.00  0.00    -0.079 NA
ATOM      3  C   UNL     1      35.896 -20.987 -19.161  0.00  0.00    +0.106 C 
ATOM      4  C   UNL     1      34.662 -20.792 -19.805  0.00  0.00    +0.076 C 
ATOM      5  C   UNL     1      34.913 -19.765 -20.665  0.00  0.00    +0.252 C 
ENDROOT
BRANCH   3   6
ATOM      6  C   UNL     1      36.224 -21.975 -18.121  0.00  0.00    +0.066 C 
ATOM      7  C   UNL     1      37.317 -21.502 -17.131  0.00  0.00    +0.011 C 
BRANCH   6   9
ATOM      8  F   UNL     1      33.716 -23.499 -14.246  0.00  0.00    -0.204 F 
ATOM      9  C   UNL     1      34.908 -22.406 -17.466  0.00  0.00    -0.015 C 
ATOM     10  C   UNL     1      34.920 -22.759 -16.138  0.00  0.00    +0.026 C 
ATOM     11  C   UNL     1      33.767 -22.423 -18.233  0.00  0.00    -0.004 C 
ATOM     12  C   UNL     1      32.547 -23.180 -16.291  0.00  0.00    +0.027 C 
ATOM     13  C   UNL     1      33.722 -23.151 -15.541  0.00  0.00    +0.140 C 
ATOM     14  C   UNL     1      32.569 -22.816 -17.637  0.00  0.00    +0.002 C 
BRANCH  12  15
ATOM     15  C   UNL     1      31.300 -23.585 -15.677  0.00  0.00    +0.002 C 
ATOM     16  C   UNL     1      30.127 -22.881 -15.952  0.00  0.00    +0.000 C 
ATOM     17  C   UNL     1      31.271 -24.678 -14.811  0.00  0.00    +0.000 C 
ATOM     18  C   UNL     1      28.926 -23.271 -15.361  0.00  0.00    +0.000 C 
ATOM     19  C   UNL     1      30.069 -25.067 -14.221  0.00  0.00    +0.000 C 
ATOM     20  C   UNL     1      28.896 -24.364 -14.494  0.00  0.00    +0.000 C 
ENDBRANCH  12  15
ENDBRANCH   6   9
ENDBRANCH   3   6
BRANCH   5  21
ATOM     21  N   UNL     1      34.073 -19.154 -21.548  0.00  0.00    -0.147 NA
BRANCH  21  29
ATOM     22  O   UNL     1      34.284 -15.036 -24.041  0.00  0.00    -0.350 OA
ATOM     23  N   UNL     1      34.657 -17.693 -23.235  0.00  0.00    -0.277 N 
ATOM     24  N   UNL     1      34.888 -19.893 -23.700  0.00  0.00    -0.373 N 
ATOM     25  C   UNL     1      34.512 -17.372 -24.653  0.00  0.00    +0.125 C 
ATOM     26  C   UNL     1      35.152 -16.600 -22.402  0.00  0.00    +0.125 C 
ATOM     27  C   UNL     1      33.694 -16.094 -24.799  0.00  0.00    +0.164 C 
ATOM     28  C   UNL     1      34.306 -15.357 -22.648  0.00  0.00    +0.164 C 
ATOM     29  C   UNL     1      34.517 -18.952 -22.763  0.00  0.00    +0.182 C 
ATOM     30  H   UNL     1      35.207 -19.607 -24.587  0.00  0.00    +0.158 HD
ATOM     31  H   UNL     1      34.834 -20.853 -23.484  0.00  0.00    +0.158 HD
ENDBRANCH  21  29
ENDBRANCH   5  21
TORSDOF 5
ENDMDL
MODEL 9
REMARK VINA RESULT:     -10.9      1.804      2.312
REMARK  Name = 9800765
REMARK  5 active torsions:
REMARK  status: ('A' for Active; 'I' for Inactive)
REMARK    1  A    between atoms: C_3  and  C_17
REMARK    2  A    between atoms: C_5  and  N_8
REMARK    3  A    between atoms: N_8  and  C_14
REMARK    4  A    between atoms: C_17  and  C_20
REMARK    5  A    between atoms: C_23  and  C_26
REMARK                            x       y       z     vdW  Elec       q    Type
REMARK                         _______ _______ _______ _____ _____    ______ ____
ROOT
ATOM      1  O   UNL     1      35.187 -23.533 -14.399  0.00  0.00    -0.337 OA
ATOM      2  N   UNL     1      34.247 -22.836 -15.149  0.00  0.00    -0.079 NA
ATOM      3  C   UNL     1      33.703 -23.749 -15.957  0.00  0.00    +0.106 C 
ATOM      4  C   UNL     1      34.254 -25.028 -15.765  0.00  0.00    +0.076 C 
ATOM      5  C   UNL     1      35.175 -24.830 -14.779  0.00  0.00    +0.252 C 
ENDROOT
BRANCH   3   6
ATOM      6  C   UNL     1      32.649 -23.355 -16.906  0.00  0.00    +0.066 C 
ATOM      7  C   UNL     1      31.384 -22.774 -16.229  0.00  0.00    +0.011 C 
BRANCH   6   9
ATOM      8  F   UNL     1      36.571 -21.712 -19.261  0.00  0.00    -0.204 F 
ATOM      9  C   UNL     1      33.294 -22.441 -17.953  0.00  0.00    -0.015 C 
ATOM     10  C   UNL     1      34.656 -22.499 -18.126  0.00  0.00    +0.026 C 
ATOM     11  C   UNL     1      32.484 -21.598 -18.678  0.00  0.00    -0.004 C 
ATOM     12  C   UNL     1      34.450 -20.801 -19.832  0.00  0.00    +0.027 C 
ATOM     13  C   UNL     1      35.243 -21.667 -19.080  0.00  0.00    +0.140 C 
ATOM     14  C   UNL     1      33.071 -20.766 -19.631  0.00  0.00    +0.002 C 
BRANCH  12  15
ATOM     15  C   UNL     1      35.054 -19.936 -20.823  0.00  0.00    +0.002 C 
ATOM     16  C   UNL     1      34.334 -19.572 -21.961  0.00  0.00    +0.000 C 
ATOM     17  C   UNL     1      36.355 -19.467 -20.641  0.00  0.00    +0.000 C 
ATOM     18  C   UNL     1      34.914 -18.739 -22.916  0.00  0.00    +0.000 C 
ATOM     19  C   UNL     1      36.935 -18.633 -21.597  0.00  0.00    +0.000 C 
ATOM     20  C   UNL     1      36.216 -18.269 -22.735  0.00  0.00    +0.000 C 
ENDBRANCH  12  15
ENDBRANCH   6   9
ENDBRANCH   3   6
BRANCH   5  21
ATOM     21  N   UNL     1      36.013 -25.729 -14.190  0.00  0.00    -0.147 NA
BRANCH  21  29
ATOM     22  O   UNL     1      40.783 -25.073 -14.382  0.00  0.00    -0.350 OA
ATOM     23  N   UNL     1      38.109 -25.003 -13.552  0.00  0.00    -0.277 N 
ATOM     24  N   UNL     1      36.532 -25.038 -11.932  0.00  0.00    -0.373 N 
ATOM     25  C   UNL     1      39.178 -25.130 -12.565  0.00  0.00    +0.125 C 
ATOM     26  C   UNL     1      38.501 -24.371 -14.809  0.00  0.00    +0.125 C 
ATOM     27  C   UNL     1      40.386 -25.794 -13.213  0.00  0.00    +0.164 C 
ATOM     28  C   UNL     1      39.739 -25.068 -15.359  0.00  0.00    +0.164 C 
ATOM     29  C   UNL     1      36.819 -25.283 -13.259  0.00  0.00    +0.182 C 
ATOM     30  H   UNL     1      37.235 -24.701 -11.330  0.00  0.00    +0.158 HD
ATOM     31  H   UNL     1      35.625 -25.201 -11.585  0.00  0.00    +0.158 HD
ENDBRANCH  21  29
ENDBRANCH   5  21
TORSDOF 5
ENDMDL
