MODEL 1
REMARK VINA RESULT:     -12.3      0.000      0.000
REMARK  Name = 447731
REMARK  4 active torsions:
REMARK  status: ('A' for Active; 'I' for Inactive)
REMARK    1  A    between atoms: N_2  and  C_13
REMARK    2  A    between atoms: C_3  and  C_19
REMARK    3  A    between atoms: C_6  and  C_17
REMARK    4  A    between atoms: C_27  and  C_31
REMARK                            x       y       z     vdW  Elec       q    Type
REMARK                         _______ _______ _______ _____ _____    ______ ____
ROOT
ATOM      1  O   UNL     1      33.822 -23.907 -17.825  0.00  0.00    -0.270 OA
ATOM      2  N   UNL     1      35.093 -22.407 -16.535  0.00  0.00    -0.280 N 
ATOM      3  C   UNL     1      34.364 -22.819 -17.657  0.00  0.00    +0.249 C 
ATOM      4  H   UNL     1      35.461 -21.494 -16.570  0.00  0.00    +0.155 HD
ENDROOT
BRANCH   2  13
ATOM      5  N   UNL     1      37.127 -26.468 -11.962  0.00  0.00    +0.387 N 
ATOM      6  C   UNL     1      38.066 -25.501 -14.032  0.00  0.00    +0.001 C 
ATOM      7  C   UNL     1      36.821 -24.630 -14.123  0.00  0.00    -0.029 C 
ATOM      8  C   UNL     1      38.346 -25.958 -12.586  0.00  0.00    -0.077 C 
ATOM      9  C   UNL     1      35.899 -24.607 -13.057  0.00  0.00    -0.048 C 
ATOM     10  C   UNL     1      36.162 -25.379 -11.788  0.00  0.00    -0.055 C 
ATOM     11  C   UNL     1      36.524 -23.902 -15.287  0.00  0.00    +0.010 C 
ATOM     12  C   UNL     1      34.743 -23.818 -13.149  0.00  0.00    -0.005 C 
ATOM     13  C   UNL     1      35.363 -23.131 -15.372  0.00  0.00    +0.050 C 
ATOM     14  C   UNL     1      34.476 -23.084 -14.302  0.00  0.00    +0.014 C 
ATOM     15  H   UNL     1      37.355 -26.866 -11.050  0.00  0.00    -0.084 HD
ATOM     16  H   UNL     1      36.718 -27.186 -12.560  0.00  0.00    -0.084 HD
BRANCH   6  17
ATOM     17  C   UNL     1      39.328 -24.829 -14.584  0.00  0.00    +0.002 C 
ATOM     18  C   UNL     1      40.571 -25.603 -14.202  0.00  0.00    +0.000 C 
ENDBRANCH   6  17
ENDBRANCH   2  13
BRANCH   3  19
ATOM     19  C   UNL     1      34.274 -21.826 -18.759  0.00  0.00    +0.054 C 
ATOM     20  C   UNL     1      35.364 -20.302 -20.268  0.00  0.00    +0.000 C 
ATOM     21  C   UNL     1      34.103 -19.969 -20.817  0.00  0.00    +0.000 C 
ATOM     22  C   UNL     1      35.433 -21.244 -19.227  0.00  0.00    +0.005 C 
ATOM     23  C   UNL     1      33.035 -21.519 -19.275  0.00  0.00    +0.005 C 
ATOM     24  C   UNL     1      32.948 -20.586 -20.308  0.00  0.00    +0.000 C 
ATOM     25  C   UNL     1      34.033 -19.027 -21.857  0.00  0.00    +0.003 C 
ATOM     26  C   UNL     1      36.518 -19.685 -20.775  0.00  0.00    +0.000 C 
ATOM     27  C   UNL     1      35.190 -18.424 -22.349  0.00  0.00    +0.031 C 
ATOM     28  C   UNL     1      36.431 -18.753 -21.809  0.00  0.00    +0.003 C 
BRANCH  27  31
ATOM     29  N   UNL     1      34.425 -17.741 -24.609  0.00  0.00    -0.343 N 
ATOM     30  N   UNL     1      35.672 -16.268 -23.293  0.00  0.00    -0.285 NA
ATOM     31  C   UNL     1      35.101 -17.451 -23.426  0.00  0.00    +0.117 C 
ATOM     32  H   UNL     1      34.377 -17.068 -25.326  0.00  0.00    +0.144 HD
ATOM     33  H   UNL     1      33.995 -18.619 -24.729  0.00  0.00    +0.144 HD
ATOM     34  H   UNL     1      35.613 -15.608 -24.022  0.00  0.00    +0.188 HD
ENDBRANCH  27  31
ENDBRANCH   3  19
TORSDOF 4
ENDMDL
MODEL 2
REMARK VINA RESULT:     -11.9      1.142      2.634
REMARK  Name = 447731
REMARK  4 active torsions:
REMARK  status: ('A' for Active; 'I' for Inactive)
REMARK    1  A    between atoms: N_2  and  C_13
REMARK    2  A    between atoms: C_3  and  C_19
REMARK    3  A    between atoms: C_6  and  C_17
REMARK    4  A    between atoms: C_27  and  C_31
REMARK                            x       y       z     vdW  Elec       q    Type
REMARK                         _______ _______ _______ _____ _____    ______ ____
ROOT
ATOM      1  O   UNL     1      34.198 -23.459 -17.867  0.00  0.00    -0.270 OA
ATOM      2  N   UNL     1      35.796 -21.993 -16.957  0.00  0.00    -0.280 N 
ATOM      3  C   UNL     1      34.840 -22.415 -17.890  0.00  0.00    +0.249 C 
ATOM      4  H   UNL     1      36.217 -21.121 -17.133  0.00  0.00    +0.155 HD
ENDROOT
BRANCH   2  13
ATOM      5  N   UNL     1      36.660 -24.571 -11.113  0.00  0.00    +0.387 N 
ATOM      6  C   UNL     1      34.725 -23.976 -12.530  0.00  0.00    +0.001 C 
ATOM      7  C   UNL     1      35.711 -23.655 -13.644  0.00  0.00    -0.029 C 
ATOM      8  C   UNL     1      35.311 -24.973 -11.509  0.00  0.00    -0.077 C 
ATOM      9  C   UNL     1      37.077 -23.968 -13.486  0.00  0.00    -0.048 C 
ATOM     10  C   UNL     1      37.570 -24.686 -12.255  0.00  0.00    -0.055 C 
ATOM     11  C   UNL     1      35.305 -22.976 -14.804  0.00  0.00    +0.010 C 
ATOM     12  C   UNL     1      37.989 -23.656 -14.506  0.00  0.00    -0.005 C 
ATOM     13  C   UNL     1      36.224 -22.659 -15.806  0.00  0.00    +0.050 C 
ATOM     14  C   UNL     1      37.563 -23.004 -15.660  0.00  0.00    +0.014 C 
ATOM     15  H   UNL     1      36.985 -25.178 -10.359  0.00  0.00    -0.084 HD
ATOM     16  H   UNL     1      36.641 -23.603 -10.794  0.00  0.00    -0.084 HD
BRANCH   6  17
ATOM     17  C   UNL     1      33.385 -24.525 -13.033  0.00  0.00    +0.002 C 
ATOM     18  C   UNL     1      32.322 -23.448 -13.041  0.00  0.00    +0.000 C 
ENDBRANCH   6  17
ENDBRANCH   2  13
BRANCH   3  19
ATOM     19  C   UNL     1      34.618 -21.493 -19.035  0.00  0.00    +0.054 C 
ATOM     20  C   UNL     1      35.513 -19.987 -20.684  0.00  0.00    +0.000 C 
ATOM     21  C   UNL     1      34.202 -19.771 -21.173  0.00  0.00    +0.000 C 
ATOM     22  C   UNL     1      35.706 -20.862 -19.601  0.00  0.00    +0.005 C 
ATOM     23  C   UNL     1      33.334 -21.300 -19.491  0.00  0.00    +0.005 C 
ATOM     24  C   UNL     1      33.123 -20.435 -20.565  0.00  0.00    +0.000 C 
ATOM     25  C   UNL     1      34.007 -18.896 -22.255  0.00  0.00    +0.003 C 
ATOM     26  C   UNL     1      36.590 -19.323 -21.291  0.00  0.00    +0.000 C 
ATOM     27  C   UNL     1      35.090 -18.244 -22.846  0.00  0.00    +0.031 C 
ATOM     28  C   UNL     1      36.379 -18.458 -22.365  0.00  0.00    +0.003 C 
BRANCH  27  31
ATOM     29  N   UNL     1      35.410 -16.056 -23.974  0.00  0.00    -0.343 N 
ATOM     30  N   UNL     1      34.149 -17.736 -24.997  0.00  0.00    -0.285 NA
ATOM     31  C   UNL     1      34.872 -17.342 -23.965  0.00  0.00    +0.117 C 
ATOM     32  H   UNL     1      35.251 -15.461 -24.743  0.00  0.00    +0.144 HD
ATOM     33  H   UNL     1      35.950 -15.742 -23.213  0.00  0.00    +0.144 HD
ATOM     34  H   UNL     1      34.000 -17.126 -25.756  0.00  0.00    +0.188 HD
ENDBRANCH  27  31
ENDBRANCH   3  19
TORSDOF 4
ENDMDL
MODEL 3
REMARK VINA RESULT:     -10.7      2.166     10.199
REMARK  Name = 447731
REMARK  4 active torsions:
REMARK  status: ('A' for Active; 'I' for Inactive)
REMARK    1  A    between atoms: N_2  and  C_13
REMARK    2  A    between atoms: C_3  and  C_19
REMARK    3  A    between atoms: C_6  and  C_17
REMARK    4  A    between atoms: C_27  and  C_31
REMARK                            x       y       z     vdW  Elec       q    Type
REMARK                         _______ _______ _______ _____ _____    ______ ____
ROOT
ATOM      1  O   UNL     1      32.719 -20.900 -20.313  0.00  0.00    -0.270 OA
ATOM      2  N   UNL     1      34.905 -20.043 -20.453  0.00  0.00    -0.280 N 
ATOM      3  C   UNL     1      33.874 -20.819 -19.907  0.00  0.00    +0.249 C 
ATOM      4  H   UNL     1      35.776 -20.098 -19.996  0.00  0.00    +0.155 HD
ENDROOT
BRANCH   2  13
ATOM      5  N   UNL     1      33.886 -15.395 -24.800  0.00  0.00    +0.387 N 
ATOM      6  C   UNL     1      34.070 -15.525 -22.340  0.00  0.00    +0.001 C 
ATOM      7  C   UNL     1      34.465 -16.985 -22.502  0.00  0.00    -0.029 C 
ATOM      8  C   UNL     1      34.370 -14.701 -23.608  0.00  0.00    -0.077 C 
ATOM      9  C   UNL     1      34.709 -17.509 -23.788  0.00  0.00    -0.048 C 
ATOM     10  C   UNL     1      34.656 -16.624 -25.008  0.00  0.00    -0.055 C 
ATOM     11  C   UNL     1      34.516 -17.854 -21.400  0.00  0.00    +0.010 C 
ATOM     12  C   UNL     1      35.056 -18.860 -23.939  0.00  0.00    -0.005 C 
ATOM     13  C   UNL     1      34.850 -19.200 -21.565  0.00  0.00    +0.050 C 
ATOM     14  C   UNL     1      35.125 -19.701 -22.832  0.00  0.00    +0.014 C 
ATOM     15  H   UNL     1      33.994 -14.787 -25.612  0.00  0.00    -0.084 HD
ATOM     16  H   UNL     1      32.902 -15.632 -24.674  0.00  0.00    -0.084 HD
BRANCH   6  17
ATOM     17  C   UNL     1      34.736 -14.837 -21.142  0.00  0.00    +0.002 C 
ATOM     18  C   UNL     1      33.724 -14.063 -20.325  0.00  0.00    +0.000 C 
ENDBRANCH   6  17
ENDBRANCH   2  13
BRANCH   3  19
ATOM     19  C   UNL     1      34.236 -21.597 -18.693  0.00  0.00    +0.054 C 
ATOM     20  C   UNL     1      35.895 -22.281 -17.091  0.00  0.00    +0.000 C 
ATOM     21  C   UNL     1      34.911 -23.052 -16.426  0.00  0.00    +0.000 C 
ATOM     22  C   UNL     1      35.537 -21.551 -18.237  0.00  0.00    +0.005 C 
ATOM     23  C   UNL     1      33.261 -22.338 -18.065  0.00  0.00    +0.005 C 
ATOM     24  C   UNL     1      33.599 -23.069 -16.927  0.00  0.00    +0.000 C 
ATOM     25  C   UNL     1      35.269 -23.782 -15.282  0.00  0.00    +0.003 C 
ATOM     26  C   UNL     1      37.207 -22.264 -16.592  0.00  0.00    +0.000 C 
ATOM     27  C   UNL     1      36.577 -23.754 -14.799  0.00  0.00    +0.031 C 
ATOM     28  C   UNL     1      37.545 -22.995 -15.453  0.00  0.00    +0.003 C 
BRANCH  27  31
ATOM     29  N   UNL     1      36.042 -25.424 -13.043  0.00  0.00    -0.343 N 
ATOM     30  N   UNL     1      38.115 -24.348 -13.052  0.00  0.00    -0.285 NA
ATOM     31  C   UNL     1      36.931 -24.515 -13.612  0.00  0.00    +0.117 C 
ATOM     32  H   UNL     1      36.302 -25.930 -12.239  0.00  0.00    +0.144 HD
ATOM     33  H   UNL     1      35.153 -25.562 -13.444  0.00  0.00    +0.144 HD
ATOM     34  H   UNL     1      38.357 -24.863 -12.248  0.00  0.00    +0.188 HD
ENDBRANCH  27  31
ENDBRANCH   3  19
TORSDOF 4
ENDMDL
MODEL 4
REMARK VINA RESULT:     -10.5      2.621     10.861
REMARK  Name = 447731
REMARK  4 active torsions:
REMARK  status: ('A' for Active; 'I' for Inactive)
REMARK    1  A    between atoms: N_2  and  C_13
REMARK    2  A    between atoms: C_3  and  C_19
REMARK    3  A    between atoms: C_6  and  C_17
REMARK    4  A    between atoms: C_27  and  C_31
REMARK                            x       y       z     vdW  Elec       q    Type
REMARK                         _______ _______ _______ _____ _____    ______ ____
ROOT
ATOM      1  O   UNL     1      32.848 -20.133 -21.457  0.00  0.00    -0.270 OA
ATOM      2  N   UNL     1      34.831 -18.881 -21.641  0.00  0.00    -0.280 N 
ATOM      3  C   UNL     1      33.991 -19.864 -21.101  0.00  0.00    +0.249 C 
ATOM      4  H   UNL     1      35.722 -18.802 -21.231  0.00  0.00    +0.155 HD
ENDROOT
BRANCH   2  13
ATOM      5  N   UNL     1      32.932 -14.122 -25.551  0.00  0.00    +0.387 N 
ATOM      6  C   UNL     1      33.533 -14.335 -23.164  0.00  0.00    +0.001 C 
ATOM      7  C   UNL     1      33.945 -15.771 -23.454  0.00  0.00    -0.029 C 
ATOM      8  C   UNL     1      33.585 -13.453 -24.428  0.00  0.00    -0.077 C 
ATOM      9  C   UNL     1      33.987 -16.236 -24.784  0.00  0.00    -0.048 C 
ATOM     10  C   UNL     1      33.697 -15.310 -25.938  0.00  0.00    -0.055 C 
ATOM     11  C   UNL     1      34.212 -16.677 -22.414  0.00  0.00    +0.010 C 
ATOM     12  C   UNL     1      34.350 -17.565 -25.049  0.00  0.00    -0.005 C 
ATOM     13  C   UNL     1      34.559 -18.001 -22.691  0.00  0.00    +0.050 C 
ATOM     14  C   UNL     1      34.634 -18.443 -24.007  0.00  0.00    +0.014 C 
ATOM     15  H   UNL     1      32.879 -13.480 -26.343  0.00  0.00    -0.084 HD
ATOM     16  H   UNL     1      31.992 -14.405 -25.272  0.00  0.00    -0.084 HD
BRANCH   6  17
ATOM     17  C   UNL     1      34.367 -13.665 -22.066  0.00  0.00    +0.002 C 
ATOM     18  C   UNL     1      33.636 -13.676 -20.741  0.00  0.00    +0.000 C 
ENDBRANCH   6  17
ENDBRANCH   2  13
BRANCH   3  19
ATOM     19  C   UNL     1      34.558 -20.630 -19.960  0.00  0.00    +0.054 C 
ATOM     20  C   UNL     1      34.225 -22.088 -18.077  0.00  0.00    +0.000 C 
ATOM     21  C   UNL     1      35.619 -22.061 -17.830  0.00  0.00    +0.000 C 
ATOM     22  C   UNL     1      33.704 -21.359 -19.159  0.00  0.00    +0.005 C 
ATOM     23  C   UNL     1      35.916 -20.586 -19.742  0.00  0.00    +0.005 C 
ATOM     24  C   UNL     1      36.450 -21.304 -18.672  0.00  0.00    +0.000 C 
ATOM     25  C   UNL     1      36.140 -22.789 -16.748  0.00  0.00    +0.003 C 
ATOM     26  C   UNL     1      33.394 -22.844 -17.235  0.00  0.00    +0.000 C 
ATOM     27  C   UNL     1      35.299 -23.534 -15.921  0.00  0.00    +0.031 C 
ATOM     28  C   UNL     1      33.929 -23.562 -16.165  0.00  0.00    +0.003 C 
BRANCH  27  31
ATOM     29  N   UNL     1      35.362 -24.126 -13.512  0.00  0.00    -0.343 N 
ATOM     30  N   UNL     1      36.847 -25.129 -15.010  0.00  0.00    -0.285 NA
ATOM     31  C   UNL     1      35.854 -24.283 -14.806  0.00  0.00    +0.117 C 
ATOM     32  H   UNL     1      35.752 -24.644 -12.770  0.00  0.00    +0.144 HD
ATOM     33  H   UNL     1      34.623 -23.499 -13.338  0.00  0.00    +0.144 HD
ATOM     34  H   UNL     1      37.225 -25.637 -14.255  0.00  0.00    +0.188 HD
ENDBRANCH  27  31
ENDBRANCH   3  19
TORSDOF 4
ENDMDL
MODEL 5
REMARK VINA RESULT:     -10.4      2.186     10.520
REMARK  Name = 447731
REMARK  4 active torsions:
REMARK  status: ('A' for Active; 'I' for Inactive)
REMARK    1  A    between atoms: N_2  and  C_13
REMARK    2  A    between atoms: C_3  and  C_19
REMARK    3  A    between atoms: C_6  and  C_17
REMARK    4  A    between atoms: C_27  and  C_31
REMARK                            x       y       z     vdW  Elec       q    Type
REMARK                         _______ _______ _______ _____ _____    ______ ____
ROOT
ATOM      1  O   UNL     1      33.123 -20.841 -20.446  0.00  0.00    -0.270 OA
ATOM      2  N   UNL     1      35.131 -19.723 -20.949  0.00  0.00    -0.280 N 
ATOM      3  C   UNL     1      34.303 -20.589 -20.222  0.00  0.00    +0.249 C 
ATOM      4  H   UNL     1      36.057 -19.639 -20.627  0.00  0.00    +0.155 HD
ENDROOT
BRANCH   2  13
ATOM      5  N   UNL     1      33.070 -15.388 -25.251  0.00  0.00    +0.387 N 
ATOM      6  C   UNL     1      33.854 -15.341 -22.908  0.00  0.00    +0.001 C 
ATOM      7  C   UNL     1      34.198 -16.816 -23.052  0.00  0.00    -0.029 C 
ATOM      8  C   UNL     1      33.832 -14.617 -24.270  0.00  0.00    -0.077 C 
ATOM      9  C   UNL     1      34.118 -17.437 -24.316  0.00  0.00    -0.048 C 
ATOM     10  C   UNL     1      33.765 -16.643 -25.548  0.00  0.00    -0.055 C 
ATOM     11  C   UNL     1      34.519 -17.602 -21.934  0.00  0.00    +0.010 C 
ATOM     12  C   UNL     1      34.418 -18.801 -24.445  0.00  0.00    -0.005 C 
ATOM     13  C   UNL     1      34.803 -18.963 -22.073  0.00  0.00    +0.050 C 
ATOM     14  C   UNL     1      34.758 -19.560 -23.328  0.00  0.00    +0.014 C 
ATOM     15  H   UNL     1      32.974 -14.843 -26.108  0.00  0.00    -0.084 HD
ATOM     16  H   UNL     1      32.147 -15.598 -24.869  0.00  0.00    -0.084 HD
BRANCH   6  17
ATOM     17  C   UNL     1      34.793 -14.579 -21.966  0.00  0.00    +0.002 C 
ATOM     18  C   UNL     1      34.099 -14.227 -20.669  0.00  0.00    +0.000 C 
ENDBRANCH   6  17
ENDBRANCH   2  13
BRANCH   3  19
ATOM     19  C   UNL     1      34.938 -21.239 -19.046  0.00  0.00    +0.054 C 
ATOM     20  C   UNL     1      34.737 -22.612 -17.081  0.00  0.00    +0.000 C 
ATOM     21  C   UNL     1      36.125 -22.454 -16.850  0.00  0.00    +0.000 C 
ATOM     22  C   UNL     1      34.152 -21.991 -18.197  0.00  0.00    +0.005 C 
ATOM     23  C   UNL     1      36.289 -21.070 -18.844  0.00  0.00    +0.005 C 
ATOM     24  C   UNL     1      36.886 -21.680 -17.741  0.00  0.00    +0.000 C 
ATOM     25  C   UNL     1      36.711 -23.075 -15.734  0.00  0.00    +0.003 C 
ATOM     26  C   UNL     1      33.977 -23.386 -16.190  0.00  0.00    +0.000 C 
ATOM     27  C   UNL     1      35.939 -23.840 -14.859  0.00  0.00    +0.031 C 
ATOM     28  C   UNL     1      34.574 -23.995 -15.087  0.00  0.00    +0.003 C 
BRANCH  27  31
ATOM     29  N   UNL     1      36.107 -25.702 -13.226  0.00  0.00    -0.343 N 
ATOM     30  N   UNL     1      37.572 -23.888 -13.098  0.00  0.00    -0.285 NA
ATOM     31  C   UNL     1      36.560 -24.476 -13.708  0.00  0.00    +0.117 C 
ATOM     32  H   UNL     1      36.542 -26.115 -12.445  0.00  0.00    +0.144 HD
ATOM     33  H   UNL     1      35.351 -26.156 -13.665  0.00  0.00    +0.144 HD
ATOM     34  H   UNL     1      37.994 -24.316 -12.318  0.00  0.00    +0.188 HD
ENDBRANCH  27  31
ENDBRANCH   3  19
TORSDOF 4
ENDMDL
MODEL 6
REMARK VINA RESULT:     -10.4      8.145     14.921
REMARK  Name = 447731
REMARK  4 active torsions:
REMARK  status: ('A' for Active; 'I' for Inactive)
REMARK    1  A    between atoms: N_2  and  C_13
REMARK    2  A    between atoms: C_3  and  C_19
REMARK    3  A    between atoms: C_6  and  C_17
REMARK    4  A    between atoms: C_27  and  C_31
REMARK                            x       y       z     vdW  Elec       q    Type
REMARK                         _______ _______ _______ _____ _____    ______ ____
ROOT
ATOM      1  O   UNL     1      33.572 -11.584 -24.299  0.00  0.00    -0.270 OA
ATOM      2  N   UNL     1      32.880 -10.803 -22.192  0.00  0.00    -0.280 N 
ATOM      3  C   UNL     1      33.412 -11.734 -23.093  0.00  0.00    +0.249 C 
ATOM      4  H   UNL     1      32.824 -11.093 -21.252  0.00  0.00    +0.155 HD
ENDROOT
BRANCH   2  13
ATOM      5  N   UNL     1      32.027  -4.509 -23.287  0.00  0.00    +0.387 N 
ATOM      6  C   UNL     1      33.834  -6.152 -23.653  0.00  0.00    +0.001 C 
ATOM      7  C   UNL     1      32.866  -7.235 -23.198  0.00  0.00    -0.029 C 
ATOM      8  C   UNL     1      33.099  -4.910 -24.195  0.00  0.00    -0.077 C 
ATOM      9  C   UNL     1      31.509  -6.919 -22.982  0.00  0.00    -0.048 C 
ATOM     10  C   UNL     1      30.981  -5.535 -23.264  0.00  0.00    -0.055 C 
ATOM     11  C   UNL     1      33.310  -8.535 -22.909  0.00  0.00    +0.010 C 
ATOM     12  C   UNL     1      30.621  -7.913 -22.545  0.00  0.00    -0.005 C 
ATOM     13  C   UNL     1      32.418  -9.513 -22.462  0.00  0.00    +0.050 C 
ATOM     14  C   UNL     1      31.074  -9.204 -22.286  0.00  0.00    +0.014 C 
ATOM     15  H   UNL     1      31.627  -3.626 -23.605  0.00  0.00    -0.084 HD
ATOM     16  H   UNL     1      32.407  -4.397 -22.347  0.00  0.00    -0.084 HD
BRANCH   6  17
ATOM     17  C   UNL     1      34.835  -6.628 -24.713  0.00  0.00    +0.002 C 
ATOM     18  C   UNL     1      35.281  -5.483 -25.596  0.00  0.00    +0.000 C 
ENDBRANCH   6  17
ENDBRANCH   2  13
BRANCH   3  19
ATOM     19  C   UNL     1      33.792 -13.045 -22.503  0.00  0.00    +0.054 C 
ATOM     20  C   UNL     1      34.587 -15.296 -22.800  0.00  0.00    +0.000 C 
ATOM     21  C   UNL     1      34.502 -15.493 -21.401  0.00  0.00    +0.000 C 
ATOM     22  C   UNL     1      34.224 -14.051 -23.342  0.00  0.00    +0.005 C 
ATOM     23  C   UNL     1      33.701 -13.210 -21.140  0.00  0.00    +0.005 C 
ATOM     24  C   UNL     1      34.057 -14.439 -20.585  0.00  0.00    +0.000 C 
ATOM     25  C   UNL     1      34.864 -16.737 -20.859  0.00  0.00    +0.003 C 
ATOM     26  C   UNL     1      35.031 -16.349 -23.616  0.00  0.00    +0.000 C 
ATOM     27  C   UNL     1      35.303 -17.772 -21.685  0.00  0.00    +0.031 C 
ATOM     28  C   UNL     1      35.387 -17.577 -23.061  0.00  0.00    +0.003 C 
BRANCH  27  31
ATOM     29  N   UNL     1      36.908 -19.238 -20.485  0.00  0.00    -0.343 N 
ATOM     30  N   UNL     1      34.838 -20.072 -21.174  0.00  0.00    -0.285 NA
ATOM     31  C   UNL     1      35.675 -19.054 -21.108  0.00  0.00    +0.117 C 
ATOM     32  H   UNL     1      37.139 -20.114 -20.101  0.00  0.00    +0.144 HD
ATOM     33  H   UNL     1      37.548 -18.492 -20.428  0.00  0.00    +0.144 HD
ATOM     34  H   UNL     1      35.087 -20.942 -20.784  0.00  0.00    +0.188 HD
ENDBRANCH  27  31
ENDBRANCH   3  19
TORSDOF 4
ENDMDL
MODEL 7
REMARK VINA RESULT:     -10.3      1.414      3.173
REMARK  Name = 447731
REMARK  4 active torsions:
REMARK  status: ('A' for Active; 'I' for Inactive)
REMARK    1  A    between atoms: N_2  and  C_13
REMARK    2  A    between atoms: C_3  and  C_19
REMARK    3  A    between atoms: C_6  and  C_17
REMARK    4  A    between atoms: C_27  and  C_31
REMARK                            x       y       z     vdW  Elec       q    Type
REMARK                         _______ _______ _______ _____ _____    ______ ____
ROOT
ATOM      1  O   UNL     1      35.018 -22.885 -18.510  0.00  0.00    -0.270 OA
ATOM      2  N   UNL     1      36.542 -21.661 -17.202  0.00  0.00    -0.280 N 
ATOM      3  C   UNL     1      35.735 -21.908 -18.320  0.00  0.00    +0.249 C 
ATOM      4  H   UNL     1      37.054 -20.820 -17.216  0.00  0.00    +0.155 HD
ENDROOT
BRANCH   2  13
ATOM      5  N   UNL     1      36.200 -24.757 -11.560  0.00  0.00    +0.387 N 
ATOM      6  C   UNL     1      34.587 -23.806 -13.171  0.00  0.00    +0.001 C 
ATOM      7  C   UNL     1      35.760 -23.538 -14.102  0.00  0.00    -0.029 C 
ATOM      8  C   UNL     1      34.888 -24.944 -12.176  0.00  0.00    -0.077 C 
ATOM      9  C   UNL     1      37.039 -24.041 -13.785  0.00  0.00    -0.048 C 
ATOM     10  C   UNL     1      37.251 -24.907 -12.569  0.00  0.00    -0.055 C 
ATOM     11  C   UNL     1      35.618 -22.726 -15.239  0.00  0.00    +0.010 C 
ATOM     12  C   UNL     1      38.124 -23.778 -14.635  0.00  0.00    -0.005 C 
ATOM     13  C   UNL     1      36.709 -22.461 -16.070  0.00  0.00    +0.050 C 
ATOM     14  C   UNL     1      37.959 -22.991 -15.771  0.00  0.00    +0.014 C 
ATOM     15  H   UNL     1      36.333 -25.455 -10.827  0.00  0.00    -0.084 HD
ATOM     16  H   UNL     1      36.252 -23.821 -11.158  0.00  0.00    -0.084 HD
BRANCH   6  17
ATOM     17  C   UNL     1      33.281 -24.132 -13.905  0.00  0.00    +0.002 C 
ATOM     18  C   UNL     1      32.228 -23.078 -13.641  0.00  0.00    +0.000 C 
ENDBRANCH   6  17
ENDBRANCH   2  13
BRANCH   3  19
ATOM     19  C   UNL     1      35.789 -20.873 -19.386  0.00  0.00    +0.054 C 
ATOM     20  C   UNL     1      34.769 -19.796 -21.280  0.00  0.00    +0.000 C 
ATOM     21  C   UNL     1      35.893 -18.940 -21.377  0.00  0.00    +0.000 C 
ATOM     22  C   UNL     1      34.733 -20.769 -20.266  0.00  0.00    +0.005 C 
ATOM     23  C   UNL     1      36.893 -20.054 -19.459  0.00  0.00    +0.005 C 
ATOM     24  C   UNL     1      36.947 -19.083 -20.459  0.00  0.00    +0.000 C 
ATOM     25  C   UNL     1      35.931 -17.968 -22.390  0.00  0.00    +0.003 C 
ATOM     26  C   UNL     1      33.717 -19.654 -22.198  0.00  0.00    +0.000 C 
ATOM     27  C   UNL     1      34.876 -17.841 -23.294  0.00  0.00    +0.031 C 
ATOM     28  C   UNL     1      33.771 -18.683 -23.197  0.00  0.00    +0.003 C 
BRANCH  27  31
ATOM     29  N   UNL     1      35.609 -15.627 -24.146  0.00  0.00    -0.343 N 
ATOM     30  N   UNL     1      34.323 -17.040 -25.490  0.00  0.00    -0.285 NA
ATOM     31  C   UNL     1      34.930 -16.829 -24.337  0.00  0.00    +0.117 C 
ATOM     32  H   UNL     1      35.633 -14.956 -24.865  0.00  0.00    +0.144 HD
ATOM     33  H   UNL     1      36.066 -15.450 -23.292  0.00  0.00    +0.144 HD
ATOM     34  H   UNL     1      34.358 -16.356 -26.198  0.00  0.00    +0.188 HD
ENDBRANCH  27  31
ENDBRANCH   3  19
TORSDOF 4
ENDMDL
MODEL 8
REMARK VINA RESULT:     -10.2      7.938     14.883
REMARK  Name = 447731
REMARK  4 active torsions:
REMARK  status: ('A' for Active; 'I' for Inactive)
REMARK    1  A    between atoms: N_2  and  C_13
REMARK    2  A    between atoms: C_3  and  C_19
REMARK    3  A    between atoms: C_6  and  C_17
REMARK    4  A    between atoms: C_27  and  C_31
REMARK                            x       y       z     vdW  Elec       q    Type
REMARK                         _______ _______ _______ _____ _____    ______ ____
ROOT
ATOM      1  O   UNL     1      33.497 -12.059 -24.782  0.00  0.00    -0.270 OA
ATOM      2  N   UNL     1      34.263 -10.860 -22.909  0.00  0.00    -0.280 N 
ATOM      3  C   UNL     1      33.946 -12.012 -23.641  0.00  0.00    +0.249 C 
ATOM      4  H   UNL     1      34.615 -11.008 -22.002  0.00  0.00    +0.155 HD
ENDROOT
BRANCH   2  13
ATOM      5  N   UNL     1      32.397  -4.910 -24.540  0.00  0.00    +0.387 N 
ATOM      6  C   UNL     1      31.618  -6.656 -22.976  0.00  0.00    +0.001 C 
ATOM      7  C   UNL     1      32.865  -7.452 -23.331  0.00  0.00    -0.029 C 
ATOM      8  C   UNL     1      31.807  -5.146 -23.224  0.00  0.00    -0.077 C 
ATOM      9  C   UNL     1      33.872  -6.866 -24.125  0.00  0.00    -0.048 C 
ATOM     10  C   UNL     1      33.767  -5.429 -24.573  0.00  0.00    -0.055 C 
ATOM     11  C   UNL     1      33.005  -8.797 -22.951  0.00  0.00    +0.010 C 
ATOM     12  C   UNL     1      35.013  -7.606 -24.468  0.00  0.00    -0.005 C 
ATOM     13  C   UNL     1      34.140  -9.528 -23.309  0.00  0.00    +0.050 C 
ATOM     14  C   UNL     1      35.145  -8.931 -24.061  0.00  0.00    +0.014 C 
ATOM     15  H   UNL     1      32.412  -3.907 -24.730  0.00  0.00    -0.084 HD
ATOM     16  H   UNL     1      31.841  -5.388 -25.249  0.00  0.00    -0.084 HD
BRANCH   6  17
ATOM     17  C   UNL     1      31.150  -6.857 -21.530  0.00  0.00    +0.002 C 
ATOM     18  C   UNL     1      32.083  -6.173 -20.554  0.00  0.00    +0.000 C 
ENDBRANCH   6  17
ENDBRANCH   2  13
BRANCH   3  19
ATOM     19  C   UNL     1      34.161 -13.299 -22.929  0.00  0.00    +0.054 C 
ATOM     20  C   UNL     1      34.648 -15.653 -23.010  0.00  0.00    +0.000 C 
ATOM     21  C   UNL     1      34.562 -15.702 -21.597  0.00  0.00    +0.000 C 
ATOM     22  C   UNL     1      34.442 -14.429 -23.668  0.00  0.00    +0.005 C 
ATOM     23  C   UNL     1      34.072 -13.319 -21.556  0.00  0.00    +0.005 C 
ATOM     24  C   UNL     1      34.273 -14.526 -20.886  0.00  0.00    +0.000 C 
ATOM     25  C   UNL     1      34.767 -16.925 -20.939  0.00  0.00    +0.003 C 
ATOM     26  C   UNL     1      34.937 -16.828 -23.721  0.00  0.00    +0.000 C 
ATOM     27  C   UNL     1      35.053 -18.084 -21.662  0.00  0.00    +0.031 C 
ATOM     28  C   UNL     1      35.138 -18.034 -23.051  0.00  0.00    +0.003 C 
BRANCH  27  31
ATOM     29  N   UNL     1      36.472 -19.629 -20.335  0.00  0.00    -0.343 N 
ATOM     30  N   UNL     1      34.297 -20.241 -20.924  0.00  0.00    -0.285 NA
ATOM     31  C   UNL     1      35.263 -19.342 -20.965  0.00  0.00    +0.117 C 
ATOM     32  H   UNL     1      36.594 -20.487 -19.869  0.00  0.00    +0.144 HD
ATOM     33  H   UNL     1      37.207 -18.973 -20.356  0.00  0.00    +0.144 HD
ATOM     34  H   UNL     1      34.437 -21.094 -20.453  0.00  0.00    +0.188 HD
ENDBRANCH  27  31
ENDBRANCH   3  19
TORSDOF 4
ENDMDL
MODEL 9
REMARK VINA RESULT:     -10.1      0.752      1.656
REMARK  Name = 447731
REMARK  4 active torsions:
REMARK  status: ('A' for Active; 'I' for Inactive)
REMARK    1  A    between atoms: N_2  and  C_13
REMARK    2  A    between atoms: C_3  and  C_19
REMARK    3  A    between atoms: C_6  and  C_17
REMARK    4  A    between atoms: C_27  and  C_31
REMARK                            x       y       z     vdW  Elec       q    Type
REMARK                         _______ _______ _______ _____ _____    ______ ____
ROOT
ATOM      1  O   UNL     1      34.502 -23.316 -18.183  0.00  0.00    -0.270 OA
ATOM      2  N   UNL     1      35.894 -22.069 -16.757  0.00  0.00    -0.280 N 
ATOM      3  C   UNL     1      35.204 -22.339 -17.945  0.00  0.00    +0.249 C 
ATOM      4  H   UNL     1      36.413 -21.232 -16.739  0.00  0.00    +0.155 HD
ENDROOT
BRANCH   2  13
ATOM      5  N   UNL     1      36.886 -26.424 -12.110  0.00  0.00    +0.387 N 
ATOM      6  C   UNL     1      38.171 -25.536 -14.024  0.00  0.00    +0.001 C 
ATOM      7  C   UNL     1      37.054 -24.523 -14.232  0.00  0.00    -0.029 C 
ATOM      8  C   UNL     1      38.221 -26.049 -12.571  0.00  0.00    -0.077 C 
ATOM      9  C   UNL     1      36.020 -24.411 -13.281  0.00  0.00    -0.048 C 
ATOM     10  C   UNL     1      36.038 -25.232 -12.016  0.00  0.00    -0.055 C 
ATOM     11  C   UNL     1      36.984 -23.745 -15.398  0.00  0.00    +0.010 C 
ATOM     12  C   UNL     1      34.981 -23.490 -13.482  0.00  0.00    -0.005 C 
ATOM     13  C   UNL     1      35.938 -22.841 -15.594  0.00  0.00    +0.050 C 
ATOM     14  C   UNL     1      34.941 -22.709 -14.634  0.00  0.00    +0.014 C 
ATOM     15  H   UNL     1      36.956 -26.862 -11.191  0.00  0.00    -0.084 HD
ATOM     16  H   UNL     1      36.473 -27.078 -12.774  0.00  0.00    -0.084 HD
BRANCH   6  17
ATOM     17  C   UNL     1      39.559 -25.007 -14.403  0.00  0.00    +0.002 C 
ATOM     18  C   UNL     1      40.620 -26.070 -14.210  0.00  0.00    +0.000 C 
ENDBRANCH   6  17
ENDBRANCH   2  13
BRANCH   3  19
ATOM     19  C   UNL     1      35.377 -21.333 -19.025  0.00  0.00    +0.054 C 
ATOM     20  C   UNL     1      34.458 -20.109 -20.881  0.00  0.00    +0.000 C 
ATOM     21  C   UNL     1      35.702 -19.452 -21.043  0.00  0.00    +0.000 C 
ATOM     22  C   UNL     1      34.311 -21.058 -19.855  0.00  0.00    +0.005 C 
ATOM     23  C   UNL     1      36.596 -20.709 -19.161  0.00  0.00    +0.005 C 
ATOM     24  C   UNL     1      36.761 -19.764 -20.174  0.00  0.00    +0.000 C 
ATOM     25  C   UNL     1      35.851 -18.504 -22.068  0.00  0.00    +0.003 C 
ATOM     26  C   UNL     1      33.400 -19.798 -21.750  0.00  0.00    +0.000 C 
ATOM     27  C   UNL     1      34.788 -18.207 -22.922  0.00  0.00    +0.031 C 
ATOM     28  C   UNL     1      33.565 -18.853 -22.762  0.00  0.00    +0.003 C 
BRANCH  27  31
ATOM     29  N   UNL     1      35.622 -16.020 -23.749  0.00  0.00    -0.343 N 
ATOM     30  N   UNL     1      34.474 -17.461 -25.184  0.00  0.00    -0.285 NA
ATOM     31  C   UNL     1      34.958 -17.223 -23.979  0.00  0.00    +0.117 C 
ATOM     32  H   UNL     1      35.726 -15.367 -24.478  0.00  0.00    +0.144 HD
ATOM     33  H   UNL     1      35.988 -15.822 -22.856  0.00  0.00    +0.144 HD
ATOM     34  H   UNL     1      34.587 -16.796 -25.901  0.00  0.00    +0.188 HD
ENDBRANCH  27  31
ENDBRANCH   3  19
TORSDOF 4
ENDMDL
