MODEL 1
REMARK VINA RESULT:     -11.1      0.000      0.000
REMARK  Name = 52913524
REMARK  9 active torsions:
REMARK  status: ('A' for Active; 'I' for Inactive)
REMARK    1  A    between atoms: C_1  and  C_10
REMARK    2  A    between atoms: C_4  and  C_24
REMARK    3  A    between atoms: C_5  and  C_22
REMARK    4  A    between atoms: C_8  and  O_13
REMARK    5  A    between atoms: C_9  and  O_15
REMARK    6  A    between atoms: C_11  and  O_17
REMARK    7  A    between atoms: C_12  and  C_19
REMARK    8  A    between atoms: C_19  and  O_20
REMARK    9  A    between atoms: C_24  and  C_27
REMARK                            x       y       z     vdW  Elec       q    Type
REMARK                         _______ _______ _______ _____ _____    ______ ____
ROOT
ATOM      1  C   UNL     1      34.408 -23.639 -14.319  0.00  0.00    +0.007 C 
ATOM      2  C   UNL     1      34.347 -23.687 -15.712  0.00  0.00    -0.006 C 
ATOM      3  C   UNL     1      33.277 -23.289 -13.582  0.00  0.00    -0.002 C 
ATOM      4  C   UNL     1      33.154 -23.384 -16.368  0.00  0.00    -0.022 C 
ATOM      5  C   UNL     1      32.022 -23.033 -15.630  0.00  0.00    -0.026 C 
ATOM      6  C   UNL     1      32.083 -22.986 -14.238  0.00  0.00    -0.005 C 
ENDROOT
BRANCH   1  10
ATOM      7  O   UNL     1      36.715 -24.153 -14.603  0.00  0.00    -0.347 OA
ATOM      8  C   UNL     1      35.573 -25.221 -12.724  0.00  0.00    +0.171 C 
ATOM      9  C   UNL     1      36.931 -25.628 -12.143  0.00  0.00    +0.169 C 
ATOM     10  C   UNL     1      35.705 -23.970 -13.606  0.00  0.00    +0.167 C 
ATOM     11  C   UNL     1      38.008 -25.672 -13.226  0.00  0.00    +0.169 C 
ATOM     12  C   UNL     1      38.010 -24.380 -14.045  0.00  0.00    +0.174 C 
BRANCH   8  13
ATOM     13  O   UNL     1      34.676 -24.934 -11.653  0.00  0.00    -0.379 OA
ATOM     14  H   UNL     1      34.099 -24.195 -11.902  0.00  0.00    +0.211 HD
ENDBRANCH   8  13
BRANCH   9  15
ATOM     15  O   UNL     1      36.829 -26.931 -11.568  0.00  0.00    -0.379 OA
ATOM     16  H   UNL     1      37.345 -27.559 -12.097  0.00  0.00    +0.211 HD
ENDBRANCH   9  15
BRANCH  11  17
ATOM     17  O   UNL     1      39.284 -25.841 -12.614  0.00  0.00    -0.379 OA
ATOM     18  H   UNL     1      39.954 -25.991 -13.300  0.00  0.00    +0.211 HD
ENDBRANCH  11  17
BRANCH  12  19
ATOM     19  C   UNL     1      39.001 -24.445 -15.202  0.00  0.00    +0.169 C 
BRANCH  19  20
ATOM     20  O   UNL     1      39.480 -25.772 -15.312  0.00  0.00    -0.379 OA
ATOM     21  H   UNL     1      40.391 -25.815 -14.982  0.00  0.00    +0.211 HD
ENDBRANCH  19  20
ENDBRANCH  12  19
ENDBRANCH   1  10
BRANCH   5  22
ATOM     22  C   UNL     1      30.734 -22.704 -16.311  0.00  0.00    +0.026 C 
ATOM     23  C   UNL     1      29.522 -23.032 -15.445  0.00  0.00    +0.005 C 
ENDBRANCH   5  22
BRANCH   4  24
ATOM     24  C   UNL     1      33.112 -23.440 -17.859  0.00  0.00    +0.052 C 
BRANCH  24  27
ATOM     25  O   UNL     1      33.717 -19.860 -21.116  0.00  0.00    -0.468 OA
ATOM     26  O   UNL     1      36.478 -19.599 -20.329  0.00  0.00    -0.468 OA
ATOM     27  C   UNL     1      33.999 -22.416 -18.537  0.00  0.00    -0.015 C 
ATOM     28  C   UNL     1      33.470 -21.578 -19.518  0.00  0.00    +0.036 C 
ATOM     29  C   UNL     1      35.346 -22.317 -18.183  0.00  0.00    -0.001 C 
ATOM     30  C   UNL     1      34.290 -20.641 -20.146  0.00  0.00    +0.172 C 
ATOM     31  C   UNL     1      35.630 -20.522 -19.773  0.00  0.00    +0.172 C 
ATOM     32  C   UNL     1      36.163 -21.370 -18.801  0.00  0.00    +0.040 C 
ATOM     33  C   UNL     1      34.700 -19.198 -21.917  0.00  0.00    +0.253 C 
ATOM     34  C   UNL     1      35.766 -18.580 -21.035  0.00  0.00    +0.253 C 
ENDBRANCH  24  27
ENDBRANCH   4  24
TORSDOF 9
ENDMDL
MODEL 2
REMARK VINA RESULT:     -10.4      3.468      7.583
REMARK  Name = 52913524
REMARK  9 active torsions:
REMARK  status: ('A' for Active; 'I' for Inactive)
REMARK    1  A    between atoms: C_1  and  C_10
REMARK    2  A    between atoms: C_4  and  C_24
REMARK    3  A    between atoms: C_5  and  C_22
REMARK    4  A    between atoms: C_8  and  O_13
REMARK    5  A    between atoms: C_9  and  O_15
REMARK    6  A    between atoms: C_11  and  O_17
REMARK    7  A    between atoms: C_12  and  C_19
REMARK    8  A    between atoms: C_19  and  O_20
REMARK    9  A    between atoms: C_24  and  C_27
REMARK                            x       y       z     vdW  Elec       q    Type
REMARK                         _______ _______ _______ _____ _____    ______ ____
ROOT
ATOM      1  C   UNL     1      35.514 -22.081 -17.664  0.00  0.00    +0.007 C 
ATOM      2  C   UNL     1      34.637 -22.927 -16.986  0.00  0.00    -0.006 C 
ATOM      3  C   UNL     1      36.690 -21.655 -17.046  0.00  0.00    -0.002 C 
ATOM      4  C   UNL     1      34.936 -23.348 -15.690  0.00  0.00    -0.022 C 
ATOM      5  C   UNL     1      36.113 -22.922 -15.072  0.00  0.00    -0.026 C 
ATOM      6  C   UNL     1      36.989 -22.076 -15.750  0.00  0.00    -0.005 C 
ENDROOT
BRANCH   1  10
ATOM      7  O   UNL     1      36.002 -20.482 -19.358  0.00  0.00    -0.347 OA
ATOM      8  C   UNL     1      33.699 -21.290 -19.239  0.00  0.00    +0.171 C 
ATOM      9  C   UNL     1      33.425 -20.681 -20.617  0.00  0.00    +0.169 C 
ATOM     10  C   UNL     1      35.189 -21.624 -19.073  0.00  0.00    +0.167 C 
ATOM     11  C   UNL     1      34.411 -19.557 -20.935  0.00  0.00    +0.169 C 
ATOM     12  C   UNL     1      35.851 -20.015 -20.699  0.00  0.00    +0.174 C 
BRANCH   8  13
ATOM     13  O   UNL     1      32.942 -22.492 -19.104  0.00  0.00    -0.379 OA
ATOM     14  H   UNL     1      33.015 -23.014 -19.918  0.00  0.00    +0.211 HD
ENDBRANCH   8  13
BRANCH   9  15
ATOM     15  O   UNL     1      32.106 -20.130 -20.639  0.00  0.00    -0.379 OA
ATOM     16  H   UNL     1      31.735 -20.146 -19.744  0.00  0.00    +0.211 HD
ENDBRANCH   9  15
BRANCH  11  17
ATOM     17  O   UNL     1      34.259 -19.169 -22.298  0.00  0.00    -0.379 OA
ATOM     18  H   UNL     1      34.579 -18.260 -22.412  0.00  0.00    +0.211 HD
ENDBRANCH  11  17
BRANCH  12  19
ATOM     19  C   UNL     1      36.847 -18.877 -20.902  0.00  0.00    +0.169 C 
BRANCH  19  20
ATOM     20  O   UNL     1      37.576 -18.697 -19.703  0.00  0.00    -0.379 OA
ATOM     21  H   UNL     1      38.381 -19.237 -19.730  0.00  0.00    +0.211 HD
ENDBRANCH  19  20
ENDBRANCH  12  19
ENDBRANCH   1  10
BRANCH   5  22
ATOM     22  C   UNL     1      36.453 -23.358 -13.685  0.00  0.00    +0.026 C 
ATOM     23  C   UNL     1      37.482 -24.485 -13.669  0.00  0.00    +0.005 C 
ENDBRANCH   5  22
BRANCH   4  24
ATOM     24  C   UNL     1      33.982 -24.254 -14.983  0.00  0.00    +0.052 C 
BRANCH  24  27
ATOM     25  O   UNL     1      29.496 -23.559 -16.770  0.00  0.00    -0.468 OA
ATOM     26  O   UNL     1      28.757 -22.128 -14.379  0.00  0.00    -0.468 OA
ATOM     27  C   UNL     1      32.585 -23.684 -14.843  0.00  0.00    -0.015 C 
ATOM     28  C   UNL     1      31.649 -23.881 -15.858  0.00  0.00    +0.036 C 
ATOM     29  C   UNL     1      32.239 -22.958 -13.703  0.00  0.00    -0.001 C 
ATOM     30  C   UNL     1      30.365 -23.349 -15.731  0.00  0.00    +0.172 C 
ATOM     31  C   UNL     1      30.010 -22.647 -14.577  0.00  0.00    +0.172 C 
ATOM     32  C   UNL     1      30.952 -22.437 -13.569  0.00  0.00    +0.040 C 
ATOM     33  C   UNL     1      28.357 -22.698 -16.695  0.00  0.00    +0.253 C 
ATOM     34  C   UNL     1      27.801 -22.685 -15.285  0.00  0.00    +0.253 C 
ENDBRANCH  24  27
ENDBRANCH   4  24
TORSDOF 9
ENDMDL
MODEL 3
REMARK VINA RESULT:     -10.2      2.511      7.239
REMARK  Name = 52913524
REMARK  9 active torsions:
REMARK  status: ('A' for Active; 'I' for Inactive)
REMARK    1  A    between atoms: C_1  and  C_10
REMARK    2  A    between atoms: C_4  and  C_24
REMARK    3  A    between atoms: C_5  and  C_22
REMARK    4  A    between atoms: C_8  and  O_13
REMARK    5  A    between atoms: C_9  and  O_15
REMARK    6  A    between atoms: C_11  and  O_17
REMARK    7  A    between atoms: C_12  and  C_19
REMARK    8  A    between atoms: C_19  and  O_20
REMARK    9  A    between atoms: C_24  and  C_27
REMARK                            x       y       z     vdW  Elec       q    Type
REMARK                         _______ _______ _______ _____ _____    ______ ____
ROOT
ATOM      1  C   UNL     1      33.552 -22.944 -17.114  0.00  0.00    +0.007 C 
ATOM      2  C   UNL     1      34.827 -22.753 -16.582  0.00  0.00    -0.006 C 
ATOM      3  C   UNL     1      33.256 -22.487 -18.398  0.00  0.00    -0.002 C 
ATOM      4  C   UNL     1      35.806 -22.103 -17.334  0.00  0.00    -0.022 C 
ATOM      5  C   UNL     1      35.509 -21.645 -18.618  0.00  0.00    -0.026 C 
ATOM      6  C   UNL     1      34.235 -21.837 -19.150  0.00  0.00    -0.005 C 
ENDROOT
BRANCH   1  10
ATOM      7  O   UNL     1      31.264 -22.930 -16.460  0.00  0.00    -0.347 OA
ATOM      8  C   UNL     1      32.874 -23.748 -14.813  0.00  0.00    +0.171 C 
ATOM      9  C   UNL     1      31.720 -24.319 -13.983  0.00  0.00    +0.169 C 
ATOM     10  C   UNL     1      32.489 -23.652 -16.297  0.00  0.00    +0.167 C 
ATOM     11  C   UNL     1      30.404 -23.608 -14.297  0.00  0.00    +0.169 C 
ATOM     12  C   UNL     1      30.160 -23.558 -15.806  0.00  0.00    +0.174 C 
BRANCH   8  13
ATOM     13  O   UNL     1      34.005 -24.608 -14.689  0.00  0.00    -0.379 OA
ATOM     14  H   UNL     1      34.790 -24.082 -14.467  0.00  0.00    +0.211 HD
ENDBRANCH   8  13
BRANCH   9  15
ATOM     15  O   UNL     1      31.999 -24.138 -12.594  0.00  0.00    -0.379 OA
ATOM     16  H   UNL     1      31.436 -23.433 -12.240  0.00  0.00    +0.211 HD
ENDBRANCH   9  15
BRANCH  11  17
ATOM     17  O   UNL     1      29.331 -24.307 -13.671  0.00  0.00    -0.379 OA
ATOM     18  H   UNL     1      28.506 -24.128 -14.151  0.00  0.00    +0.211 HD
ENDBRANCH  11  17
BRANCH  12  19
ATOM     19  C   UNL     1      28.909 -22.756 -16.150  0.00  0.00    +0.169 C 
BRANCH  19  20
ATOM     20  O   UNL     1      28.480 -22.069 -14.989  0.00  0.00    -0.379 OA
ATOM     21  H   UNL     1      28.695 -21.127 -15.073  0.00  0.00    +0.211 HD
ENDBRANCH  19  20
ENDBRANCH  12  19
ENDBRANCH   1  10
BRANCH   5  22
ATOM     22  C   UNL     1      36.541 -20.946 -19.441  0.00  0.00    +0.026 C 
ATOM     23  C   UNL     1      35.920 -20.026 -20.488  0.00  0.00    +0.005 C 
ENDBRANCH   5  22
BRANCH   4  24
ATOM     24  C   UNL     1      37.164 -21.908 -16.743  0.00  0.00    +0.052 C 
BRANCH  24  27
ATOM     25  O   UNL     1      36.214 -23.113 -12.113  0.00  0.00    -0.468 OA
ATOM     26  O   UNL     1      38.195 -25.204 -12.242  0.00  0.00    -0.468 OA
ATOM     27  C   UNL     1      37.433 -22.772 -15.528  0.00  0.00    -0.015 C 
ATOM     28  C   UNL     1      36.699 -22.575 -14.358  0.00  0.00    +0.036 C 
ATOM     29  C   UNL     1      38.419 -23.758 -15.578  0.00  0.00    -0.001 C 
ATOM     30  C   UNL     1      36.954 -23.367 -13.239  0.00  0.00    +0.172 C 
ATOM     31  C   UNL     1      37.921 -24.373 -13.298  0.00  0.00    +0.172 C 
ATOM     32  C   UNL     1      38.665 -24.559 -14.463  0.00  0.00    +0.040 C 
ATOM     33  C   UNL     1      36.783 -23.726 -10.952  0.00  0.00    +0.253 C 
ATOM     34  C   UNL     1      37.166 -25.161 -11.250  0.00  0.00    +0.253 C 
ENDBRANCH  24  27
ENDBRANCH   4  24
TORSDOF 9
ENDMDL
MODEL 4
REMARK VINA RESULT:     -10.2      2.398      5.443
REMARK  Name = 52913524
REMARK  9 active torsions:
REMARK  status: ('A' for Active; 'I' for Inactive)
REMARK    1  A    between atoms: C_1  and  C_10
REMARK    2  A    between atoms: C_4  and  C_24
REMARK    3  A    between atoms: C_5  and  C_22
REMARK    4  A    between atoms: C_8  and  O_13
REMARK    5  A    between atoms: C_9  and  O_15
REMARK    6  A    between atoms: C_11  and  O_17
REMARK    7  A    between atoms: C_12  and  C_19
REMARK    8  A    between atoms: C_19  and  O_20
REMARK    9  A    between atoms: C_24  and  C_27
REMARK                            x       y       z     vdW  Elec       q    Type
REMARK                         _______ _______ _______ _____ _____    ______ ____
ROOT
ATOM      1  C   UNL     1      36.571 -22.741 -15.880  0.00  0.00    +0.007 C 
ATOM      2  C   UNL     1      35.272 -22.971 -16.335  0.00  0.00    -0.006 C 
ATOM      3  C   UNL     1      37.455 -21.983 -16.647  0.00  0.00    -0.002 C 
ATOM      4  C   UNL     1      34.859 -22.443 -17.558  0.00  0.00    -0.022 C 
ATOM      5  C   UNL     1      35.744 -21.684 -18.325  0.00  0.00    -0.026 C 
ATOM      6  C   UNL     1      37.041 -21.454 -17.870  0.00  0.00    -0.005 C 
ENDROOT
BRANCH   1  10
ATOM      7  O   UNL     1      38.021 -24.301 -14.819  0.00  0.00    -0.347 OA
ATOM      8  C   UNL     1      35.850 -23.924 -13.762  0.00  0.00    +0.171 C 
ATOM      9  C   UNL     1      36.350 -24.637 -12.502  0.00  0.00    +0.169 C 
ATOM     10  C   UNL     1      37.020 -23.315 -14.550  0.00  0.00    +0.167 C 
ATOM     11  C   UNL     1      37.514 -25.574 -12.819  0.00  0.00    +0.169 C 
ATOM     12  C   UNL     1      38.591 -24.850 -13.629  0.00  0.00    +0.174 C 
BRANCH   8  13
ATOM     13  O   UNL     1      34.960 -22.876 -13.381  0.00  0.00    -0.379 OA
ATOM     14  H   UNL     1      34.493 -22.545 -14.164  0.00  0.00    +0.211 HD
ENDBRANCH   8  13
BRANCH   9  15
ATOM     15  O   UNL     1      35.291 -25.419 -11.948  0.00  0.00    -0.379 OA
ATOM     16  H   UNL     1      34.544 -24.841 -11.726  0.00  0.00    +0.211 HD
ENDBRANCH   9  15
BRANCH  11  17
ATOM     17  O   UNL     1      38.082 -26.047 -11.600  0.00  0.00    -0.379 OA
ATOM     18  H   UNL     1      38.153 -27.015 -11.631  0.00  0.00    +0.211 HD
ENDBRANCH  11  17
BRANCH  12  19
ATOM     19  C   UNL     1      39.711 -25.795 -14.052  0.00  0.00    +0.169 C 
BRANCH  19  20
ATOM     20  O   UNL     1      40.891 -25.037 -14.245  0.00  0.00    -0.379 OA
ATOM     21  H   UNL     1      40.940 -24.340 -13.572  0.00  0.00    +0.211 HD
ENDBRANCH  19  20
ENDBRANCH  12  19
ENDBRANCH   1  10
BRANCH   5  22
ATOM     22  C   UNL     1      35.324 -21.109 -19.638  0.00  0.00    +0.026 C 
ATOM     23  C   UNL     1      36.364 -20.152 -20.210  0.00  0.00    +0.005 C 
ENDBRANCH   5  22
BRANCH   4  24
ATOM     24  C   UNL     1      33.464 -22.702 -18.025  0.00  0.00    +0.052 C 
BRANCH  24  27
ATOM     25  O   UNL     1      32.494 -24.790 -13.725  0.00  0.00    -0.468 OA
ATOM     26  O   UNL     1      29.783 -23.817 -13.855  0.00  0.00    -0.468 OA
ATOM     27  C   UNL     1      32.492 -23.018 -16.908  0.00  0.00    -0.015 C 
ATOM     28  C   UNL     1      32.919 -23.752 -15.801  0.00  0.00    +0.036 C 
ATOM     29  C   UNL     1      31.169 -22.580 -16.989  0.00  0.00    -0.001 C 
ATOM     30  C   UNL     1      32.020 -24.048 -14.776  0.00  0.00    +0.172 C 
ATOM     31  C   UNL     1      30.704 -23.586 -14.845  0.00  0.00    +0.172 C 
ATOM     32  C   UNL     1      30.274 -22.865 -15.958  0.00  0.00    +0.040 C 
ATOM     33  C   UNL     1      31.433 -25.321 -12.926  0.00  0.00    +0.253 C 
ATOM     34  C   UNL     1      30.403 -24.246 -12.640  0.00  0.00    +0.253 C 
ENDBRANCH  24  27
ENDBRANCH   4  24
TORSDOF 9
ENDMDL
MODEL 5
REMARK VINA RESULT:      -9.7      3.140      7.194
REMARK  Name = 52913524
REMARK  9 active torsions:
REMARK  status: ('A' for Active; 'I' for Inactive)
REMARK    1  A    between atoms: C_1  and  C_10
REMARK    2  A    between atoms: C_4  and  C_24
REMARK    3  A    between atoms: C_5  and  C_22
REMARK    4  A    between atoms: C_8  and  O_13
REMARK    5  A    between atoms: C_9  and  O_15
REMARK    6  A    between atoms: C_11  and  O_17
REMARK    7  A    between atoms: C_12  and  C_19
REMARK    8  A    between atoms: C_19  and  O_20
REMARK    9  A    between atoms: C_24  and  C_27
REMARK                            x       y       z     vdW  Elec       q    Type
REMARK                         _______ _______ _______ _____ _____    ______ ____
ROOT
ATOM      1  C   UNL     1      34.742 -23.039 -16.307  0.00  0.00    +0.007 C 
ATOM      2  C   UNL     1      33.583 -23.206 -15.550  0.00  0.00    -0.006 C 
ATOM      3  C   UNL     1      35.993 -23.225 -15.718  0.00  0.00    -0.002 C 
ATOM      4  C   UNL     1      33.674 -23.559 -14.203  0.00  0.00    -0.022 C 
ATOM      5  C   UNL     1      34.925 -23.744 -13.614  0.00  0.00    -0.026 C 
ATOM      6  C   UNL     1      36.084 -23.578 -14.371  0.00  0.00    -0.005 C 
ENDROOT
BRANCH   1  10
ATOM      7  O   UNL     1      35.749 -21.799 -18.072  0.00  0.00    -0.347 OA
ATOM      8  C   UNL     1      33.310 -21.965 -18.095  0.00  0.00    +0.171 C 
ATOM      9  C   UNL     1      33.298 -21.446 -19.536  0.00  0.00    +0.169 C 
ATOM     10  C   UNL     1      34.643 -22.657 -17.771  0.00  0.00    +0.167 C 
ATOM     11  C   UNL     1      34.567 -20.655 -19.853  0.00  0.00    +0.169 C 
ATOM     12  C   UNL     1      35.814 -21.446 -19.454  0.00  0.00    +0.174 C 
BRANCH   8  13
ATOM     13  O   UNL     1      32.253 -22.909 -17.933  0.00  0.00    -0.379 OA
ATOM     14  H   UNL     1      31.681 -22.632 -17.200  0.00  0.00    +0.211 HD
ENDBRANCH   8  13
BRANCH   9  15
ATOM     15  O   UNL     1      32.179 -20.577 -19.718  0.00  0.00    -0.379 OA
ATOM     16  H   UNL     1      31.976 -20.505 -20.664  0.00  0.00    +0.211 HD
ENDBRANCH   9  15
BRANCH  11  17
ATOM     17  O   UNL     1      34.613 -20.378 -21.250  0.00  0.00    -0.379 OA
ATOM     18  H   UNL     1      33.761 -20.612 -21.654  0.00  0.00    +0.211 HD
ENDBRANCH  11  17
BRANCH  12  19
ATOM     19  C   UNL     1      37.089 -20.632 -19.658  0.00  0.00    +0.169 C 
BRANCH  19  20
ATOM     20  O   UNL     1      36.728 -19.291 -19.930  0.00  0.00    -0.379 OA
ATOM     21  H   UNL     1      36.323 -18.898 -19.140  0.00  0.00    +0.211 HD
ENDBRANCH  19  20
ENDBRANCH  12  19
ENDBRANCH   1  10
BRANCH   5  22
ATOM     22  C   UNL     1      35.048 -24.121 -12.174  0.00  0.00    +0.026 C 
ATOM     23  C   UNL     1      36.187 -23.383 -11.478  0.00  0.00    +0.005 C 
ENDBRANCH   5  22
BRANCH   4  24
ATOM     24  C   UNL     1      32.419 -23.731 -13.413  0.00  0.00    +0.052 C 
BRANCH  24  27
ATOM     25  O   UNL     1      28.606 -21.923 -15.859  0.00  0.00    -0.468 OA
ATOM     26  O   UNL     1      27.824 -24.589 -16.627  0.00  0.00    -0.468 OA
ATOM     27  C   UNL     1      31.183 -23.942 -14.263  0.00  0.00    -0.015 C 
ATOM     28  C   UNL     1      30.444 -22.843 -14.700  0.00  0.00    +0.036 C 
ATOM     29  C   UNL     1      30.782 -25.235 -14.602  0.00  0.00    -0.001 C 
ATOM     30  C   UNL     1      29.302 -23.041 -15.476  0.00  0.00    +0.172 C 
ATOM     31  C   UNL     1      28.916 -24.333 -15.839  0.00  0.00    +0.172 C 
ATOM     32  C   UNL     1      29.648 -25.432 -15.389  0.00  0.00    +0.040 C 
ATOM     33  C   UNL     1      27.298 -22.247 -16.338  0.00  0.00    +0.253 C 
ATOM     34  C   UNL     1      27.366 -23.415 -17.301  0.00  0.00    +0.253 C 
ENDBRANCH  24  27
ENDBRANCH   4  24
TORSDOF 9
ENDMDL
MODEL 6
REMARK VINA RESULT:      -9.5      2.715      7.472
REMARK  Name = 52913524
REMARK  9 active torsions:
REMARK  status: ('A' for Active; 'I' for Inactive)
REMARK    1  A    between atoms: C_1  and  C_10
REMARK    2  A    between atoms: C_4  and  C_24
REMARK    3  A    between atoms: C_5  and  C_22
REMARK    4  A    between atoms: C_8  and  O_13
REMARK    5  A    between atoms: C_9  and  O_15
REMARK    6  A    between atoms: C_11  and  O_17
REMARK    7  A    between atoms: C_12  and  C_19
REMARK    8  A    between atoms: C_19  and  O_20
REMARK    9  A    between atoms: C_24  and  C_27
REMARK                            x       y       z     vdW  Elec       q    Type
REMARK                         _______ _______ _______ _____ _____    ______ ____
ROOT
ATOM      1  C   UNL     1      33.180 -22.909 -17.094  0.00  0.00    +0.007 C 
ATOM      2  C   UNL     1      34.461 -22.845 -16.546  0.00  0.00    -0.006 C 
ATOM      3  C   UNL     1      32.936 -22.383 -18.363  0.00  0.00    -0.002 C 
ATOM      4  C   UNL     1      35.499 -22.254 -17.267  0.00  0.00    -0.022 C 
ATOM      5  C   UNL     1      35.255 -21.727 -18.536  0.00  0.00    -0.026 C 
ATOM      6  C   UNL     1      33.974 -21.791 -19.083  0.00  0.00    -0.005 C 
ENDROOT
BRANCH   1  10
ATOM      7  O   UNL     1      30.840 -22.876 -16.659  0.00  0.00    -0.347 OA
ATOM      8  C   UNL     1      32.297 -23.491 -14.796  0.00  0.00    +0.171 C 
ATOM      9  C   UNL     1      31.076 -24.000 -14.022  0.00  0.00    +0.169 C 
ATOM     10  C   UNL     1      32.052 -23.553 -16.311  0.00  0.00    +0.167 C 
ATOM     11  C   UNL     1      29.788 -23.352 -14.527  0.00  0.00    +0.169 C 
ATOM     12  C   UNL     1      29.686 -23.458 -16.050  0.00  0.00    +0.174 C 
BRANCH   8  13
ATOM     13  O   UNL     1      33.421 -24.311 -14.480  0.00  0.00    -0.379 OA
ATOM     14  H   UNL     1      33.923 -23.907 -13.755  0.00  0.00    +0.211 HD
ENDBRANCH   8  13
BRANCH   9  15
ATOM     15  O   UNL     1      31.222 -23.675 -12.639  0.00  0.00    -0.379 OA
ATOM     16  H   UNL     1      30.702 -24.295 -12.105  0.00  0.00    +0.211 HD
ENDBRANCH   9  15
BRANCH  11  17
ATOM     17  O   UNL     1      28.669 -24.006 -13.935  0.00  0.00    -0.379 OA
ATOM     18  H   UNL     1      28.074 -24.324 -14.633  0.00  0.00    +0.211 HD
ENDBRANCH  11  17
BRANCH  12  19
ATOM     19  C   UNL     1      28.464 -22.721 -16.588  0.00  0.00    +0.169 C 
BRANCH  19  20
ATOM     20  O   UNL     1      27.613 -23.660 -17.219  0.00  0.00    -0.379 OA
ATOM     21  H   UNL     1      27.819 -24.551 -16.894  0.00  0.00    +0.211 HD
ENDBRANCH  19  20
ENDBRANCH  12  19
ENDBRANCH   1  10
BRANCH   5  22
ATOM     22  C   UNL     1      36.349 -21.088 -19.326  0.00  0.00    +0.026 C 
ATOM     23  C   UNL     1      35.814 -20.157 -20.409  0.00  0.00    +0.005 C 
ENDBRANCH   5  22
BRANCH   4  24
ATOM     24  C   UNL     1      36.862 -22.196 -16.660  0.00  0.00    +0.052 C 
BRANCH  24  27
ATOM     25  O   UNL     1      37.376 -26.288 -14.055  0.00  0.00    -0.468 OA
ATOM     26  O   UNL     1      37.289 -24.755 -11.615  0.00  0.00    -0.468 OA
ATOM     27  C   UNL     1      36.967 -22.897 -15.321  0.00  0.00    -0.015 C 
ATOM     28  C   UNL     1      37.139 -24.281 -15.272  0.00  0.00    +0.036 C 
ATOM     29  C   UNL     1      36.885 -22.160 -14.139  0.00  0.00    -0.001 C 
ATOM     30  C   UNL     1      37.228 -24.925 -14.038  0.00  0.00    +0.172 C 
ATOM     31  C   UNL     1      37.174 -24.184 -12.856  0.00  0.00    +0.172 C 
ATOM     32  C   UNL     1      36.988 -22.802 -12.906  0.00  0.00    +0.040 C 
ATOM     33  C   UNL     1      37.110 -26.869 -12.775  0.00  0.00    +0.253 C 
ATOM     34  C   UNL     1      37.813 -26.083 -11.686  0.00  0.00    +0.253 C 
ENDBRANCH  24  27
ENDBRANCH   4  24
TORSDOF 9
ENDMDL
MODEL 7
REMARK VINA RESULT:      -9.5      5.143      9.707
REMARK  Name = 52913524
REMARK  9 active torsions:
REMARK  status: ('A' for Active; 'I' for Inactive)
REMARK    1  A    between atoms: C_1  and  C_10
REMARK    2  A    between atoms: C_4  and  C_24
REMARK    3  A    between atoms: C_5  and  C_22
REMARK    4  A    between atoms: C_8  and  O_13
REMARK    5  A    between atoms: C_9  and  O_15
REMARK    6  A    between atoms: C_11  and  O_17
REMARK    7  A    between atoms: C_12  and  C_19
REMARK    8  A    between atoms: C_19  and  O_20
REMARK    9  A    between atoms: C_24  and  C_27
REMARK                            x       y       z     vdW  Elec       q    Type
REMARK                         _______ _______ _______ _____ _____    ______ ____
ROOT
ATOM      1  C   UNL     1      34.958 -18.618 -22.796  0.00  0.00    +0.007 C 
ATOM      2  C   UNL     1      35.247 -17.255 -22.749  0.00  0.00    -0.006 C 
ATOM      3  C   UNL     1      34.093 -19.115 -23.771  0.00  0.00    -0.002 C 
ATOM      4  C   UNL     1      34.670 -16.387 -23.676  0.00  0.00    -0.022 C 
ATOM      5  C   UNL     1      33.804 -16.884 -24.651  0.00  0.00    -0.026 C 
ATOM      6  C   UNL     1      33.516 -18.248 -24.699  0.00  0.00    -0.005 C 
ENDROOT
BRANCH   1  10
ATOM      7  O   UNL     1      34.538 -20.074 -20.961  0.00  0.00    -0.347 OA
ATOM      8  C   UNL     1      36.661 -18.863 -20.941  0.00  0.00    +0.171 C 
ATOM      9  C   UNL     1      37.165 -19.786 -19.827  0.00  0.00    +0.169 C 
ATOM     10  C   UNL     1      35.586 -19.561 -21.788  0.00  0.00    +0.167 C 
ATOM     11  C   UNL     1      36.005 -20.420 -19.062  0.00  0.00    +0.169 C 
ATOM     12  C   UNL     1      34.998 -21.051 -20.026  0.00  0.00    +0.174 C 
BRANCH   8  13
ATOM     13  O   UNL     1      37.755 -18.514 -21.786  0.00  0.00    -0.379 OA
ATOM     14  H   UNL     1      38.055 -17.616 -21.574  0.00  0.00    +0.211 HD
ENDBRANCH   8  13
BRANCH   9  15
ATOM     15  O   UNL     1      37.944 -19.029 -18.899  0.00  0.00    -0.379 OA
ATOM     16  H   UNL     1      38.463 -18.365 -19.380  0.00  0.00    +0.211 HD
ENDBRANCH   9  15
BRANCH  11  17
ATOM     17  O   UNL     1      36.511 -21.426 -18.188  0.00  0.00    -0.379 OA
ATOM     18  H   UNL     1      36.578 -22.267 -18.668  0.00  0.00    +0.211 HD
ENDBRANCH  11  17
BRANCH  12  19
ATOM     19  C   UNL     1      33.775 -21.593 -19.292  0.00  0.00    +0.169 C 
BRANCH  19  20
ATOM     20  O   UNL     1      32.644 -20.836 -19.680  0.00  0.00    -0.379 OA
ATOM     21  H   UNL     1      31.993 -21.419 -20.100  0.00  0.00    +0.211 HD
ENDBRANCH  19  20
ENDBRANCH  12  19
ENDBRANCH   1  10
BRANCH   5  22
ATOM     22  C   UNL     1      33.173 -15.975 -25.654  0.00  0.00    +0.026 C 
ATOM     23  C   UNL     1      31.869 -16.539 -26.208  0.00  0.00    +0.005 C 
ENDBRANCH   5  22
BRANCH   4  24
ATOM     24  C   UNL     1      34.993 -14.931 -23.606  0.00  0.00    +0.052 C 
BRANCH  24  27
ATOM     25  O   UNL     1      32.304 -10.972 -22.664  0.00  0.00    -0.468 OA
ATOM     26  O   UNL     1      31.581 -12.064 -20.095  0.00  0.00    -0.468 OA
ATOM     27  C   UNL     1      34.089 -14.147 -22.677  0.00  0.00    -0.015 C 
ATOM     28  C   UNL     1      33.581 -12.911 -23.079  0.00  0.00    +0.036 C 
ATOM     29  C   UNL     1      33.770 -14.657 -21.418  0.00  0.00    -0.001 C 
ATOM     30  C   UNL     1      32.755 -12.188 -22.220  0.00  0.00    +0.172 C 
ATOM     31  C   UNL     1      32.414 -12.711 -20.971  0.00  0.00    +0.172 C 
ATOM     32  C   UNL     1      32.933 -13.940 -20.563  0.00  0.00    +0.040 C 
ATOM     33  C   UNL     1      31.771 -10.180 -21.599  0.00  0.00    +0.253 C 
ATOM     34  C   UNL     1      30.848 -11.015 -20.735  0.00  0.00    +0.253 C 
ENDBRANCH  24  27
ENDBRANCH   4  24
TORSDOF 9
ENDMDL
MODEL 8
REMARK VINA RESULT:      -9.5      1.708      6.830
REMARK  Name = 52913524
REMARK  9 active torsions:
REMARK  status: ('A' for Active; 'I' for Inactive)
REMARK    1  A    between atoms: C_1  and  C_10
REMARK    2  A    between atoms: C_4  and  C_24
REMARK    3  A    between atoms: C_5  and  C_22
REMARK    4  A    between atoms: C_8  and  O_13
REMARK    5  A    between atoms: C_9  and  O_15
REMARK    6  A    between atoms: C_11  and  O_17
REMARK    7  A    between atoms: C_12  and  C_19
REMARK    8  A    between atoms: C_19  and  O_20
REMARK    9  A    between atoms: C_24  and  C_27
REMARK                            x       y       z     vdW  Elec       q    Type
REMARK                         _______ _______ _______ _____ _____    ______ ____
ROOT
ATOM      1  C   UNL     1      33.228 -23.025 -16.636  0.00  0.00    +0.007 C 
ATOM      2  C   UNL     1      33.629 -23.540 -15.404  0.00  0.00    -0.006 C 
ATOM      3  C   UNL     1      31.873 -22.824 -16.901  0.00  0.00    -0.002 C 
ATOM      4  C   UNL     1      32.675 -23.855 -14.436  0.00  0.00    -0.022 C 
ATOM      5  C   UNL     1      31.320 -23.655 -14.702  0.00  0.00    -0.026 C 
ATOM      6  C   UNL     1      30.919 -23.139 -15.934  0.00  0.00    -0.005 C 
ENDROOT
BRANCH   1  10
ATOM      7  O   UNL     1      35.404 -22.138 -17.012  0.00  0.00    -0.347 OA
ATOM      8  C   UNL     1      33.723 -21.690 -18.728  0.00  0.00    +0.171 C 
ATOM      9  C   UNL     1      34.831 -21.235 -19.682  0.00  0.00    +0.169 C 
ATOM     10  C   UNL     1      34.265 -22.681 -17.687  0.00  0.00    +0.167 C 
ATOM     11  C   UNL     1      36.079 -20.797 -18.916  0.00  0.00    +0.169 C 
ATOM     12  C   UNL     1      36.491 -21.860 -17.896  0.00  0.00    +0.174 C 
BRANCH   8  13
ATOM     13  O   UNL     1      32.697 -22.334 -19.482  0.00  0.00    -0.379 OA
ATOM     14  H   UNL     1      32.985 -22.435 -20.402  0.00  0.00    +0.211 HD
ENDBRANCH   8  13
BRANCH   9  15
ATOM     15  O   UNL     1      34.370 -20.121 -20.448  0.00  0.00    -0.379 OA
ATOM     16  H   UNL     1      34.812 -20.117 -21.312  0.00  0.00    +0.211 HD
ENDBRANCH   9  15
BRANCH  11  17
ATOM     17  O   UNL     1      37.147 -20.590 -19.836  0.00  0.00    -0.379 OA
ATOM     18  H   UNL     1      37.329 -21.416 -20.312  0.00  0.00    +0.211 HD
ENDBRANCH  11  17
BRANCH  12  19
ATOM     19  C   UNL     1      37.668 -21.398 -17.042  0.00  0.00    +0.169 C 
BRANCH  19  20
ATOM     20  O   UNL     1      37.600 -19.991 -16.904  0.00  0.00    -0.379 OA
ATOM     21  H   UNL     1      37.537 -19.761 -15.964  0.00  0.00    +0.211 HD
ENDBRANCH  19  20
ENDBRANCH  12  19
ENDBRANCH   1  10
BRANCH   5  22
ATOM     22  C   UNL     1      30.280 -23.985 -13.682  0.00  0.00    +0.026 C 
ATOM     23  C   UNL     1      29.304 -25.049 -14.174  0.00  0.00    +0.005 C 
ENDBRANCH   5  22
BRANCH   4  24
ATOM     24  C   UNL     1      33.127 -24.406 -13.124  0.00  0.00    +0.052 C 
BRANCH  24  27
ATOM     25  O   UNL     1      37.482 -26.024 -14.611  0.00  0.00    -0.468 OA
ATOM     26  O   UNL     1      38.766 -24.528 -12.507  0.00  0.00    -0.468 OA
ATOM     27  C   UNL     1      34.633 -24.459 -12.968  0.00  0.00    -0.015 C 
ATOM     28  C   UNL     1      35.400 -25.205 -13.863  0.00  0.00    +0.036 C 
ATOM     29  C   UNL     1      35.251 -23.766 -11.926  0.00  0.00    -0.001 C 
ATOM     30  C   UNL     1      36.785 -25.257 -13.713  0.00  0.00    +0.172 C 
ATOM     31  C   UNL     1      37.406 -24.542 -12.687  0.00  0.00    +0.172 C 
ATOM     32  C   UNL     1      36.638 -23.808 -11.784  0.00  0.00    +0.040 C 
ATOM     33  C   UNL     1      38.817 -26.285 -14.167  0.00  0.00    +0.253 C 
ATOM     34  C   UNL     1      39.460 -25.009 -13.660  0.00  0.00    +0.253 C 
ENDBRANCH  24  27
ENDBRANCH   4  24
TORSDOF 9
ENDMDL
MODEL 9
REMARK VINA RESULT:      -9.2      2.515      5.443
REMARK  Name = 52913524
REMARK  9 active torsions:
REMARK  status: ('A' for Active; 'I' for Inactive)
REMARK    1  A    between atoms: C_1  and  C_10
REMARK    2  A    between atoms: C_4  and  C_24
REMARK    3  A    between atoms: C_5  and  C_22
REMARK    4  A    between atoms: C_8  and  O_13
REMARK    5  A    between atoms: C_9  and  O_15
REMARK    6  A    between atoms: C_11  and  O_17
REMARK    7  A    between atoms: C_12  and  C_19
REMARK    8  A    between atoms: C_19  and  O_20
REMARK    9  A    between atoms: C_24  and  C_27
REMARK                            x       y       z     vdW  Elec       q    Type
REMARK                         _______ _______ _______ _____ _____    ______ ____
ROOT
ATOM      1  C   UNL     1      36.327 -23.223 -15.645  0.00  0.00    +0.007 C 
ATOM      2  C   UNL     1      35.051 -23.203 -16.210  0.00  0.00    -0.006 C 
ATOM      3  C   UNL     1      37.376 -22.545 -16.266  0.00  0.00    -0.002 C 
ATOM      4  C   UNL     1      34.826 -22.506 -17.398  0.00  0.00    -0.022 C 
ATOM      5  C   UNL     1      35.876 -21.829 -18.019  0.00  0.00    -0.026 C 
ATOM      6  C   UNL     1      37.150 -21.848 -17.454  0.00  0.00    -0.005 C 
ENDROOT
BRANCH   1  10
ATOM      7  O   UNL     1      36.881 -23.018 -13.340  0.00  0.00    -0.347 OA
ATOM      8  C   UNL     1      37.703 -25.008 -14.497  0.00  0.00    +0.171 C 
ATOM      9  C   UNL     1      38.040 -25.643 -13.144  0.00  0.00    +0.169 C 
ATOM     10  C   UNL     1      36.571 -23.979 -14.354  0.00  0.00    +0.167 C 
ATOM     11  C   UNL     1      38.223 -24.581 -12.061  0.00  0.00    +0.169 C 
ATOM     12  C   UNL     1      37.042 -23.608 -12.049  0.00  0.00    +0.174 C 
BRANCH   8  13
ATOM     13  O   UNL     1      37.282 -26.030 -15.398  0.00  0.00    -0.379 OA
ATOM     14  H   UNL     1      36.413 -26.364 -15.126  0.00  0.00    +0.211 HD
ENDBRANCH   8  13
BRANCH   9  15
ATOM     15  O   UNL     1      39.262 -26.376 -13.255  0.00  0.00    -0.379 OA
ATOM     16  H   UNL     1      39.448 -26.823 -12.415  0.00  0.00    +0.211 HD
ENDBRANCH   9  15
BRANCH  11  17
ATOM     17  O   UNL     1      38.320 -25.217 -10.789  0.00  0.00    -0.379 OA
ATOM     18  H   UNL     1      37.429 -25.405 -10.453  0.00  0.00    +0.211 HD
ENDBRANCH  11  17
BRANCH  12  19
ATOM     19  C   UNL     1      37.254 -22.474 -11.051  0.00  0.00    +0.169 C 
BRANCH  19  20
ATOM     20  O   UNL     1      36.859 -22.923  -9.768  0.00  0.00    -0.379 OA
ATOM     21  H   UNL     1      36.149 -23.578  -9.860  0.00  0.00    +0.211 HD
ENDBRANCH  19  20
ENDBRANCH  12  19
ENDBRANCH   1  10
BRANCH   5  22
ATOM     22  C   UNL     1      35.658 -21.077 -19.291  0.00  0.00    +0.026 C 
ATOM     23  C   UNL     1      36.881 -20.260 -19.697  0.00  0.00    +0.005 C 
ENDBRANCH   5  22
BRANCH   4  24
ATOM     24  C   UNL     1      33.453 -22.500 -17.985  0.00  0.00    +0.052 C 
BRANCH  24  27
ATOM     25  O   UNL     1      28.777 -22.382 -16.601  0.00  0.00    -0.468 OA
ATOM     26  O   UNL     1      29.415 -23.970 -14.281  0.00  0.00    -0.468 OA
ATOM     27  C   UNL     1      32.364 -22.874 -17.001  0.00  0.00    -0.015 C 
ATOM     28  C   UNL     1      31.047 -22.478 -17.236  0.00  0.00    +0.036 C 
ATOM     29  C   UNL     1      32.679 -23.610 -15.857  0.00  0.00    -0.001 C 
ATOM     30  C   UNL     1      30.047 -22.818 -16.325  0.00  0.00    +0.172 C 
ATOM     31  C   UNL     1      30.358 -23.577 -15.195  0.00  0.00    +0.172 C 
ATOM     32  C   UNL     1      31.677 -23.961 -14.953  0.00  0.00    +0.040 C 
ATOM     33  C   UNL     1      27.920 -22.479 -15.460  0.00  0.00    +0.253 C 
ATOM     34  C   UNL     1      28.087 -23.829 -14.792  0.00  0.00    +0.253 C 
ENDBRANCH  24  27
ENDBRANCH   4  24
TORSDOF 9
ENDMDL
