MODEL 1
REMARK VINA RESULT:     -11.6      0.000      0.000
REMARK  Name = 9865515
REMARK  6 active torsions:
REMARK  status: ('A' for Active; 'I' for Inactive)
REMARK    1  A    between atoms: C_1  and  C_20
REMARK    2  A    between atoms: C_2  and  C_9
REMARK    3  A    between atoms: N_8  and  C_11
REMARK    4  A    between atoms: C_12  and  N_17
REMARK    5  A    between atoms: C_20  and  N_21
REMARK    6  A    between atoms: C_25  and  C_30
REMARK                            x       y       z     vdW  Elec       q    Type
REMARK                         _______ _______ _______ _____ _____    ______ ____
ROOT
ATOM      1  C   UNL     1      34.231 -22.340 -18.739  0.00  0.00    -0.002 C 
ATOM      2  C   UNL     1      35.003 -20.219 -20.377  0.00  0.00    +0.054 C 
ATOM      3  C   UNL     1      35.582 -22.032 -18.890  0.00  0.00    -0.002 C 
ATOM      4  C   UNL     1      33.265 -21.588 -19.407  0.00  0.00    -0.002 C 
ATOM      5  C   UNL     1      35.969 -20.972 -19.709  0.00  0.00    +0.004 C 
ATOM      6  C   UNL     1      33.651 -20.527 -20.226  0.00  0.00    +0.004 C 
ENDROOT
BRANCH   2   9
ATOM      7  O   UNL     1      36.607 -18.804 -21.292  0.00  0.00    -0.270 OA
ATOM      8  N   UNL     1      34.378 -18.495 -21.957  0.00  0.00    -0.279 N 
ATOM      9  C   UNL     1      35.406 -19.114 -21.233  0.00  0.00    +0.250 C 
ATOM     10  H   UNL     1      33.473 -18.851 -21.805  0.00  0.00    +0.155 HD
BRANCH   8  11
ATOM     11  C   UNL     1      34.471 -17.422 -22.879  0.00  0.00    +0.064 C 
ATOM     12  C   UNL     1      34.221 -17.633 -24.225  0.00  0.00    +0.055 C 
ATOM     13  C   UNL     1      34.818 -16.170 -22.397  0.00  0.00    +0.016 C 
ATOM     14  C   UNL     1      34.320 -16.561 -25.113  0.00  0.00    +0.015 C 
ATOM     15  C   UNL     1      34.917 -15.100 -23.284  0.00  0.00    +0.001 C 
ATOM     16  C   UNL     1      34.669 -15.295 -24.643  0.00  0.00    +0.001 C 
BRANCH  12  17
ATOM     17  N   UNL     1      33.866 -18.906 -24.722  0.00  0.00    -0.356 N 
ATOM     18  H   UNL     1      32.932 -19.095 -24.970  0.00  0.00    +0.142 HD
ATOM     19  H   UNL     1      34.552 -19.605 -24.821  0.00  0.00    +0.142 HD
ENDBRANCH  12  17
ENDBRANCH   8  11
ENDBRANCH   2   9
BRANCH   1  20
ATOM     20  C   UNL     1      33.817 -23.474 -17.862  0.00  0.00    +0.124 C 
BRANCH  20  21
ATOM     21  N   UNL     1      32.707 -23.093 -17.015  0.00  0.00    -0.264 N 
ATOM     22  N   UNL     1      33.778 -23.869 -15.076  0.00  0.00    -0.338 NA
ATOM     23  N   UNL     1      31.582 -22.882 -14.966  0.00  0.00    -0.170 NA
ATOM     24  C   UNL     1      32.689 -23.288 -15.644  0.00  0.00    +0.145 C 
ATOM     25  C   UNL     1      33.726 -24.043 -13.739  0.00  0.00    +0.147 C 
ATOM     26  C   UNL     1      32.652 -23.668 -12.958  0.00  0.00    +0.055 C 
ATOM     27  C   UNL     1      31.598 -23.087 -13.632  0.00  0.00    +0.114 C 
ATOM     28  H   UNL     1      31.923 -22.673 -17.436  0.00  0.00    +0.160 HD
BRANCH  25  30
ATOM     29  N   UNL     1      36.125 -25.282 -11.171  0.00  0.00    -0.242 NA
ATOM     30  C   UNL     1      34.893 -24.662 -13.155  0.00  0.00    +0.050 C 
ATOM     31  C   UNL     1      35.886 -25.219 -13.955  0.00  0.00    +0.006 C 
ATOM     32  C   UNL     1      35.059 -24.720 -11.781  0.00  0.00    +0.101 C 
ATOM     33  C   UNL     1      36.998 -25.807 -13.363  0.00  0.00    +0.021 C 
ATOM     34  C   UNL     1      37.070 -25.813 -11.979  0.00  0.00    +0.099 C 
ENDBRANCH  25  30
ENDBRANCH  20  21
ENDBRANCH   1  20
TORSDOF 6
ENDMDL
MODEL 2
REMARK VINA RESULT:     -11.5      0.718      1.609
REMARK  Name = 9865515
REMARK  6 active torsions:
REMARK  status: ('A' for Active; 'I' for Inactive)
REMARK    1  A    between atoms: C_1  and  C_20
REMARK    2  A    between atoms: C_2  and  C_9
REMARK    3  A    between atoms: N_8  and  C_11
REMARK    4  A    between atoms: C_12  and  N_17
REMARK    5  A    between atoms: C_20  and  N_21
REMARK    6  A    between atoms: C_25  and  C_30
REMARK                            x       y       z     vdW  Elec       q    Type
REMARK                         _______ _______ _______ _____ _____    ______ ____
ROOT
ATOM      1  C   UNL     1      34.694 -22.021 -18.846  0.00  0.00    -0.002 C 
ATOM      2  C   UNL     1      35.297 -19.926 -20.586  0.00  0.00    +0.054 C 
ATOM      3  C   UNL     1      33.668 -21.342 -19.501  0.00  0.00    -0.002 C 
ATOM      4  C   UNL     1      36.022 -21.654 -19.061  0.00  0.00    -0.002 C 
ATOM      5  C   UNL     1      33.968 -20.294 -20.371  0.00  0.00    +0.004 C 
ATOM      6  C   UNL     1      36.323 -20.606 -19.931  0.00  0.00    +0.004 C 
ENDROOT
BRANCH   2   9
ATOM      7  O   UNL     1      36.794 -18.632 -21.809  0.00  0.00    -0.270 OA
ATOM      8  N   UNL     1      34.515 -18.092 -21.959  0.00  0.00    -0.279 N 
ATOM      9  C   UNL     1      35.610 -18.831 -21.491  0.00  0.00    +0.250 C 
ATOM     10  H   UNL     1      33.635 -18.368 -21.617  0.00  0.00    +0.155 HD
BRANCH   8  11
ATOM     11  C   UNL     1      34.511 -16.997 -22.860  0.00  0.00    +0.064 C 
ATOM     12  C   UNL     1      34.548 -15.698 -22.381  0.00  0.00    +0.055 C 
ATOM     13  C   UNL     1      34.469 -17.265 -24.218  0.00  0.00    +0.016 C 
ATOM     14  C   UNL     1      34.542 -14.637 -23.287  0.00  0.00    +0.015 C 
ATOM     15  C   UNL     1      34.464 -16.204 -25.123  0.00  0.00    +0.001 C 
ATOM     16  C   UNL     1      34.500 -14.889 -24.657  0.00  0.00    +0.001 C 
BRANCH  12  17
ATOM     17  N   UNL     1      34.592 -15.419 -20.997  0.00  0.00    -0.356 N 
ATOM     18  H   UNL     1      33.804 -15.038 -20.546  0.00  0.00    +0.142 HD
ATOM     19  H   UNL     1      35.411 -15.606 -20.483  0.00  0.00    +0.142 HD
ENDBRANCH  12  17
ENDBRANCH   8  11
ENDBRANCH   2   9
BRANCH   1  20
ATOM     20  C   UNL     1      34.373 -23.144 -17.917  0.00  0.00    +0.124 C 
BRANCH  20  21
ATOM     21  N   UNL     1      33.158 -22.872 -17.179  0.00  0.00    -0.264 N 
ATOM     22  N   UNL     1      34.030 -23.771 -15.195  0.00  0.00    -0.338 NA
ATOM     23  N   UNL     1      31.796 -22.871 -15.268  0.00  0.00    -0.170 NA
ATOM     24  C   UNL     1      32.990 -23.181 -15.840  0.00  0.00    +0.145 C 
ATOM     25  C   UNL     1      33.832 -24.058 -13.892  0.00  0.00    +0.147 C 
ATOM     26  C   UNL     1      32.660 -23.786 -13.216  0.00  0.00    +0.055 C 
ATOM     27  C   UNL     1      31.666 -23.186 -13.962  0.00  0.00    +0.114 C 
ATOM     28  H   UNL     1      32.410 -22.445 -17.656  0.00  0.00    +0.160 HD
BRANCH  25  30
ATOM     29  N   UNL     1      36.062 -25.256 -11.156  0.00  0.00    -0.242 NA
ATOM     30  C   UNL     1      34.949 -24.684 -13.225  0.00  0.00    +0.050 C 
ATOM     31  C   UNL     1      35.964 -25.301 -13.949  0.00  0.00    +0.006 C 
ATOM     32  C   UNL     1      35.044 -24.690 -11.842  0.00  0.00    +0.101 C 
ATOM     33  C   UNL     1      37.028 -25.894 -13.279  0.00  0.00    +0.021 C 
ATOM     34  C   UNL     1      37.030 -25.845 -11.894  0.00  0.00    +0.099 C 
ENDBRANCH  25  30
ENDBRANCH  20  21
ENDBRANCH   1  20
TORSDOF 6
ENDMDL
MODEL 3
REMARK VINA RESULT:     -11.3      1.738      2.469
REMARK  Name = 9865515
REMARK  6 active torsions:
REMARK  status: ('A' for Active; 'I' for Inactive)
REMARK    1  A    between atoms: C_1  and  C_20
REMARK    2  A    between atoms: C_2  and  C_9
REMARK    3  A    between atoms: N_8  and  C_11
REMARK    4  A    between atoms: C_12  and  N_17
REMARK    5  A    between atoms: C_20  and  N_21
REMARK    6  A    between atoms: C_25  and  C_30
REMARK                            x       y       z     vdW  Elec       q    Type
REMARK                         _______ _______ _______ _____ _____    ______ ____
ROOT
ATOM      1  C   UNL     1      35.380 -21.124 -19.370  0.00  0.00    -0.002 C 
ATOM      2  C   UNL     1      34.888 -19.388 -21.497  0.00  0.00    +0.054 C 
ATOM      3  C   UNL     1      36.438 -20.443 -19.974  0.00  0.00    -0.002 C 
ATOM      4  C   UNL     1      34.077 -20.937 -19.830  0.00  0.00    -0.002 C 
ATOM      5  C   UNL     1      36.192 -19.576 -21.038  0.00  0.00    +0.004 C 
ATOM      6  C   UNL     1      33.831 -20.069 -20.893  0.00  0.00    +0.004 C 
ENDROOT
BRANCH   2   9
ATOM      7  O   UNL     1      34.486 -18.957 -23.748  0.00  0.00    -0.270 OA
ATOM      8  N   UNL     1      34.544 -17.125 -22.283  0.00  0.00    -0.279 N 
ATOM      9  C   UNL     1      34.632 -18.485 -22.609  0.00  0.00    +0.250 C 
ATOM     10  H   UNL     1      34.684 -16.902 -21.335  0.00  0.00    +0.155 HD
BRANCH   8  11
ATOM     11  C   UNL     1      34.282 -16.029 -23.143  0.00  0.00    +0.064 C 
ATOM     12  C   UNL     1      34.239 -14.739 -22.638  0.00  0.00    +0.055 C 
ATOM     13  C   UNL     1      34.071 -16.284 -24.488  0.00  0.00    +0.016 C 
ATOM     14  C   UNL     1      33.979 -13.676 -23.503  0.00  0.00    +0.015 C 
ATOM     15  C   UNL     1      33.811 -15.222 -25.352  0.00  0.00    +0.001 C 
ATOM     16  C   UNL     1      33.764 -13.917 -24.860  0.00  0.00    +0.001 C 
BRANCH  12  17
ATOM     17  N   UNL     1      34.455 -14.472 -21.268  0.00  0.00    -0.356 N 
ATOM     18  H   UNL     1      33.688 -14.389 -20.656  0.00  0.00    +0.142 HD
ATOM     19  H   UNL     1      35.372 -14.369 -20.924  0.00  0.00    +0.142 HD
ENDBRANCH  12  17
ENDBRANCH   8  11
ENDBRANCH   2   9
BRANCH   1  20
ATOM     20  C   UNL     1      35.643 -22.051 -18.231  0.00  0.00    +0.124 C 
BRANCH  20  21
ATOM     21  N   UNL     1      34.416 -22.374 -17.534  0.00  0.00    -0.264 N 
ATOM     22  N   UNL     1      35.556 -23.505 -15.822  0.00  0.00    -0.338 NA
ATOM     23  N   UNL     1      33.154 -23.323 -15.799  0.00  0.00    -0.170 NA
ATOM     24  C   UNL     1      34.375 -23.089 -16.349  0.00  0.00    +0.145 C 
ATOM     25  C   UNL     1      35.479 -24.198 -14.668  0.00  0.00    +0.147 C 
ATOM     26  C   UNL     1      34.291 -24.490 -14.027  0.00  0.00    +0.055 C 
ATOM     27  C   UNL     1      33.149 -24.022 -14.644  0.00  0.00    +0.114 C 
ATOM     28  H   UNL     1      33.566 -22.068 -17.924  0.00  0.00    +0.160 HD
BRANCH  25  30
ATOM     29  N   UNL     1      39.157 -24.643 -14.271  0.00  0.00    -0.242 NA
ATOM     30  C   UNL     1      36.744 -24.630 -14.125  0.00  0.00    +0.050 C 
ATOM     31  C   UNL     1      36.802 -25.419 -12.981  0.00  0.00    +0.006 C 
ATOM     32  C   UNL     1      37.940 -24.272 -14.726  0.00  0.00    +0.101 C 
ATOM     33  C   UNL     1      38.036 -25.821 -12.481  0.00  0.00    +0.021 C 
ATOM     34  C   UNL     1      39.174 -25.410 -13.157  0.00  0.00    +0.099 C 
ENDBRANCH  25  30
ENDBRANCH  20  21
ENDBRANCH   1  20
TORSDOF 6
ENDMDL
MODEL 4
REMARK VINA RESULT:     -11.3      2.308      3.414
REMARK  Name = 9865515
REMARK  6 active torsions:
REMARK  status: ('A' for Active; 'I' for Inactive)
REMARK    1  A    between atoms: C_1  and  C_20
REMARK    2  A    between atoms: C_2  and  C_9
REMARK    3  A    between atoms: N_8  and  C_11
REMARK    4  A    between atoms: C_12  and  N_17
REMARK    5  A    between atoms: C_20  and  N_21
REMARK    6  A    between atoms: C_25  and  C_30
REMARK                            x       y       z     vdW  Elec       q    Type
REMARK                         _______ _______ _______ _____ _____    ______ ____
ROOT
ATOM      1  C   UNL     1      35.028 -19.802 -20.880  0.00  0.00    -0.002 C 
ATOM      2  C   UNL     1      34.880 -17.682 -22.686  0.00  0.00    +0.054 C 
ATOM      3  C   UNL     1      35.716 -18.616 -20.621  0.00  0.00    -0.002 C 
ATOM      4  C   UNL     1      34.267 -19.927 -22.042  0.00  0.00    -0.002 C 
ATOM      5  C   UNL     1      35.643 -17.556 -21.525  0.00  0.00    +0.004 C 
ATOM      6  C   UNL     1      34.193 -18.867 -22.944  0.00  0.00    +0.004 C 
ENDROOT
BRANCH   2   9
ATOM      7  O   UNL     1      35.308 -16.711 -24.757  0.00  0.00    -0.270 OA
ATOM      8  N   UNL     1      34.132 -15.433 -23.179  0.00  0.00    -0.279 N 
ATOM      9  C   UNL     1      34.806 -16.577 -23.629  0.00  0.00    +0.250 C 
ATOM     10  H   UNL     1      33.787 -15.474 -22.259  0.00  0.00    +0.155 HD
BRANCH   8  11
ATOM     11  C   UNL     1      33.883 -14.225 -23.878  0.00  0.00    +0.064 C 
ATOM     12  C   UNL     1      33.303 -14.251 -25.135  0.00  0.00    +0.055 C 
ATOM     13  C   UNL     1      34.236 -13.030 -23.271  0.00  0.00    +0.016 C 
ATOM     14  C   UNL     1      33.068 -13.049 -25.804  0.00  0.00    +0.015 C 
ATOM     15  C   UNL     1      34.002 -11.829 -23.939  0.00  0.00    +0.001 C 
ATOM     16  C   UNL     1      33.418 -11.838 -25.206  0.00  0.00    +0.001 C 
BRANCH  12  17
ATOM     17  N   UNL     1      32.940 -15.465 -25.759  0.00  0.00    -0.356 N 
ATOM     18  H   UNL     1      32.507 -16.177 -25.236  0.00  0.00    +0.142 HD
ATOM     19  H   UNL     1      33.120 -15.600 -26.718  0.00  0.00    +0.142 HD
ENDBRANCH  12  17
ENDBRANCH   8  11
ENDBRANCH   2   9
BRANCH   1  20
ATOM     20  C   UNL     1      35.105 -20.936 -19.913  0.00  0.00    +0.124 C 
BRANCH  20  21
ATOM     21  N   UNL     1      33.788 -21.303 -19.441  0.00  0.00    -0.264 N 
ATOM     22  N   UNL     1      34.649 -22.407 -17.557  0.00  0.00    -0.338 NA
ATOM     23  N   UNL     1      32.275 -22.303 -17.952  0.00  0.00    -0.170 NA
ATOM     24  C   UNL     1      33.564 -22.026 -18.282  0.00  0.00    +0.145 C 
ATOM     25  C   UNL     1      34.395 -23.109 -16.435  0.00  0.00    +0.147 C 
ATOM     26  C   UNL     1      33.125 -23.444 -16.011  0.00  0.00    +0.055 C 
ATOM     27  C   UNL     1      32.093 -23.010 -16.817  0.00  0.00    +0.114 C 
ATOM     28  H   UNL     1      33.008 -21.022 -19.972  0.00  0.00    +0.160 HD
BRANCH  25  30
ATOM     29  N   UNL     1      37.869 -23.102 -15.087  0.00  0.00    -0.242 NA
ATOM     30  C   UNL     1      35.561 -23.504 -15.680  0.00  0.00    +0.050 C 
ATOM     31  C   UNL     1      35.532 -24.616 -14.844  0.00  0.00    +0.006 C 
ATOM     32  C   UNL     1      36.744 -22.787 -15.764  0.00  0.00    +0.101 C 
ATOM     33  C   UNL     1      36.671 -24.972 -14.131  0.00  0.00    +0.021 C 
ATOM     34  C   UNL     1      37.804 -24.189 -14.285  0.00  0.00    +0.099 C 
ENDBRANCH  25  30
ENDBRANCH  20  21
ENDBRANCH   1  20
TORSDOF 6
ENDMDL
MODEL 5
REMARK VINA RESULT:     -11.2      2.646     10.948
REMARK  Name = 9865515
REMARK  6 active torsions:
REMARK  status: ('A' for Active; 'I' for Inactive)
REMARK    1  A    between atoms: C_1  and  C_20
REMARK    2  A    between atoms: C_2  and  C_9
REMARK    3  A    between atoms: N_8  and  C_11
REMARK    4  A    between atoms: C_12  and  N_17
REMARK    5  A    between atoms: C_20  and  N_21
REMARK    6  A    between atoms: C_25  and  C_30
REMARK                            x       y       z     vdW  Elec       q    Type
REMARK                         _______ _______ _______ _____ _____    ______ ____
ROOT
ATOM      1  C   UNL     1      35.055 -20.265 -20.332  0.00  0.00    -0.002 C 
ATOM      2  C   UNL     1      33.925 -22.146 -18.610  0.00  0.00    +0.054 C 
ATOM      3  C   UNL     1      33.668 -20.392 -20.251  0.00  0.00    -0.002 C 
ATOM      4  C   UNL     1      35.877 -21.078 -19.552  0.00  0.00    -0.002 C 
ATOM      5  C   UNL     1      33.103 -21.333 -19.391  0.00  0.00    +0.004 C 
ATOM      6  C   UNL     1      35.312 -22.018 -18.691  0.00  0.00    +0.004 C 
ENDROOT
BRANCH   2   9
ATOM      7  O   UNL     1      33.500 -24.336 -17.951  0.00  0.00    -0.270 OA
ATOM      8  N   UNL     1      32.634 -22.612 -16.616  0.00  0.00    -0.279 N 
ATOM      9  C   UNL     1      33.336 -23.129 -17.714  0.00  0.00    +0.250 C 
ATOM     10  H   UNL     1      32.588 -21.631 -16.561  0.00  0.00    +0.155 HD
BRANCH   8  11
ATOM     11  C   UNL     1      31.983 -23.319 -15.574  0.00  0.00    +0.064 C 
ATOM     12  C   UNL     1      30.601 -23.404 -15.545  0.00  0.00    +0.055 C 
ATOM     13  C   UNL     1      32.763 -23.915 -14.597  0.00  0.00    +0.016 C 
ATOM     14  C   UNL     1      29.982 -24.105 -14.509  0.00  0.00    +0.015 C 
ATOM     15  C   UNL     1      32.145 -24.616 -13.562  0.00  0.00    +0.001 C 
ATOM     16  C   UNL     1      30.754 -24.711 -13.518  0.00  0.00    +0.001 C 
BRANCH  12  17
ATOM     17  N   UNL     1      29.800 -22.799 -16.539  0.00  0.00    -0.356 N 
ATOM     18  H   UNL     1      30.172 -22.085 -17.104  0.00  0.00    +0.142 HD
ATOM     19  H   UNL     1      28.868 -23.093 -16.666  0.00  0.00    +0.142 HD
ENDBRANCH  12  17
ENDBRANCH   8  11
ENDBRANCH   2   9
BRANCH   1  20
ATOM     20  C   UNL     1      35.660 -19.258 -21.252  0.00  0.00    +0.124 C 
BRANCH  20  21
ATOM     21  N   UNL     1      35.182 -19.441 -22.605  0.00  0.00    -0.264 N 
ATOM     22  N   UNL     1      34.573 -17.184 -22.813  0.00  0.00    -0.338 NA
ATOM     23  N   UNL     1      34.236 -18.729 -24.631  0.00  0.00    -0.170 NA
ATOM     24  C   UNL     1      34.647 -18.420 -23.373  0.00  0.00    +0.145 C 
ATOM     25  C   UNL     1      34.047 -16.214 -23.588  0.00  0.00    +0.147 C 
ATOM     26  C   UNL     1      33.600 -16.420 -24.878  0.00  0.00    +0.055 C 
ATOM     27  C   UNL     1      33.720 -17.711 -25.352  0.00  0.00    +0.114 C 
ATOM     28  H   UNL     1      35.241 -20.340 -23.002  0.00  0.00    +0.160 HD
BRANCH  25  30
ATOM     29  N   UNL     1      33.639 -12.528 -23.221  0.00  0.00    -0.242 NA
ATOM     30  C   UNL     1      33.977 -14.908 -22.975  0.00  0.00    +0.050 C 
ATOM     31  C   UNL     1      34.169 -14.747 -21.607  0.00  0.00    +0.006 C 
ATOM     32  C   UNL     1      33.716 -13.777 -23.731  0.00  0.00    +0.101 C 
ATOM     33  C   UNL     1      34.097 -13.477 -21.045  0.00  0.00    +0.021 C 
ATOM     34  C   UNL     1      33.831 -12.409 -21.888  0.00  0.00    +0.099 C 
ENDBRANCH  25  30
ENDBRANCH  20  21
ENDBRANCH   1  20
TORSDOF 6
ENDMDL
MODEL 6
REMARK VINA RESULT:     -11.2      2.635     11.406
REMARK  Name = 9865515
REMARK  6 active torsions:
REMARK  status: ('A' for Active; 'I' for Inactive)
REMARK    1  A    between atoms: C_1  and  C_20
REMARK    2  A    between atoms: C_2  and  C_9
REMARK    3  A    between atoms: N_8  and  C_11
REMARK    4  A    between atoms: C_12  and  N_17
REMARK    5  A    between atoms: C_20  and  N_21
REMARK    6  A    between atoms: C_25  and  C_30
REMARK                            x       y       z     vdW  Elec       q    Type
REMARK                         _______ _______ _______ _____ _____    ______ ____
ROOT
ATOM      1  C   UNL     1      35.534 -18.860 -21.254  0.00  0.00    -0.002 C 
ATOM      2  C   UNL     1      35.213 -21.030 -19.532  0.00  0.00    +0.054 C 
ATOM      3  C   UNL     1      36.635 -19.378 -20.571  0.00  0.00    -0.002 C 
ATOM      4  C   UNL     1      34.273 -19.427 -21.075  0.00  0.00    -0.002 C 
ATOM      5  C   UNL     1      36.474 -20.462 -19.709  0.00  0.00    +0.004 C 
ATOM      6  C   UNL     1      34.112 -20.512 -20.214  0.00  0.00    +0.004 C 
ENDROOT
BRANCH   2   9
ATOM      7  O   UNL     1      34.585 -23.224 -19.077  0.00  0.00    -0.270 OA
ATOM      8  N   UNL     1      35.450 -21.951 -17.306  0.00  0.00    -0.279 N 
ATOM      9  C   UNL     1      35.044 -22.160 -18.631  0.00  0.00    +0.250 C 
ATOM     10  H   UNL     1      35.794 -21.052 -17.100  0.00  0.00    +0.155 HD
BRANCH   8  11
ATOM     11  C   UNL     1      35.429 -22.866 -16.223  0.00  0.00    +0.064 C 
ATOM     12  C   UNL     1      36.610 -23.257 -15.615  0.00  0.00    +0.055 C 
ATOM     13  C   UNL     1      34.203 -23.352 -15.798  0.00  0.00    +0.016 C 
ATOM     14  C   UNL     1      36.564 -24.159 -14.551  0.00  0.00    +0.015 C 
ATOM     15  C   UNL     1      34.157 -24.254 -14.735  0.00  0.00    +0.001 C 
ATOM     16  C   UNL     1      35.338 -24.658 -14.112  0.00  0.00    +0.001 C 
BRANCH  12  17
ATOM     17  N   UNL     1      37.863 -22.764 -16.043  0.00  0.00    -0.356 N 
ATOM     18  H   UNL     1      38.064 -22.699 -17.004  0.00  0.00    +0.142 HD
ATOM     19  H   UNL     1      38.535 -22.485 -15.379  0.00  0.00    +0.142 HD
ENDBRANCH  12  17
ENDBRANCH   8  11
ENDBRANCH   2   9
BRANCH   1  20
ATOM     20  C   UNL     1      35.706 -17.700 -22.177  0.00  0.00    +0.124 C 
BRANCH  20  21
ATOM     21  N   UNL     1      35.065 -17.953 -23.449  0.00  0.00    -0.264 N 
ATOM     22  N   UNL     1      34.185 -15.780 -23.563  0.00  0.00    -0.338 NA
ATOM     23  N   UNL     1      33.769 -17.377 -25.319  0.00  0.00    -0.170 NA
ATOM     24  C   UNL     1      34.317 -17.008 -24.130  0.00  0.00    +0.145 C 
ATOM     25  C   UNL     1      33.451 -14.885 -24.254  0.00  0.00    +0.147 C 
ATOM     26  C   UNL     1      32.852 -15.157 -25.467  0.00  0.00    +0.055 C 
ATOM     27  C   UNL     1      33.047 -16.432 -25.956  0.00  0.00    +0.114 C 
ATOM     28  H   UNL     1      35.167 -18.845 -23.852  0.00  0.00    +0.160 HD
BRANCH  25  30
ATOM     29  N   UNL     1      32.463 -12.241 -21.820  0.00  0.00    -0.242 NA
ATOM     30  C   UNL     1      33.323 -13.587 -23.634  0.00  0.00    +0.050 C 
ATOM     31  C   UNL     1      33.901 -12.458 -24.207  0.00  0.00    +0.006 C 
ATOM     32  C   UNL     1      32.621 -13.426 -22.450  0.00  0.00    +0.101 C 
ATOM     33  C   UNL     1      33.760 -11.222 -23.588  0.00  0.00    +0.021 C 
ATOM     34  C   UNL     1      33.038 -11.167 -22.406  0.00  0.00    +0.099 C 
ENDBRANCH  25  30
ENDBRANCH  20  21
ENDBRANCH   1  20
TORSDOF 6
ENDMDL
MODEL 7
REMARK VINA RESULT:     -11.0      5.853      9.842
REMARK  Name = 9865515
REMARK  6 active torsions:
REMARK  status: ('A' for Active; 'I' for Inactive)
REMARK    1  A    between atoms: C_1  and  C_20
REMARK    2  A    between atoms: C_2  and  C_9
REMARK    3  A    between atoms: N_8  and  C_11
REMARK    4  A    between atoms: C_12  and  N_17
REMARK    5  A    between atoms: C_20  and  N_21
REMARK    6  A    between atoms: C_25  and  C_30
REMARK                            x       y       z     vdW  Elec       q    Type
REMARK                         _______ _______ _______ _____ _____    ______ ____
ROOT
ATOM      1  C   UNL     1      33.792 -13.989 -21.570  0.00  0.00    -0.002 C 
ATOM      2  C   UNL     1      32.296 -11.635 -21.601  0.00  0.00    +0.054 C 
ATOM      3  C   UNL     1      32.906 -13.712 -20.528  0.00  0.00    -0.002 C 
ATOM      4  C   UNL     1      33.930 -13.090 -22.626  0.00  0.00    -0.002 C 
ATOM      5  C   UNL     1      32.159 -12.534 -20.544  0.00  0.00    +0.004 C 
ATOM      6  C   UNL     1      33.182 -11.913 -22.642  0.00  0.00    +0.004 C 
ENDROOT
BRANCH   2   9
ATOM      7  O   UNL     1      30.281 -10.474 -21.533  0.00  0.00    -0.270 OA
ATOM      8  N   UNL     1      32.255  -9.217 -21.700  0.00  0.00    -0.279 N 
ATOM      9  C   UNL     1      31.518 -10.406 -21.616  0.00  0.00    +0.250 C 
ATOM     10  H   UNL     1      33.232  -9.322 -21.761  0.00  0.00    +0.155 HD
BRANCH   8  11
ATOM     11  C   UNL     1      31.777  -7.883 -21.710  0.00  0.00    +0.064 C 
ATOM     12  C   UNL     1      32.094  -7.020 -20.673  0.00  0.00    +0.055 C 
ATOM     13  C   UNL     1      30.991  -7.474 -22.774  0.00  0.00    +0.016 C 
ATOM     14  C   UNL     1      31.611  -5.711 -20.704  0.00  0.00    +0.015 C 
ATOM     15  C   UNL     1      30.509  -6.166 -22.805  0.00  0.00    +0.001 C 
ATOM     16  C   UNL     1      30.818  -5.284 -21.769  0.00  0.00    +0.001 C 
BRANCH  12  17
ATOM     17  N   UNL     1      32.895  -7.430 -19.586  0.00  0.00    -0.356 N 
ATOM     18  H   UNL     1      32.671  -7.141 -18.672  0.00  0.00    +0.142 HD
ATOM     19  H   UNL     1      33.679  -8.006 -19.741  0.00  0.00    +0.142 HD
ENDBRANCH  12  17
ENDBRANCH   8  11
ENDBRANCH   2   9
BRANCH   1  20
ATOM     20  C   UNL     1      34.591 -15.249 -21.554  0.00  0.00    +0.124 C 
BRANCH  20  21
ATOM     21  N   UNL     1      34.565 -15.893 -22.850  0.00  0.00    -0.264 N 
ATOM     22  N   UNL     1      34.625 -18.041 -21.906  0.00  0.00    -0.338 NA
ATOM     23  N   UNL     1      34.553 -17.741 -24.296  0.00  0.00    -0.170 NA
ATOM     24  C   UNL     1      34.582 -17.267 -23.022  0.00  0.00    +0.145 C 
ATOM     25  C   UNL     1      34.640 -19.374 -22.111  0.00  0.00    +0.147 C 
ATOM     26  C   UNL     1      34.615 -19.959 -23.361  0.00  0.00    +0.055 C 
ATOM     27  C   UNL     1      34.571 -19.084 -24.428  0.00  0.00    +0.114 C 
ATOM     28  H   UNL     1      34.534 -15.324 -23.652  0.00  0.00    +0.160 HD
BRANCH  25  30
ATOM     29  N   UNL     1      36.007 -21.257 -19.199  0.00  0.00    -0.242 NA
ATOM     30  C   UNL     1      34.686 -20.179 -20.913  0.00  0.00    +0.050 C 
ATOM     31  C   UNL     1      33.519 -20.649 -20.319  0.00  0.00    +0.006 C 
ATOM     32  C   UNL     1      35.894 -20.507 -20.318  0.00  0.00    +0.101 C 
ATOM     33  C   UNL     1      33.595 -21.423 -19.167  0.00  0.00    +0.021 C 
ATOM     34  C   UNL     1      34.852 -21.696 -18.651  0.00  0.00    +0.099 C 
ENDBRANCH  25  30
ENDBRANCH  20  21
ENDBRANCH   1  20
TORSDOF 6
ENDMDL
MODEL 8
REMARK VINA RESULT:     -10.9      2.083      4.337
REMARK  Name = 9865515
REMARK  6 active torsions:
REMARK  status: ('A' for Active; 'I' for Inactive)
REMARK    1  A    between atoms: C_1  and  C_20
REMARK    2  A    between atoms: C_2  and  C_9
REMARK    3  A    between atoms: N_8  and  C_11
REMARK    4  A    between atoms: C_12  and  N_17
REMARK    5  A    between atoms: C_20  and  N_21
REMARK    6  A    between atoms: C_25  and  C_30
REMARK                            x       y       z     vdW  Elec       q    Type
REMARK                         _______ _______ _______ _____ _____    ______ ____
ROOT
ATOM      1  C   UNL     1      34.016 -22.510 -18.810  0.00  0.00    -0.002 C 
ATOM      2  C   UNL     1      34.823 -20.230 -20.199  0.00  0.00    +0.054 C 
ATOM      3  C   UNL     1      35.367 -22.166 -18.861  0.00  0.00    -0.002 C 
ATOM      4  C   UNL     1      33.069 -21.714 -19.454  0.00  0.00    -0.002 C 
ATOM      5  C   UNL     1      35.770 -21.026 -19.556  0.00  0.00    +0.004 C 
ATOM      6  C   UNL     1      33.472 -20.574 -20.148  0.00  0.00    +0.004 C 
ENDROOT
BRANCH   2   9
ATOM      7  O   UNL     1      36.342 -18.528 -20.657  0.00  0.00    -0.270 OA
ATOM      8  N   UNL     1      34.360 -18.583 -21.911  0.00  0.00    -0.279 N 
ATOM      9  C   UNL     1      35.244 -19.042 -20.926  0.00  0.00    +0.250 C 
ATOM     10  H   UNL     1      33.525 -19.094 -22.009  0.00  0.00    +0.155 HD
BRANCH   8  11
ATOM     11  C   UNL     1      34.512 -17.477 -22.785  0.00  0.00    +0.064 C 
ATOM     12  C   UNL     1      34.378 -17.644 -24.154  0.00  0.00    +0.055 C 
ATOM     13  C   UNL     1      34.796 -16.238 -22.234  0.00  0.00    +0.016 C 
ATOM     14  C   UNL     1      34.532 -16.541 -24.994  0.00  0.00    +0.015 C 
ATOM     15  C   UNL     1      34.950 -15.136 -23.074  0.00  0.00    +0.001 C 
ATOM     16  C   UNL     1      34.819 -15.287 -24.455  0.00  0.00    +0.001 C 
BRANCH  12  17
ATOM     17  N   UNL     1      34.087 -18.904 -24.722  0.00  0.00    -0.356 N 
ATOM     18  H   UNL     1      34.495 -19.164 -25.579  0.00  0.00    +0.142 HD
ATOM     19  H   UNL     1      33.477 -19.524 -24.259  0.00  0.00    +0.142 HD
ENDBRANCH  12  17
ENDBRANCH   8  11
ENDBRANCH   2   9
BRANCH   1  20
ATOM     20  C   UNL     1      33.583 -23.729 -18.066  0.00  0.00    +0.124 C 
BRANCH  20  21
ATOM     21  N   UNL     1      33.873 -23.602 -16.654  0.00  0.00    -0.264 N 
ATOM     22  N   UNL     1      31.615 -23.264 -16.109  0.00  0.00    -0.338 NA
ATOM     23  N   UNL     1      33.313 -23.275 -14.399  0.00  0.00    -0.170 NA
ATOM     24  C   UNL     1      32.904 -23.373 -15.692  0.00  0.00    +0.145 C 
ATOM     25  C   UNL     1      30.698 -23.042 -15.145  0.00  0.00    +0.147 C 
ATOM     26  C   UNL     1      31.006 -22.926 -13.805  0.00  0.00    +0.055 C 
ATOM     27  C   UNL     1      32.343 -23.052 -13.487  0.00  0.00    +0.114 C 
ATOM     28  H   UNL     1      34.809 -23.682 -16.362  0.00  0.00    +0.160 HD
BRANCH  25  30
ATOM     29  N   UNL     1      27.716 -23.291 -17.367  0.00  0.00    -0.242 NA
ATOM     30  C   UNL     1      29.335 -22.930 -15.609  0.00  0.00    +0.050 C 
ATOM     31  C   UNL     1      28.346 -22.377 -14.802  0.00  0.00    +0.006 C 
ATOM     32  C   UNL     1      28.971 -23.369 -16.872  0.00  0.00    +0.101 C 
ATOM     33  C   UNL     1      27.043 -22.281 -15.276  0.00  0.00    +0.021 C 
ATOM     34  C   UNL     1      26.782 -22.748 -16.554  0.00  0.00    +0.099 C 
ENDBRANCH  25  30
ENDBRANCH  20  21
ENDBRANCH   1  20
TORSDOF 6
ENDMDL
MODEL 9
REMARK VINA RESULT:     -10.8      1.978      3.357
REMARK  Name = 9865515
REMARK  6 active torsions:
REMARK  status: ('A' for Active; 'I' for Inactive)
REMARK    1  A    between atoms: C_1  and  C_20
REMARK    2  A    between atoms: C_2  and  C_9
REMARK    3  A    between atoms: N_8  and  C_11
REMARK    4  A    between atoms: C_12  and  N_17
REMARK    5  A    between atoms: C_20  and  N_21
REMARK    6  A    between atoms: C_25  and  C_30
REMARK                            x       y       z     vdW  Elec       q    Type
REMARK                         _______ _______ _______ _____ _____    ______ ____
ROOT
ATOM      1  C   UNL     1      35.276 -20.700 -19.931  0.00  0.00    -0.002 C 
ATOM      2  C   UNL     1      35.383 -18.419 -21.533  0.00  0.00    +0.054 C 
ATOM      3  C   UNL     1      36.493 -20.052 -20.141  0.00  0.00    -0.002 C 
ATOM      4  C   UNL     1      34.112 -20.208 -20.522  0.00  0.00    -0.002 C 
ATOM      5  C   UNL     1      36.547 -18.912 -20.943  0.00  0.00    +0.004 C 
ATOM      6  C   UNL     1      34.166 -19.068 -21.323  0.00  0.00    +0.004 C 
ENDROOT
BRANCH   2   9
ATOM      7  O   UNL     1      36.484 -16.982 -22.994  0.00  0.00    -0.270 OA
ATOM      8  N   UNL     1      34.268 -16.464 -22.423  0.00  0.00    -0.279 N 
ATOM      9  C   UNL     1      35.439 -17.232 -22.371  0.00  0.00    +0.250 C 
ATOM     10  H   UNL     1      33.519 -16.788 -21.873  0.00  0.00    +0.155 HD
BRANCH   8  11
ATOM     11  C   UNL     1      34.021 -15.282 -23.165  0.00  0.00    +0.064 C 
ATOM     12  C   UNL     1      33.556 -15.358 -24.468  0.00  0.00    +0.055 C 
ATOM     13  C   UNL     1      34.260 -14.061 -22.555  0.00  0.00    +0.016 C 
ATOM     14  C   UNL     1      33.321 -14.181 -25.179  0.00  0.00    +0.015 C 
ATOM     15  C   UNL     1      34.025 -12.885 -23.266  0.00  0.00    +0.001 C 
ATOM     16  C   UNL     1      33.556 -12.944 -24.578  0.00  0.00    +0.001 C 
BRANCH  12  17
ATOM     17  N   UNL     1      33.310 -16.599 -25.095  0.00  0.00    -0.356 N 
ATOM     18  H   UNL     1      33.015 -17.372 -24.561  0.00  0.00    +0.142 HD
ATOM     19  H   UNL     1      33.433 -16.693 -26.068  0.00  0.00    +0.142 HD
ENDBRANCH  12  17
ENDBRANCH   8  11
ENDBRANCH   2   9
BRANCH   1  20
ATOM     20  C   UNL     1      35.217 -21.919 -19.072  0.00  0.00    +0.124 C 
BRANCH  20  21
ATOM     21  N   UNL     1      36.313 -21.938 -18.127  0.00  0.00    -0.264 N 
ATOM     22  N   UNL     1      34.960 -22.787 -16.407  0.00  0.00    -0.338 NA
ATOM     23  N   UNL     1      37.297 -22.333 -16.034  0.00  0.00    -0.170 NA
ATOM     24  C   UNL     1      36.186 -22.366 -16.817  0.00  0.00    +0.145 C 
ATOM     25  C   UNL     1      34.872 -23.197 -15.126  0.00  0.00    +0.147 C 
ATOM     26  C   UNL     1      35.937 -23.203 -14.248  0.00  0.00    +0.055 C 
ATOM     27  C   UNL     1      37.137 -22.756 -14.762  0.00  0.00    +0.114 C 
ATOM     28  H   UNL     1      37.197 -21.631 -18.433  0.00  0.00    +0.160 HD
BRANCH  25  30
ATOM     29  N   UNL     1      32.192 -24.800 -13.093  0.00  0.00    -0.242 NA
ATOM     30  C   UNL     1      33.562 -23.640 -14.711  0.00  0.00    +0.050 C 
ATOM     31  C   UNL     1      32.435 -23.364 -15.478  0.00  0.00    +0.006 C 
ATOM     32  C   UNL     1      33.388 -24.355 -13.537  0.00  0.00    +0.101 C 
ATOM     33  C   UNL     1      31.187 -23.805 -15.054  0.00  0.00    +0.021 C 
ATOM     34  C   UNL     1      31.119 -24.513 -13.864  0.00  0.00    +0.099 C 
ENDBRANCH  25  30
ENDBRANCH  20  21
ENDBRANCH   1  20
TORSDOF 6
ENDMDL
