MODEL 1
REMARK VINA RESULT:     -12.6      0.000      0.000
REMARK  Name = 25025505
REMARK  6 active torsions:
REMARK  status: ('A' for Active; 'I' for Inactive)
REMARK    1  A    between atoms: C_3  and  C_9
REMARK    2  A    between atoms: C_4  and  C_20
REMARK    3  A    between atoms: C_17  and  C_18
REMARK    4  A    between atoms: C_20  and  O_21
REMARK    5  A    between atoms: O_21  and  C_22
REMARK    6  A    between atoms: C_25  and  N_28
REMARK                            x       y       z     vdW  Elec       q    Type
REMARK                         _______ _______ _______ _____ _____    ______ ____
ROOT
ATOM      1  S   UNL     1      36.172 -24.060 -14.813  0.00  0.00    -0.079 S 
ATOM      2  N   UNL     1      33.636 -23.642 -15.079  0.00  0.00    -0.404 NA
ATOM      3  C   UNL     1      34.790 -23.563 -15.701  0.00  0.00    +0.134 C 
ATOM      4  C   UNL     1      33.847 -24.130 -13.805  0.00  0.00    +0.142 C 
ATOM      5  C   UNL     1      35.157 -24.414 -13.478  0.00  0.00    +0.122 C 
ENDROOT
BRANCH   3   9
ATOM      6  N   UNL     1      34.986 -21.093 -19.240  0.00  0.00    -0.253 N 
ATOM      7  N   UNL     1      36.102 -19.354 -20.328  0.00  0.00    -0.203 NA
ATOM      8  N   UNL     1      34.022 -20.222 -21.181  0.00  0.00    -0.181 NA
ATOM      9  C   UNL     1      34.966 -23.070 -17.125  0.00  0.00    +0.062 C 
ATOM     10  C   UNL     1      33.665 -22.495 -17.703  0.00  0.00    +0.030 C 
ATOM     11  C   UNL     1      36.086 -22.024 -17.241  0.00  0.00    +0.030 C 
ATOM     12  C   UNL     1      33.854 -22.023 -19.145  0.00  0.00    +0.102 C 
ATOM     13  C   UNL     1      36.265 -21.562 -18.687  0.00  0.00    +0.102 C 
ATOM     14  C   UNL     1      35.040 -20.181 -20.300  0.00  0.00    +0.090 C 
ATOM     15  C   UNL     1      36.121 -18.487 -21.362  0.00  0.00    +0.161 C 
ATOM     16  C   UNL     1      34.105 -19.328 -22.188  0.00  0.00    +0.104 C 
ATOM     17  C   UNL     1      35.141 -18.427 -22.331  0.00  0.00    +0.001 C 
BRANCH  17  18
ATOM     18  C   UNL     1      35.198 -17.459 -23.452  0.00  0.00    +0.026 C 
ATOM     19  C   UNL     1      34.085 -17.679 -24.479  0.00  0.00    +0.005 C 
ENDBRANCH  17  18
ENDBRANCH   3   9
BRANCH   4  20
ATOM     20  C   UNL     1      32.680 -24.303 -12.917  0.00  0.00    +0.260 C 
BRANCH  20  21
ATOM     21  O   UNL     1      31.728 -25.172 -13.527  0.00  0.00    -0.468 OA
BRANCH  21  22
ATOM     22  C   UNL     1      30.687 -24.575 -14.184  0.00  0.00    +0.139 C 
ATOM     23  C   UNL     1      29.908 -25.314 -15.076  0.00  0.00    +0.038 C 
ATOM     24  C   UNL     1      30.403 -23.228 -13.962  0.00  0.00    +0.038 C 
ATOM     25  C   UNL     1      28.564 -23.358 -15.523  0.00  0.00    +0.078 C 
ATOM     26  C   UNL     1      28.847 -24.704 -15.745  0.00  0.00    +0.020 C 
ATOM     27  C   UNL     1      29.342 -22.618 -14.631  0.00  0.00    +0.020 C 
BRANCH  25  28
ATOM     28  N   UNL     1      27.512 -22.753 -16.187  0.00  0.00    -0.149 N 
ATOM     29  N   UNL     1      27.412 -22.753 -17.523  0.00  0.00    -0.048 NA
ATOM     30  N   UNL     1      25.683 -21.671 -16.622  0.00  0.00    -0.107 NA
ATOM     31  N   UNL     1      26.292 -22.090 -17.784  0.00  0.00    -0.024 NA
ATOM     32  C   UNL     1      26.454 -22.093 -15.646  0.00  0.00    +0.215 C 
ENDBRANCH  25  28
ENDBRANCH  21  22
ENDBRANCH  20  21
ENDBRANCH   4  20
TORSDOF 6
ENDMDL
MODEL 2
REMARK VINA RESULT:     -12.1      6.957     10.408
REMARK  Name = 25025505
REMARK  6 active torsions:
REMARK  status: ('A' for Active; 'I' for Inactive)
REMARK    1  A    between atoms: C_3  and  C_9
REMARK    2  A    between atoms: C_4  and  C_20
REMARK    3  A    between atoms: C_17  and  C_18
REMARK    4  A    between atoms: C_20  and  O_21
REMARK    5  A    between atoms: O_21  and  C_22
REMARK    6  A    between atoms: C_25  and  N_28
REMARK                            x       y       z     vdW  Elec       q    Type
REMARK                         _______ _______ _______ _____ _____    ______ ____
ROOT
ATOM      1  S   UNL     1      34.090 -16.004 -24.817  0.00  0.00    -0.079 S 
ATOM      2  N   UNL     1      34.470 -15.697 -22.279  0.00  0.00    -0.404 NA
ATOM      3  C   UNL     1      33.953 -15.131 -23.347  0.00  0.00    +0.134 C 
ATOM      4  C   UNL     1      35.018 -16.912 -22.640  0.00  0.00    +0.142 C 
ATOM      5  C   UNL     1      34.910 -17.251 -23.972  0.00  0.00    +0.122 C 
ENDROOT
BRANCH   3   9
ATOM      6  N   UNL     1      32.924 -10.994 -22.648  0.00  0.00    -0.253 N 
ATOM      7  N   UNL     1      33.509  -8.763 -23.019  0.00  0.00    -0.203 NA
ATOM      8  N   UNL     1      31.759  -9.347 -21.470  0.00  0.00    -0.181 NA
ATOM      9  C   UNL     1      33.258 -13.782 -23.351  0.00  0.00    +0.062 C 
ATOM     10  C   UNL     1      32.819 -13.353 -21.944  0.00  0.00    +0.030 C 
ATOM     11  C   UNL     1      34.134 -12.683 -23.973  0.00  0.00    +0.030 C 
ATOM     12  C   UNL     1      32.101 -12.003 -21.970  0.00  0.00    +0.102 C 
ATOM     13  C   UNL     1      33.405 -11.339 -23.993  0.00  0.00    +0.102 C 
ATOM     14  C   UNL     1      32.721  -9.638 -22.366  0.00  0.00    +0.090 C 
ATOM     15  C   UNL     1      33.288  -7.466 -22.723  0.00  0.00    +0.161 C 
ATOM     16  C   UNL     1      31.591  -8.032 -21.221  0.00  0.00    +0.104 C 
ATOM     17  C   UNL     1      32.334  -7.037 -21.823  0.00  0.00    +0.001 C 
BRANCH  17  18
ATOM     18  C   UNL     1      32.121  -5.600 -21.524  0.00  0.00    +0.026 C 
ATOM     19  C   UNL     1      30.646  -5.199 -21.583  0.00  0.00    +0.005 C 
ENDBRANCH  17  18
ENDBRANCH   3   9
BRANCH   4  20
ATOM     20  C   UNL     1      35.661 -17.730 -21.592  0.00  0.00    +0.260 C 
BRANCH  20  21
ATOM     21  O   UNL     1      35.542 -19.115 -21.914  0.00  0.00    -0.468 OA
BRANCH  21  22
ATOM     22  C   UNL     1      35.166 -19.949 -20.897  0.00  0.00    +0.139 C 
ATOM     23  C   UNL     1      36.135 -20.576 -20.113  0.00  0.00    +0.038 C 
ATOM     24  C   UNL     1      33.813 -20.174 -20.642  0.00  0.00    +0.038 C 
ATOM     25  C   UNL     1      34.400 -21.651 -18.824  0.00  0.00    +0.078 C 
ATOM     26  C   UNL     1      35.752 -21.428 -19.077  0.00  0.00    +0.020 C 
ATOM     27  C   UNL     1      33.429 -21.025 -19.606  0.00  0.00    +0.020 C 
BRANCH  25  28
ATOM     28  N   UNL     1      34.019 -22.495 -17.796  0.00  0.00    -0.149 N 
ATOM     29  N   UNL     1      34.910 -23.117 -17.011  0.00  0.00    -0.048 NA
ATOM     30  N   UNL     1      32.835 -23.656 -16.398  0.00  0.00    -0.107 NA
ATOM     31  N   UNL     1      34.181 -23.825 -16.158  0.00  0.00    -0.024 NA
ATOM     32  C   UNL     1      32.758 -22.829 -17.415  0.00  0.00    +0.215 C 
ENDBRANCH  25  28
ENDBRANCH  21  22
ENDBRANCH  20  21
ENDBRANCH   4  20
TORSDOF 6
ENDMDL
MODEL 3
REMARK VINA RESULT:     -11.7      7.342     10.981
REMARK  Name = 25025505
REMARK  6 active torsions:
REMARK  status: ('A' for Active; 'I' for Inactive)
REMARK    1  A    between atoms: C_3  and  C_9
REMARK    2  A    between atoms: C_4  and  C_20
REMARK    3  A    between atoms: C_17  and  C_18
REMARK    4  A    between atoms: C_20  and  O_21
REMARK    5  A    between atoms: O_21  and  C_22
REMARK    6  A    between atoms: C_25  and  N_28
REMARK                            x       y       z     vdW  Elec       q    Type
REMARK                         _______ _______ _______ _____ _____    ______ ____
ROOT
ATOM      1  S   UNL     1      33.448 -15.031 -24.884  0.00  0.00    -0.079 S 
ATOM      2  N   UNL     1      34.656 -15.502 -22.648  0.00  0.00    -0.404 NA
ATOM      3  C   UNL     1      34.099 -14.555 -23.369  0.00  0.00    +0.134 C 
ATOM      4  C   UNL     1      34.567 -16.697 -23.334  0.00  0.00    +0.142 C 
ATOM      5  C   UNL     1      33.945 -16.641 -24.564  0.00  0.00    +0.122 C 
ENDROOT
BRANCH   3   9
ATOM      6  N   UNL     1      32.897 -10.425 -22.972  0.00  0.00    -0.253 N 
ATOM      7  N   UNL     1      31.230  -8.954 -22.255  0.00  0.00    -0.203 NA
ATOM      8  N   UNL     1      33.115  -8.169 -23.534  0.00  0.00    -0.181 NA
ATOM      9  C   UNL     1      34.002 -13.100 -22.948  0.00  0.00    +0.062 C 
ATOM     10  C   UNL     1      34.236 -12.142 -24.125  0.00  0.00    +0.030 C 
ATOM     11  C   UNL     1      32.654 -12.780 -22.286  0.00  0.00    +0.030 C 
ATOM     12  C   UNL     1      34.156 -10.681 -23.679  0.00  0.00    +0.102 C 
ATOM     13  C   UNL     1      32.587 -11.317 -21.845  0.00  0.00    +0.102 C 
ATOM     14  C   UNL     1      32.390  -9.121 -22.917  0.00  0.00    +0.090 C 
ATOM     15  C   UNL     1      30.770  -7.686 -22.223  0.00  0.00    +0.161 C 
ATOM     16  C   UNL     1      32.597  -6.925 -23.463  0.00  0.00    +0.104 C 
ATOM     17  C   UNL     1      31.417  -6.621 -22.816  0.00  0.00    +0.001 C 
BRANCH  17  18
ATOM     18  C   UNL     1      30.879  -5.240 -22.758  0.00  0.00    +0.026 C 
ATOM     19  C   UNL     1      31.693  -4.255 -23.600  0.00  0.00    +0.005 C 
ENDBRANCH  17  18
ENDBRANCH   3   9
BRANCH   4  20
ATOM     20  C   UNL     1      35.133 -17.909 -22.709  0.00  0.00    +0.260 C 
BRANCH  20  21
ATOM     21  O   UNL     1      34.113 -18.893 -22.544  0.00  0.00    -0.468 OA
BRANCH  21  22
ATOM     22  C   UNL     1      34.221 -19.708 -21.450  0.00  0.00    +0.139 C 
ATOM     23  C   UNL     1      33.072 -20.158 -20.799  0.00  0.00    +0.038 C 
ATOM     24  C   UNL     1      35.479 -20.090 -20.986  0.00  0.00    +0.038 C 
ATOM     25  C   UNL     1      34.440 -21.369 -19.220  0.00  0.00    +0.078 C 
ATOM     26  C   UNL     1      33.181 -20.988 -19.683  0.00  0.00    +0.020 C 
ATOM     27  C   UNL     1      35.589 -20.920 -19.871  0.00  0.00    +0.020 C 
BRANCH  25  28
ATOM     28  N   UNL     1      34.549 -22.192 -18.114  0.00  0.00    -0.149 N 
ATOM     29  N   UNL     1      35.693 -22.329 -17.431  0.00  0.00    -0.048 NA
ATOM     30  N   UNL     1      34.098 -23.590 -16.518  0.00  0.00    -0.107 NA
ATOM     31  N   UNL     1      35.412 -23.185 -16.456  0.00  0.00    -0.024 NA
ATOM     32  C   UNL     1      33.582 -22.964 -17.550  0.00  0.00    +0.215 C 
ENDBRANCH  25  28
ENDBRANCH  21  22
ENDBRANCH  20  21
ENDBRANCH   4  20
TORSDOF 6
ENDMDL
MODEL 4
REMARK VINA RESULT:     -11.5      4.880     10.369
REMARK  Name = 25025505
REMARK  6 active torsions:
REMARK  status: ('A' for Active; 'I' for Inactive)
REMARK    1  A    between atoms: C_3  and  C_9
REMARK    2  A    between atoms: C_4  and  C_20
REMARK    3  A    between atoms: C_17  and  C_18
REMARK    4  A    between atoms: C_20  and  O_21
REMARK    5  A    between atoms: O_21  and  C_22
REMARK    6  A    between atoms: C_25  and  N_28
REMARK                            x       y       z     vdW  Elec       q    Type
REMARK                         _______ _______ _______ _____ _____    ______ ____
ROOT
ATOM      1  S   UNL     1      36.909 -19.268 -20.801  0.00  0.00    -0.079 S 
ATOM      2  N   UNL     1      34.581 -19.457 -21.908  0.00  0.00    -0.404 NA
ATOM      3  C   UNL     1      35.357 -19.977 -20.983  0.00  0.00    +0.134 C 
ATOM      4  C   UNL     1      35.254 -18.420 -22.524  0.00  0.00    +0.142 C 
ATOM      5  C   UNL     1      36.528 -18.168 -22.060  0.00  0.00    +0.122 C 
ENDROOT
BRANCH   3   9
ATOM      6  N   UNL     1      34.048 -22.382 -17.643  0.00  0.00    -0.253 N 
ATOM      7  N   UNL     1      32.262 -22.953 -16.249  0.00  0.00    -0.203 NA
ATOM      8  N   UNL     1      34.503 -23.692 -15.763  0.00  0.00    -0.181 NA
ATOM      9  C   UNL     1      34.967 -21.140 -20.090  0.00  0.00    +0.062 C 
ATOM     10  C   UNL     1      35.869 -21.245 -18.851  0.00  0.00    +0.030 C 
ATOM     11  C   UNL     1      33.497 -21.064 -19.651  0.00  0.00    +0.030 C 
ATOM     12  C   UNL     1      35.476 -22.434 -17.974  0.00  0.00    +0.102 C 
ATOM     13  C   UNL     1      33.118 -22.258 -18.775  0.00  0.00    +0.102 C 
ATOM     14  C   UNL     1      33.582 -23.040 -16.499  0.00  0.00    +0.090 C 
ATOM     15  C   UNL     1      31.848 -23.597 -15.138  0.00  0.00    +0.161 C 
ATOM     16  C   UNL     1      34.020 -24.313 -14.667  0.00  0.00    +0.104 C 
ATOM     17  C   UNL     1      32.690 -24.300 -14.301  0.00  0.00    +0.001 C 
BRANCH  17  18
ATOM     18  C   UNL     1      32.196 -24.995 -13.088  0.00  0.00    +0.026 C 
ATOM     19  C   UNL     1      30.671 -24.963 -12.970  0.00  0.00    +0.005 C 
ENDBRANCH  17  18
ENDBRANCH   3   9
BRANCH   4  20
ATOM     20  C   UNL     1      34.570 -17.684 -23.605  0.00  0.00    +0.260 C 
BRANCH  20  21
ATOM     21  O   UNL     1      35.147 -16.387 -23.753  0.00  0.00    -0.468 OA
BRANCH  21  22
ATOM     22  C   UNL     1      34.435 -15.338 -23.241  0.00  0.00    +0.139 C 
ATOM     23  C   UNL     1      33.657 -14.543 -24.085  0.00  0.00    +0.038 C 
ATOM     24  C   UNL     1      34.485 -15.061 -21.876  0.00  0.00    +0.038 C 
ATOM     25  C   UNL     1      32.983 -13.197 -22.197  0.00  0.00    +0.078 C 
ATOM     26  C   UNL     1      32.931 -13.473 -23.563  0.00  0.00    +0.020 C 
ATOM     27  C   UNL     1      33.759 -13.991 -21.352  0.00  0.00    +0.020 C 
BRANCH  25  28
ATOM     28  N   UNL     1      32.263 -12.135 -21.679  0.00  0.00    -0.149 N 
ATOM     29  N   UNL     1      31.494 -12.255 -20.588  0.00  0.00    -0.048 NA
ATOM     30  N   UNL     1      31.407 -10.167 -21.367  0.00  0.00    -0.107 NA
ATOM     31  N   UNL     1      30.973 -11.048 -20.401  0.00  0.00    -0.024 NA
ATOM     32  C   UNL     1      32.204 -10.860 -22.146  0.00  0.00    +0.215 C 
ENDBRANCH  25  28
ENDBRANCH  21  22
ENDBRANCH  20  21
ENDBRANCH   4  20
TORSDOF 6
ENDMDL
MODEL 5
REMARK VINA RESULT:     -11.2      3.941      6.523
REMARK  Name = 25025505
REMARK  6 active torsions:
REMARK  status: ('A' for Active; 'I' for Inactive)
REMARK    1  A    between atoms: C_3  and  C_9
REMARK    2  A    between atoms: C_4  and  C_20
REMARK    3  A    between atoms: C_17  and  C_18
REMARK    4  A    between atoms: C_20  and  O_21
REMARK    5  A    between atoms: O_21  and  C_22
REMARK    6  A    between atoms: C_25  and  N_28
REMARK                            x       y       z     vdW  Elec       q    Type
REMARK                         _______ _______ _______ _____ _____    ______ ____
ROOT
ATOM      1  S   UNL     1      36.848 -21.084 -19.052  0.00  0.00    -0.079 S 
ATOM      2  N   UNL     1      34.284 -21.230 -19.348  0.00  0.00    -0.404 NA
ATOM      3  C   UNL     1      35.378 -20.707 -19.854  0.00  0.00    +0.134 C 
ATOM      4  C   UNL     1      34.621 -21.989 -18.244  0.00  0.00    +0.142 C 
ATOM      5  C   UNL     1      35.963 -22.030 -17.928  0.00  0.00    +0.122 C 
ENDROOT
BRANCH   3   9
ATOM      6  N   UNL     1      34.539 -17.623 -22.760  0.00  0.00    -0.253 N 
ATOM      7  N   UNL     1      34.543 -15.330 -23.207  0.00  0.00    -0.203 NA
ATOM      8  N   UNL     1      33.513 -16.891 -24.727  0.00  0.00    -0.181 NA
ATOM      9  C   UNL     1      35.414 -19.809 -21.077  0.00  0.00    +0.062 C 
ATOM     10  C   UNL     1      34.114 -19.889 -21.891  0.00  0.00    +0.030 C 
ATOM     11  C   UNL     1      35.702 -18.345 -20.711  0.00  0.00    +0.030 C 
ATOM     12  C   UNL     1      34.176 -18.996 -23.131  0.00  0.00    +0.102 C 
ATOM     13  C   UNL     1      35.761 -17.464 -21.959  0.00  0.00    +0.102 C 
ATOM     14  C   UNL     1      34.182 -16.565 -23.605  0.00  0.00    +0.090 C 
ATOM     15  C   UNL     1      34.181 -14.335 -24.043  0.00  0.00    +0.161 C 
ATOM     16  C   UNL     1      33.183 -15.848 -25.516  0.00  0.00    +0.104 C 
ATOM     17  C   UNL     1      33.493 -14.535 -25.222  0.00  0.00    +0.001 C 
BRANCH  17  18
ATOM     18  C   UNL     1      33.114 -13.414 -26.115  0.00  0.00    +0.026 C 
ATOM     19  C   UNL     1      33.826 -12.109 -25.757  0.00  0.00    +0.005 C 
ENDBRANCH  17  18
ENDBRANCH   3   9
BRANCH   4  20
ATOM     20  C   UNL     1      33.541 -22.677 -17.509  0.00  0.00    +0.260 C 
BRANCH  20  21
ATOM     21  O   UNL     1      34.005 -23.939 -17.031  0.00  0.00    -0.468 OA
BRANCH  21  22
ATOM     22  C   UNL     1      34.353 -24.003 -15.710  0.00  0.00    +0.139 C 
ATOM     23  C   UNL     1      35.675 -24.260 -15.347  0.00  0.00    +0.038 C 
ATOM     24  C   UNL     1      33.385 -23.811 -14.724  0.00  0.00    +0.038 C 
ATOM     25  C   UNL     1      35.061 -24.134 -13.015  0.00  0.00    +0.078 C 
ATOM     26  C   UNL     1      36.029 -24.325 -14.000  0.00  0.00    +0.020 C 
ATOM     27  C   UNL     1      33.739 -23.876 -13.376  0.00  0.00    +0.020 C 
BRANCH  25  28
ATOM     28  N   UNL     1      35.413 -24.198 -11.678  0.00  0.00    -0.149 N 
ATOM     29  N   UNL     1      34.787 -25.005 -10.810  0.00  0.00    -0.048 NA
ATOM     30  N   UNL     1      36.394 -23.859  -9.775  0.00  0.00    -0.107 NA
ATOM     31  N   UNL     1      35.391 -24.794  -9.648  0.00  0.00    -0.024 NA
ATOM     32  C   UNL     1      36.391 -23.505 -11.039  0.00  0.00    +0.215 C 
ENDBRANCH  25  28
ENDBRANCH  21  22
ENDBRANCH  20  21
ENDBRANCH   4  20
TORSDOF 6
ENDMDL
MODEL 6
REMARK VINA RESULT:     -10.8      5.077     10.632
REMARK  Name = 25025505
REMARK  6 active torsions:
REMARK  status: ('A' for Active; 'I' for Inactive)
REMARK    1  A    between atoms: C_3  and  C_9
REMARK    2  A    between atoms: C_4  and  C_20
REMARK    3  A    between atoms: C_17  and  C_18
REMARK    4  A    between atoms: C_20  and  O_21
REMARK    5  A    between atoms: O_21  and  C_22
REMARK    6  A    between atoms: C_25  and  N_28
REMARK                            x       y       z     vdW  Elec       q    Type
REMARK                         _______ _______ _______ _____ _____    ______ ____
ROOT
ATOM      1  S   UNL     1      33.537 -20.853 -20.122  0.00  0.00    -0.079 S 
ATOM      2  N   UNL     1      36.021 -20.159 -20.296  0.00  0.00    -0.404 NA
ATOM      3  C   UNL     1      35.185 -20.939 -19.649  0.00  0.00    +0.134 C 
ATOM      4  C   UNL     1      35.318 -19.435 -21.238  0.00  0.00    +0.142 C 
ATOM      5  C   UNL     1      33.961 -19.674 -21.293  0.00  0.00    +0.122 C 
ENDROOT
BRANCH   3   9
ATOM      6  N   UNL     1      35.960 -22.702 -15.782  0.00  0.00    -0.253 N 
ATOM      7  N   UNL     1      35.025 -23.512 -13.800  0.00  0.00    -0.203 NA
ATOM      8  N   UNL     1      37.406 -23.212 -14.019  0.00  0.00    -0.181 NA
ATOM      9  C   UNL     1      35.584 -21.888 -18.534  0.00  0.00    +0.062 C 
ATOM     10  C   UNL     1      36.726 -21.325 -17.676  0.00  0.00    +0.030 C 
ATOM     11  C   UNL     1      34.395 -22.253 -17.632  0.00  0.00    +0.030 C 
ATOM     12  C   UNL     1      37.130 -22.303 -16.572  0.00  0.00    +0.102 C 
ATOM     13  C   UNL     1      34.813 -23.231 -16.534  0.00  0.00    +0.102 C 
ATOM     14  C   UNL     1      36.138 -23.164 -14.473  0.00  0.00    +0.090 C 
ATOM     15  C   UNL     1      35.234 -23.952 -12.542  0.00  0.00    +0.161 C 
ATOM     16  C   UNL     1      37.541 -23.660 -12.754  0.00  0.00    +0.104 C 
ATOM     17  C   UNL     1      36.481 -24.047 -11.960  0.00  0.00    +0.001 C 
BRANCH  17  18
ATOM     18  C   UNL     1      36.669 -24.535 -10.573  0.00  0.00    +0.026 C 
ATOM     19  C   UNL     1      35.356 -24.611  -9.791  0.00  0.00    +0.005 C 
ENDBRANCH  17  18
ENDBRANCH   3   9
BRANCH   4  20
ATOM     20  C   UNL     1      36.060 -18.484 -22.090  0.00  0.00    +0.260 C 
BRANCH  20  21
ATOM     21  O   UNL     1      35.231 -18.041 -23.163  0.00  0.00    -0.468 OA
BRANCH  21  22
ATOM     22  C   UNL     1      34.802 -16.744 -23.110  0.00  0.00    +0.139 C 
ATOM     23  C   UNL     1      34.841 -16.044 -21.904  0.00  0.00    +0.038 C 
ATOM     24  C   UNL     1      34.325 -16.119 -24.262  0.00  0.00    +0.038 C 
ATOM     25  C   UNL     1      33.926 -14.097 -23.002  0.00  0.00    +0.078 C 
ATOM     26  C   UNL     1      34.403 -14.721 -21.850  0.00  0.00    +0.020 C 
ATOM     27  C   UNL     1      33.887 -14.796 -24.209  0.00  0.00    +0.020 C 
BRANCH  25  28
ATOM     28  N   UNL     1      33.492 -12.785 -22.949  0.00  0.00    -0.149 N 
ATOM     29  N   UNL     1      32.532 -12.381 -22.106  0.00  0.00    -0.048 NA
ATOM     30  N   UNL     1      33.256 -10.663 -23.330  0.00  0.00    -0.107 NA
ATOM     31  N   UNL     1      32.392 -11.082 -22.342  0.00  0.00    -0.024 NA
ATOM     32  C   UNL     1      33.927 -11.732 -23.690  0.00  0.00    +0.215 C 
ENDBRANCH  25  28
ENDBRANCH  21  22
ENDBRANCH  20  21
ENDBRANCH   4  20
TORSDOF 6
ENDMDL
MODEL 7
REMARK VINA RESULT:     -10.8      6.033     11.240
REMARK  Name = 25025505
REMARK  6 active torsions:
REMARK  status: ('A' for Active; 'I' for Inactive)
REMARK    1  A    between atoms: C_3  and  C_9
REMARK    2  A    between atoms: C_4  and  C_20
REMARK    3  A    between atoms: C_17  and  C_18
REMARK    4  A    between atoms: C_20  and  O_21
REMARK    5  A    between atoms: O_21  and  C_22
REMARK    6  A    between atoms: C_25  and  N_28
REMARK                            x       y       z     vdW  Elec       q    Type
REMARK                         _______ _______ _______ _____ _____    ______ ____
ROOT
ATOM      1  S   UNL     1      34.605 -19.433 -23.476  0.00  0.00    -0.079 S 
ATOM      2  N   UNL     1      34.984 -17.900 -21.430  0.00  0.00    -0.404 NA
ATOM      3  C   UNL     1      34.922 -19.156 -21.813  0.00  0.00    +0.134 C 
ATOM      4  C   UNL     1      34.767 -17.088 -22.526  0.00  0.00    +0.142 C 
ATOM      5  C   UNL     1      34.543 -17.738 -23.723  0.00  0.00    +0.122 C 
ENDROOT
BRANCH   3   9
ATOM      6  N   UNL     1      35.177 -21.705 -18.335  0.00  0.00    -0.253 N 
ATOM      7  N   UNL     1      34.003 -22.728 -16.594  0.00  0.00    -0.203 NA
ATOM      8  N   UNL     1      36.412 -22.739 -16.643  0.00  0.00    -0.181 NA
ATOM      9  C   UNL     1      35.110 -20.345 -20.889  0.00  0.00    +0.062 C 
ATOM     10  C   UNL     1      36.253 -20.123 -19.887  0.00  0.00    +0.030 C 
ATOM     11  C   UNL     1      33.822 -20.696 -20.130  0.00  0.00    +0.030 C 
ATOM     12  C   UNL     1      36.443 -21.338 -18.979  0.00  0.00    +0.102 C 
ATOM     13  C   UNL     1      34.026 -21.912 -19.226  0.00  0.00    +0.102 C 
ATOM     14  C   UNL     1      35.198 -22.425 -17.135  0.00  0.00    +0.090 C 
ATOM     15  C   UNL     1      34.060 -23.421 -15.437  0.00  0.00    +0.161 C 
ATOM     16  C   UNL     1      36.395 -23.432 -15.486  0.00  0.00    +0.104 C 
ATOM     17  C   UNL     1      35.239 -23.803 -14.830  0.00  0.00    +0.001 C 
BRANCH  17  18
ATOM     18  C   UNL     1      35.261 -24.565 -13.559  0.00  0.00    +0.026 C 
ATOM     19  C   UNL     1      35.940 -23.797 -12.423  0.00  0.00    +0.005 C 
ENDBRANCH  17  18
ENDBRANCH   3   9
BRANCH   4  20
ATOM     20  C   UNL     1      34.791 -15.625 -22.332  0.00  0.00    +0.260 C 
BRANCH  20  21
ATOM     21  O   UNL     1      33.995 -14.987 -23.330  0.00  0.00    -0.468 OA
BRANCH  21  22
ATOM     22  C   UNL     1      33.579 -13.713 -23.060  0.00  0.00    +0.139 C 
ATOM     23  C   UNL     1      34.008 -12.653 -23.859  0.00  0.00    +0.038 C 
ATOM     24  C   UNL     1      32.725 -13.472 -21.984  0.00  0.00    +0.038 C 
ATOM     25  C   UNL     1      32.730 -11.114 -22.507  0.00  0.00    +0.078 C 
ATOM     26  C   UNL     1      33.584 -11.354 -23.583  0.00  0.00    +0.020 C 
ATOM     27  C   UNL     1      32.300 -12.172 -21.707  0.00  0.00    +0.020 C 
BRANCH  25  28
ATOM     28  N   UNL     1      32.309  -9.825 -22.232  0.00  0.00    -0.149 N 
ATOM     29  N   UNL     1      32.366  -8.843 -23.142  0.00  0.00    -0.048 NA
ATOM     30  N   UNL     1      31.524  -8.071 -21.228  0.00  0.00    -0.107 NA
ATOM     31  N   UNL     1      31.884  -7.772 -22.523  0.00  0.00    -0.024 NA
ATOM     32  C   UNL     1      31.794  -9.346 -21.069  0.00  0.00    +0.215 C 
ENDBRANCH  25  28
ENDBRANCH  21  22
ENDBRANCH  20  21
ENDBRANCH   4  20
TORSDOF 6
ENDMDL
MODEL 8
REMARK VINA RESULT:     -10.5      6.069     11.317
REMARK  Name = 25025505
REMARK  6 active torsions:
REMARK  status: ('A' for Active; 'I' for Inactive)
REMARK    1  A    between atoms: C_3  and  C_9
REMARK    2  A    between atoms: C_4  and  C_20
REMARK    3  A    between atoms: C_17  and  C_18
REMARK    4  A    between atoms: C_20  and  O_21
REMARK    5  A    between atoms: O_21  and  C_22
REMARK    6  A    between atoms: C_25  and  N_28
REMARK                            x       y       z     vdW  Elec       q    Type
REMARK                         _______ _______ _______ _____ _____    ______ ____
ROOT
ATOM      1  S   UNL     1      34.323 -19.312 -23.666  0.00  0.00    -0.079 S 
ATOM      2  N   UNL     1      35.090 -17.721 -21.779  0.00  0.00    -0.404 NA
ATOM      3  C   UNL     1      34.919 -18.986 -22.090  0.00  0.00    +0.134 C 
ATOM      4  C   UNL     1      34.728 -16.942 -22.860  0.00  0.00    +0.142 C 
ATOM      5  C   UNL     1      34.286 -17.625 -23.974  0.00  0.00    +0.122 C 
ENDROOT
BRANCH   3   9
ATOM      6  N   UNL     1      35.430 -21.464 -18.589  0.00  0.00    -0.253 N 
ATOM      7  N   UNL     1      34.371 -22.541 -16.807  0.00  0.00    -0.203 NA
ATOM      8  N   UNL     1      36.773 -22.389 -16.916  0.00  0.00    -0.181 NA
ATOM      9  C   UNL     1      35.210 -20.147 -21.157  0.00  0.00    +0.062 C 
ATOM     10  C   UNL     1      36.358 -19.834 -20.186  0.00  0.00    +0.030 C 
ATOM     11  C   UNL     1      33.967 -20.575 -20.362  0.00  0.00    +0.030 C 
ATOM     12  C   UNL     1      36.653 -21.021 -19.268  0.00  0.00    +0.102 C 
ATOM     13  C   UNL     1      34.276 -21.762 -19.449  0.00  0.00    +0.102 C 
ATOM     14  C   UNL     1      35.529 -22.165 -17.381  0.00  0.00    +0.090 C 
ATOM     15  C   UNL     1      34.503 -23.213 -15.644  0.00  0.00    +0.161 C 
ATOM     16  C   UNL     1      36.832 -23.065 -15.750  0.00  0.00    +0.104 C 
ATOM     17  C   UNL     1      35.719 -23.505 -15.062  0.00  0.00    +0.001 C 
BRANCH  17  18
ATOM     18  C   UNL     1      35.823 -24.246 -13.782  0.00  0.00    +0.026 C 
ATOM     19  C   UNL     1      34.471 -24.414 -13.087  0.00  0.00    +0.005 C 
ENDBRANCH  17  18
ENDBRANCH   3   9
BRANCH   4  20
ATOM     20  C   UNL     1      34.839 -15.475 -22.737  0.00  0.00    +0.260 C 
BRANCH  20  21
ATOM     21  O   UNL     1      33.881 -14.841 -23.584  0.00  0.00    -0.468 OA
BRANCH  21  22
ATOM     22  C   UNL     1      33.501 -13.574 -23.237  0.00  0.00    +0.139 C 
ATOM     23  C   UNL     1      32.632 -13.375 -22.163  0.00  0.00    +0.038 C 
ATOM     24  C   UNL     1      33.981 -12.479 -23.955  0.00  0.00    +0.038 C 
ATOM     25  C   UNL     1      32.724 -10.990 -22.529  0.00  0.00    +0.078 C 
ATOM     26  C   UNL     1      32.244 -12.083 -21.809  0.00  0.00    +0.020 C 
ATOM     27  C   UNL     1      33.593 -11.187 -23.602  0.00  0.00    +0.020 C 
BRANCH  25  28
ATOM     28  N   UNL     1      32.339  -9.708 -22.178  0.00  0.00    -0.149 N 
ATOM     29  N   UNL     1      31.889  -9.405 -20.953  0.00  0.00    -0.048 NA
ATOM     30  N   UNL     1      31.904  -7.585 -22.241  0.00  0.00    -0.107 NA
ATOM     31  N   UNL     1      31.624  -8.105 -20.996  0.00  0.00    -0.024 NA
ATOM     32  C   UNL     1      32.345  -8.594 -22.955  0.00  0.00    +0.215 C 
ENDBRANCH  25  28
ENDBRANCH  21  22
ENDBRANCH  20  21
ENDBRANCH   4  20
TORSDOF 6
ENDMDL
MODEL 9
REMARK VINA RESULT:     -10.4      5.542      8.844
REMARK  Name = 25025505
REMARK  6 active torsions:
REMARK  status: ('A' for Active; 'I' for Inactive)
REMARK    1  A    between atoms: C_3  and  C_9
REMARK    2  A    between atoms: C_4  and  C_20
REMARK    3  A    between atoms: C_17  and  C_18
REMARK    4  A    between atoms: C_20  and  O_21
REMARK    5  A    between atoms: O_21  and  C_22
REMARK    6  A    between atoms: C_25  and  N_28
REMARK                            x       y       z     vdW  Elec       q    Type
REMARK                         _______ _______ _______ _____ _____    ______ ____
ROOT
ATOM      1  S   UNL     1      34.537 -17.914 -23.546  0.00  0.00    -0.079 S 
ATOM      2  N   UNL     1      35.263 -17.929 -21.065  0.00  0.00    -0.404 NA
ATOM      3  C   UNL     1      34.909 -17.144 -22.058  0.00  0.00    +0.134 C 
ATOM      4  C   UNL     1      35.242 -19.239 -21.503  0.00  0.00    +0.142 C 
ATOM      5  C   UNL     1      34.873 -19.430 -22.818  0.00  0.00    +0.122 C 
ENDROOT
BRANCH   3   9
ATOM      6  N   UNL     1      33.479 -13.069 -22.112  0.00  0.00    -0.253 N 
ATOM      7  N   UNL     1      32.072 -11.497 -21.109  0.00  0.00    -0.203 NA
ATOM      8  N   UNL     1      33.183 -11.019 -23.194  0.00  0.00    -0.181 NA
ATOM      9  C   UNL     1      34.814 -15.633 -21.964  0.00  0.00    +0.062 C 
ATOM     10  C   UNL     1      34.444 -14.993 -23.311  0.00  0.00    +0.030 C 
ATOM     11  C   UNL     1      33.813 -15.182 -20.890  0.00  0.00    +0.030 C 
ATOM     12  C   UNL     1      34.374 -13.469 -23.204  0.00  0.00    +0.102 C 
ATOM     13  C   UNL     1      33.753 -13.658 -20.794  0.00  0.00    +0.102 C 
ATOM     14  C   UNL     1      32.884 -11.802 -22.139  0.00  0.00    +0.090 C 
ATOM     15  C   UNL     1      31.515 -10.269 -21.168  0.00  0.00    +0.161 C 
ATOM     16  C   UNL     1      32.592  -9.807 -23.188  0.00  0.00    +0.104 C 
ATOM     17  C   UNL     1      31.739  -9.373 -22.193  0.00  0.00    +0.001 C 
BRANCH  17  18
ATOM     18  C   UNL     1      31.108  -8.032 -22.222  0.00  0.00    +0.026 C 
ATOM     19  C   UNL     1      31.772  -7.047 -21.259  0.00  0.00    +0.005 C 
ENDBRANCH  17  18
ENDBRANCH   3   9
BRANCH   4  20
ATOM     20  C   UNL     1      35.608 -20.304 -20.548  0.00  0.00    +0.260 C 
BRANCH  20  21
ATOM     21  O   UNL     1      34.431 -20.947 -20.060  0.00  0.00    -0.468 OA
BRANCH  21  22
ATOM     22  C   UNL     1      34.553 -21.638 -18.886  0.00  0.00    +0.139 C 
ATOM     23  C   UNL     1      33.449 -22.300 -18.347  0.00  0.00    +0.038 C 
ATOM     24  C   UNL     1      35.781 -21.682 -18.226  0.00  0.00    +0.038 C 
ATOM     25  C   UNL     1      34.801 -23.047 -16.491  0.00  0.00    +0.078 C 
ATOM     26  C   UNL     1      33.573 -23.003 -17.149  0.00  0.00    +0.020 C 
ATOM     27  C   UNL     1      35.906 -22.386 -17.029  0.00  0.00    +0.020 C 
BRANCH  25  28
ATOM     28  N   UNL     1      34.925 -23.745 -15.303  0.00  0.00    -0.149 N 
ATOM     29  N   UNL     1      35.931 -24.600 -15.075  0.00  0.00    -0.048 NA
ATOM     30  N   UNL     1      34.578 -24.514 -13.305  0.00  0.00    -0.107 NA
ATOM     31  N   UNL     1      35.714 -25.068 -13.852  0.00  0.00    -0.024 NA
ATOM     32  C   UNL     1      34.106 -23.699 -14.220  0.00  0.00    +0.215 C 
ENDBRANCH  25  28
ENDBRANCH  21  22
ENDBRANCH  20  21
ENDBRANCH   4  20
TORSDOF 6
ENDMDL
