MODEL 1
REMARK VINA RESULT:     -12.6      0.000      0.000
REMARK  Name = 21081761
REMARK  5 active torsions:
REMARK  status: ('A' for Active; 'I' for Inactive)
REMARK    1  A    between atoms: N_2  and  C_6
REMARK    2  A    between atoms: C_3  and  C_25
REMARK    3  A    between atoms: C_7  and  O_12
REMARK    4  A    between atoms: O_12  and  C_16
REMARK    5  A    between atoms: N_24  and  C_31
REMARK                            x       y       z     vdW  Elec       q    Type
REMARK                         _______ _______ _______ _____ _____    ______ ____
ROOT
ATOM      1  O   UNL     1      32.640 -22.330 -19.723  0.00  0.00    -0.270 OA
ATOM      2  N   UNL     1      34.456 -21.023 -18.975  0.00  0.00    -0.280 N 
ATOM      3  C   UNL     1      33.444 -21.979 -18.868  0.00  0.00    +0.254 C 
ATOM      4  H   UNL     1      35.003 -20.880 -18.170  0.00  0.00    +0.155 HD
ENDROOT
BRANCH   2   6
ATOM      5  F   UNL     1      37.661 -18.507 -21.478  0.00  0.00    -0.201 F 
ATOM      6  C   UNL     1      34.786 -20.245 -20.085  0.00  0.00    +0.053 C 
ATOM      7  C   UNL     1      35.445 -18.689 -22.304  0.00  0.00    +0.173 C 
ATOM      8  C   UNL     1      36.083 -19.753 -20.233  0.00  0.00    +0.047 C 
ATOM      9  C   UNL     1      33.818 -19.959 -21.049  0.00  0.00    +0.018 C 
ATOM     10  C   UNL     1      36.413 -18.975 -21.342  0.00  0.00    +0.176 C 
ATOM     11  C   UNL     1      34.147 -19.180 -22.158  0.00  0.00    +0.041 C 
BRANCH   7  12
ATOM     12  O   UNL     1      35.770 -17.916 -23.403  0.00  0.00    -0.451 OA
BRANCH  12  16
ATOM     13  N   UNL     1      33.556 -14.032 -22.106  0.00  0.00    -0.297 N 
ATOM     14  N   UNL     1      33.212 -14.706 -24.393  0.00  0.00    -0.229 NA
ATOM     15  C   UNL     1      34.605 -15.891 -22.760  0.00  0.00    +0.067 C 
ATOM     16  C   UNL     1      34.944 -16.871 -23.707  0.00  0.00    +0.150 C 
ATOM     17  C   UNL     1      33.756 -14.869 -23.172  0.00  0.00    +0.135 C 
ATOM     18  C   UNL     1      34.915 -15.644 -21.396  0.00  0.00    +0.022 C 
ATOM     19  C   UNL     1      34.256 -14.493 -21.021  0.00  0.00    +0.063 C 
ATOM     20  C   UNL     1      34.408 -16.750 -24.989  0.00  0.00    +0.058 C 
ATOM     21  C   UNL     1      33.571 -15.677 -25.264  0.00  0.00    +0.103 C 
ATOM     22  H   UNL     1      32.995 -13.222 -22.117  0.00  0.00    +0.154 HD
ENDBRANCH  12  16
ENDBRANCH   7  12
ENDBRANCH   2   6
BRANCH   3  25
ATOM     23  O   UNL     1      35.717 -22.853 -17.347  0.00  0.00    -0.269 OA
ATOM     24  N   UNL     1      34.430 -23.536 -15.484  0.00  0.00    -0.233 N 
ATOM     25  C   UNL     1      33.397 -22.599 -17.539  0.00  0.00    +0.108 C 
ATOM     26  C   UNL     1      34.633 -22.991 -16.780  0.00  0.00    +0.261 C 
ATOM     27  C   UNL     1      33.133 -23.748 -15.017  0.00  0.00    +0.072 C 
ATOM     28  C   UNL     1      32.184 -22.827 -17.020  0.00  0.00    +0.010 C 
ATOM     29  C   UNL     1      32.046 -23.427 -15.726  0.00  0.00    +0.017 C 
BRANCH  24  31
ATOM     30  F   UNL     1      38.824 -24.900 -12.329  0.00  0.00    -0.204 F 
ATOM     31  C   UNL     1      35.572 -23.890 -14.664  0.00  0.00    +0.059 C 
ATOM     32  C   UNL     1      36.150 -22.938 -13.824  0.00  0.00    +0.018 C 
ATOM     33  C   UNL     1      36.093 -25.184 -14.715  0.00  0.00    +0.018 C 
ATOM     34  C   UNL     1      37.248 -23.279 -13.035  0.00  0.00    +0.031 C 
ATOM     35  C   UNL     1      37.191 -25.525 -13.926  0.00  0.00    +0.031 C 
ATOM     36  C   UNL     1      37.769 -24.573 -13.086  0.00  0.00    +0.140 C 
ENDBRANCH  24  31
ENDBRANCH   3  25
TORSDOF 5
ENDMDL
MODEL 2
REMARK VINA RESULT:     -12.6      2.706     10.825
REMARK  Name = 21081761
REMARK  5 active torsions:
REMARK  status: ('A' for Active; 'I' for Inactive)
REMARK    1  A    between atoms: N_2  and  C_6
REMARK    2  A    between atoms: C_3  and  C_25
REMARK    3  A    between atoms: C_7  and  O_12
REMARK    4  A    between atoms: O_12  and  C_16
REMARK    5  A    between atoms: N_24  and  C_31
REMARK                            x       y       z     vdW  Elec       q    Type
REMARK                         _______ _______ _______ _____ _____    ______ ____
ROOT
ATOM      1  O   UNL     1      36.409 -17.880 -21.784  0.00  0.00    -0.270 OA
ATOM      2  N   UNL     1      34.212 -18.725 -21.621  0.00  0.00    -0.280 N 
ATOM      3  C   UNL     1      35.217 -17.863 -22.066  0.00  0.00    +0.254 C 
ATOM      4  H   UNL     1      33.306 -18.546 -21.962  0.00  0.00    +0.155 HD
ENDROOT
BRANCH   2   6
ATOM      5  F   UNL     1      36.939 -21.720 -19.080  0.00  0.00    -0.201 F 
ATOM      6  C   UNL     1      34.335 -19.808 -20.751  0.00  0.00    +0.053 C 
ATOM      7  C   UNL     1      34.582 -21.977 -19.013  0.00  0.00    +0.173 C 
ATOM      8  C   UNL     1      35.599 -20.234 -20.340  0.00  0.00    +0.047 C 
ATOM      9  C   UNL     1      33.195 -20.467 -20.292  0.00  0.00    +0.018 C 
ATOM     10  C   UNL     1      35.723 -21.318 -19.472  0.00  0.00    +0.176 C 
ATOM     11  C   UNL     1      33.318 -21.552 -19.424  0.00  0.00    +0.041 C 
BRANCH   7  12
ATOM     12  O   UNL     1      34.703 -23.052 -18.154  0.00  0.00    -0.451 OA
BRANCH  12  16
ATOM     13  N   UNL     1      34.319 -23.262 -13.519  0.00  0.00    -0.297 N 
ATOM     14  N   UNL     1      32.242 -23.060 -14.722  0.00  0.00    -0.229 NA
ATOM     15  C   UNL     1      34.469 -23.159 -15.744  0.00  0.00    +0.067 C 
ATOM     16  C   UNL     1      33.921 -23.056 -17.033  0.00  0.00    +0.150 C 
ATOM     17  C   UNL     1      33.584 -23.153 -14.670  0.00  0.00    +0.135 C 
ATOM     18  C   UNL     1      35.776 -23.276 -15.200  0.00  0.00    +0.022 C 
ATOM     19  C   UNL     1      35.652 -23.337 -13.829  0.00  0.00    +0.063 C 
ATOM     20  C   UNL     1      32.535 -22.956 -17.145  0.00  0.00    +0.058 C 
ATOM     21  C   UNL     1      31.770 -22.964 -15.987  0.00  0.00    +0.103 C 
ATOM     22  H   UNL     1      33.947 -23.282 -12.607  0.00  0.00    +0.154 HD
ENDBRANCH  12  16
ENDBRANCH   7  12
ENDBRANCH   2   6
BRANCH   3  25
ATOM     23  O   UNL     1      34.277 -15.259 -21.302  0.00  0.00    -0.269 OA
ATOM     24  N   UNL     1      33.853 -14.567 -23.523  0.00  0.00    -0.233 N 
ATOM     25  C   UNL     1      34.709 -16.834 -22.980  0.00  0.00    +0.108 C 
ATOM     26  C   UNL     1      34.276 -15.473 -22.514  0.00  0.00    +0.261 C 
ATOM     27  C   UNL     1      33.788 -14.990 -24.851  0.00  0.00    +0.072 C 
ATOM     28  C   UNL     1      34.626 -17.164 -24.275  0.00  0.00    +0.010 C 
ATOM     29  C   UNL     1      34.143 -16.219 -25.238  0.00  0.00    +0.017 C 
BRANCH  24  31
ATOM     30  F   UNL     1      32.375  -9.368 -22.140  0.00  0.00    -0.204 F 
ATOM     31  C   UNL     1      33.469 -13.216 -23.163  0.00  0.00    +0.059 C 
ATOM     32  C   UNL     1      33.997 -12.131 -23.863  0.00  0.00    +0.018 C 
ATOM     33  C   UNL     1      32.571 -13.001 -22.117  0.00  0.00    +0.018 C 
ATOM     34  C   UNL     1      33.627 -10.831 -23.518  0.00  0.00    +0.031 C 
ATOM     35  C   UNL     1      32.201 -11.701 -21.772  0.00  0.00    +0.031 C 
ATOM     36  C   UNL     1      32.729 -10.616 -22.472  0.00  0.00    +0.140 C 
ENDBRANCH  24  31
ENDBRANCH   3  25
TORSDOF 5
ENDMDL
MODEL 3
REMARK VINA RESULT:     -12.4      5.615     12.857
REMARK  Name = 21081761
REMARK  5 active torsions:
REMARK  status: ('A' for Active; 'I' for Inactive)
REMARK    1  A    between atoms: N_2  and  C_6
REMARK    2  A    between atoms: C_3  and  C_25
REMARK    3  A    between atoms: C_7  and  O_12
REMARK    4  A    between atoms: O_12  and  C_16
REMARK    5  A    between atoms: N_24  and  C_31
REMARK                            x       y       z     vdW  Elec       q    Type
REMARK                         _______ _______ _______ _____ _____    ______ ____
ROOT
ATOM      1  O   UNL     1      31.267 -12.604 -21.518  0.00  0.00    -0.270 OA
ATOM      2  N   UNL     1      33.550 -12.465 -22.100  0.00  0.00    -0.280 N 
ATOM      3  C   UNL     1      32.301 -11.976 -21.709  0.00  0.00    +0.254 C 
ATOM      4  H   UNL     1      34.264 -11.795 -22.203  0.00  0.00    +0.155 HD
ENDROOT
BRANCH   2   6
ATOM      5  F   UNL     1      34.204 -16.054 -25.191  0.00  0.00    -0.201 F 
ATOM      6  C   UNL     1      33.908 -13.787 -22.362  0.00  0.00    +0.053 C 
ATOM      7  C   UNL     1      34.623 -16.432 -22.886  0.00  0.00    +0.173 C 
ATOM      8  C   UNL     1      33.877 -14.273 -23.670  0.00  0.00    +0.047 C 
ATOM      9  C   UNL     1      34.297 -14.625 -21.316  0.00  0.00    +0.018 C 
ATOM     10  C   UNL     1      34.235 -15.595 -23.932  0.00  0.00    +0.176 C 
ATOM     11  C   UNL     1      34.654 -15.947 -21.578  0.00  0.00    +0.041 C 
BRANCH   7  12
ATOM     12  O   UNL     1      34.976 -17.743 -23.145  0.00  0.00    -0.451 OA
BRANCH  12  16
ATOM     13  N   UNL     1      34.562 -20.798 -19.656  0.00  0.00    -0.297 N 
ATOM     14  N   UNL     1      36.778 -19.925 -20.011  0.00  0.00    -0.229 NA
ATOM     15  C   UNL     1      34.794 -19.330 -21.322  0.00  0.00    +0.067 C 
ATOM     16  C   UNL     1      35.544 -18.457 -22.127  0.00  0.00    +0.150 C 
ATOM     17  C   UNL     1      35.469 -20.009 -20.313  0.00  0.00    +0.135 C 
ATOM     18  C   UNL     1      33.434 -19.737 -21.254  0.00  0.00    +0.022 C 
ATOM     19  C   UNL     1      33.322 -20.640 -20.220  0.00  0.00    +0.063 C 
ATOM     20  C   UNL     1      36.906 -18.332 -21.858  0.00  0.00    +0.058 C 
ATOM     21  C   UNL     1      37.451 -19.070 -20.816  0.00  0.00    +0.103 C 
ATOM     22  H   UNL     1      34.767 -21.388 -18.895  0.00  0.00    +0.154 HD
ENDBRANCH  12  16
ENDBRANCH   7  12
ENDBRANCH   2   6
BRANCH   3  25
ATOM     23  O   UNL     1      33.440 -10.058 -23.517  0.00  0.00    -0.269 OA
ATOM     24  N   UNL     1      32.762  -8.187 -22.239  0.00  0.00    -0.233 N 
ATOM     25  C   UNL     1      32.302 -10.520 -21.523  0.00  0.00    +0.108 C 
ATOM     26  C   UNL     1      32.877  -9.571 -22.536  0.00  0.00    +0.261 C 
ATOM     27  C   UNL     1      32.206  -7.783 -21.025  0.00  0.00    +0.072 C 
ATOM     28  C   UNL     1      31.776 -10.056 -20.384  0.00  0.00    +0.010 C 
ATOM     29  C   UNL     1      31.734  -8.648 -20.121  0.00  0.00    +0.017 C 
BRANCH  24  31
ATOM     30  F   UNL     1      34.618  -4.400 -25.891  0.00  0.00    -0.204 F 
ATOM     31  C   UNL     1      33.244  -7.203 -23.188  0.00  0.00    +0.059 C 
ATOM     32  C   UNL     1      32.340  -6.384 -23.864  0.00  0.00    +0.018 C 
ATOM     33  C   UNL     1      34.613  -7.075 -23.426  0.00  0.00    +0.018 C 
ATOM     34  C   UNL     1      32.804  -5.437 -24.777  0.00  0.00    +0.031 C 
ATOM     35  C   UNL     1      35.078  -6.128 -24.338  0.00  0.00    +0.031 C 
ATOM     36  C   UNL     1      34.173  -5.309 -25.014  0.00  0.00    +0.140 C 
ENDBRANCH  24  31
ENDBRANCH   3  25
TORSDOF 5
ENDMDL
MODEL 4
REMARK VINA RESULT:     -12.2      2.956     10.916
REMARK  Name = 21081761
REMARK  5 active torsions:
REMARK  status: ('A' for Active; 'I' for Inactive)
REMARK    1  A    between atoms: N_2  and  C_6
REMARK    2  A    between atoms: C_3  and  C_25
REMARK    3  A    between atoms: C_7  and  O_12
REMARK    4  A    between atoms: O_12  and  C_16
REMARK    5  A    between atoms: N_24  and  C_31
REMARK                            x       y       z     vdW  Elec       q    Type
REMARK                         _______ _______ _______ _____ _____    ______ ____
ROOT
ATOM      1  O   UNL     1      36.432 -17.966 -22.293  0.00  0.00    -0.270 OA
ATOM      2  N   UNL     1      34.245 -18.640 -21.723  0.00  0.00    -0.280 N 
ATOM      3  C   UNL     1      35.214 -17.869 -22.368  0.00  0.00    +0.254 C 
ATOM      4  H   UNL     1      33.307 -18.405 -21.912  0.00  0.00    +0.155 HD
ENDROOT
BRANCH   2   6
ATOM      5  F   UNL     1      32.501 -21.899 -18.688  0.00  0.00    -0.201 F 
ATOM      6  C   UNL     1      34.443 -19.704 -20.843  0.00  0.00    +0.053 C 
ATOM      7  C   UNL     1      34.839 -21.831 -19.081  0.00  0.00    +0.173 C 
ATOM      8  C   UNL     1      33.353 -20.283 -20.191  0.00  0.00    +0.047 C 
ATOM      9  C   UNL     1      35.730 -20.190 -20.614  0.00  0.00    +0.018 C 
ATOM     10  C   UNL     1      33.551 -21.346 -19.309  0.00  0.00    +0.176 C 
ATOM     11  C   UNL     1      35.929 -21.252 -19.732  0.00  0.00    +0.041 C 
BRANCH   7  12
ATOM     12  O   UNL     1      35.037 -22.883 -18.207  0.00  0.00    -0.451 OA
BRANCH  12  16
ATOM     13  N   UNL     1      35.236 -23.199 -13.566  0.00  0.00    -0.297 N 
ATOM     14  N   UNL     1      37.068 -22.031 -14.605  0.00  0.00    -0.229 NA
ATOM     15  C   UNL     1      35.170 -23.030 -15.792  0.00  0.00    +0.067 C 
ATOM     16  C   UNL     1      35.682 -22.616 -17.032  0.00  0.00    +0.150 C 
ATOM     17  C   UNL     1      35.905 -22.706 -14.656  0.00  0.00    +0.135 C 
ATOM     18  C   UNL     1      34.022 -23.741 -15.350  0.00  0.00    +0.022 C 
ATOM     19  C   UNL     1      34.090 -23.829 -13.977  0.00  0.00    +0.063 C 
ATOM     20  C   UNL     1      36.885 -21.912 -17.037  0.00  0.00    +0.058 C 
ATOM     21  C   UNL     1      37.514 -21.656 -15.826  0.00  0.00    +0.103 C 
ATOM     22  H   UNL     1      35.532 -23.113 -12.631  0.00  0.00    +0.154 HD
ENDBRANCH  12  16
ENDBRANCH   7  12
ENDBRANCH   2   6
BRANCH   3  25
ATOM     23  O   UNL     1      34.395 -15.254 -21.510  0.00  0.00    -0.269 OA
ATOM     24  N   UNL     1      33.749 -14.554 -23.675  0.00  0.00    -0.233 N 
ATOM     25  C   UNL     1      34.626 -16.833 -23.225  0.00  0.00    +0.108 C 
ATOM     26  C   UNL     1      34.263 -15.467 -22.716  0.00  0.00    +0.261 C 
ATOM     27  C   UNL     1      33.539 -14.974 -24.989  0.00  0.00    +0.072 C 
ATOM     28  C   UNL     1      34.403 -17.159 -24.503  0.00  0.00    +0.010 C 
ATOM     29  C   UNL     1      33.834 -16.207 -25.410  0.00  0.00    +0.017 C 
BRANCH  24  31
ATOM     30  F   UNL     1      32.494  -9.337 -22.144  0.00  0.00    -0.204 F 
ATOM     31  C   UNL     1      33.423 -13.198 -23.277  0.00  0.00    +0.059 C 
ATOM     32  C   UNL     1      32.538 -12.974 -22.222  0.00  0.00    +0.018 C 
ATOM     33  C   UNL     1      33.994 -12.117 -23.949  0.00  0.00    +0.018 C 
ATOM     34  C   UNL     1      32.225 -11.670 -21.839  0.00  0.00    +0.031 C 
ATOM     35  C   UNL     1      33.681 -10.813 -23.566  0.00  0.00    +0.031 C 
ATOM     36  C   UNL     1      32.796 -10.589 -22.511  0.00  0.00    +0.140 C 
ENDBRANCH  24  31
ENDBRANCH   3  25
TORSDOF 5
ENDMDL
MODEL 5
REMARK VINA RESULT:     -12.1      5.015     12.171
REMARK  Name = 21081761
REMARK  5 active torsions:
REMARK  status: ('A' for Active; 'I' for Inactive)
REMARK    1  A    between atoms: N_2  and  C_6
REMARK    2  A    between atoms: C_3  and  C_25
REMARK    3  A    between atoms: C_7  and  O_12
REMARK    4  A    between atoms: O_12  and  C_16
REMARK    5  A    between atoms: N_24  and  C_31
REMARK                            x       y       z     vdW  Elec       q    Type
REMARK                         _______ _______ _______ _____ _____    ______ ____
ROOT
ATOM      1  O   UNL     1      32.390 -13.719 -21.765  0.00  0.00    -0.270 OA
ATOM      2  N   UNL     1      34.397 -14.187 -22.913  0.00  0.00    -0.280 N 
ATOM      3  C   UNL     1      33.342 -13.391 -22.462  0.00  0.00    +0.254 C 
ATOM      4  H   UNL     1      35.073 -13.737 -23.470  0.00  0.00    +0.155 HD
ENDROOT
BRANCH   2   6
ATOM      5  F   UNL     1      34.534 -18.711 -24.457  0.00  0.00    -0.201 F 
ATOM      6  C   UNL     1      34.611 -15.544 -22.670  0.00  0.00    +0.053 C 
ATOM      7  C   UNL     1      35.036 -18.258 -22.183  0.00  0.00    +0.173 C 
ATOM      8  C   UNL     1      34.464 -16.471 -23.703  0.00  0.00    +0.047 C 
ATOM      9  C   UNL     1      34.972 -15.976 -21.393  0.00  0.00    +0.018 C 
ATOM     10  C   UNL     1      34.676 -17.828 -23.460  0.00  0.00    +0.176 C 
ATOM     11  C   UNL     1      35.184 -17.333 -21.149  0.00  0.00    +0.041 C 
BRANCH   7  12
ATOM     12  O   UNL     1      35.246 -19.603 -21.941  0.00  0.00    -0.451 OA
BRANCH  12  16
ATOM     13  N   UNL     1      35.055 -22.048 -17.984  0.00  0.00    -0.297 N 
ATOM     14  N   UNL     1      32.926 -21.394 -18.900  0.00  0.00    -0.229 NA
ATOM     15  C   UNL     1      35.112 -20.874 -19.882  0.00  0.00    +0.067 C 
ATOM     16  C   UNL     1      34.510 -20.188 -20.949  0.00  0.00    +0.150 C 
ATOM     17  C   UNL     1      34.271 -21.433 -18.925  0.00  0.00    +0.135 C 
ATOM     18  C   UNL     1      36.443 -21.174 -19.487  0.00  0.00    +0.022 C 
ATOM     19  C   UNL     1      36.377 -21.897 -18.316  0.00  0.00    +0.063 C 
ATOM     20  C   UNL     1      33.118 -20.116 -20.973  0.00  0.00    +0.058 C 
ATOM     21  C   UNL     1      32.400 -20.721 -19.951  0.00  0.00    +0.103 C 
ATOM     22  H   UNL     1      34.721 -22.526 -17.190  0.00  0.00    +0.154 HD
ENDBRANCH  12  16
ENDBRANCH   7  12
ENDBRANCH   2   6
BRANCH   3  25
ATOM     23  O   UNL     1      31.857 -11.163 -21.426  0.00  0.00    -0.269 OA
ATOM     24  N   UNL     1      32.926  -9.577 -22.817  0.00  0.00    -0.233 N 
ATOM     25  C   UNL     1      33.453 -12.002 -22.920  0.00  0.00    +0.108 C 
ATOM     26  C   UNL     1      32.677 -10.876 -22.299  0.00  0.00    +0.261 C 
ATOM     27  C   UNL     1      33.796  -9.417 -23.895  0.00  0.00    +0.072 C 
ATOM     28  C   UNL     1      34.278 -11.767 -23.948  0.00  0.00    +0.010 C 
ATOM     29  C   UNL     1      34.448 -10.439 -24.457  0.00  0.00    +0.017 C 
BRANCH  24  31
ATOM     30  F   UNL     1      30.352  -5.158 -20.586  0.00  0.00    -0.204 F 
ATOM     31  C   UNL     1      32.257  -8.429 -22.237  0.00  0.00    +0.059 C 
ATOM     32  C   UNL     1      32.631  -7.967 -20.975  0.00  0.00    +0.018 C 
ATOM     33  C   UNL     1      31.239  -7.785 -22.942  0.00  0.00    +0.018 C 
ATOM     34  C   UNL     1      31.988  -6.862 -20.418  0.00  0.00    +0.031 C 
ATOM     35  C   UNL     1      30.595  -6.680 -22.385  0.00  0.00    +0.031 C 
ATOM     36  C   UNL     1      30.970  -6.218 -21.122  0.00  0.00    +0.140 C 
ENDBRANCH  24  31
ENDBRANCH   3  25
TORSDOF 5
ENDMDL
MODEL 6
REMARK VINA RESULT:     -12.1      1.133      2.014
REMARK  Name = 21081761
REMARK  5 active torsions:
REMARK  status: ('A' for Active; 'I' for Inactive)
REMARK    1  A    between atoms: N_2  and  C_6
REMARK    2  A    between atoms: C_3  and  C_25
REMARK    3  A    between atoms: C_7  and  O_12
REMARK    4  A    between atoms: O_12  and  C_16
REMARK    5  A    between atoms: N_24  and  C_31
REMARK                            x       y       z     vdW  Elec       q    Type
REMARK                         _______ _______ _______ _____ _____    ______ ____
ROOT
ATOM      1  O   UNL     1      31.845 -22.135 -17.938  0.00  0.00    -0.270 OA
ATOM      2  N   UNL     1      34.200 -22.007 -18.005  0.00  0.00    -0.280 N 
ATOM      3  C   UNL     1      32.958 -22.391 -17.495  0.00  0.00    +0.254 C 
ATOM      4  H   UNL     1      34.989 -22.314 -17.502  0.00  0.00    +0.155 HD
ENDROOT
BRANCH   2   6
ATOM      5  F   UNL     1      37.298 -19.847 -20.939  0.00  0.00    -0.201 F 
ATOM      6  C   UNL     1      34.459 -21.241 -19.142  0.00  0.00    +0.053 C 
ATOM      7  C   UNL     1      34.977 -19.708 -21.414  0.00  0.00    +0.173 C 
ATOM      8  C   UNL     1      35.773 -20.919 -19.482  0.00  0.00    +0.047 C 
ATOM      9  C   UNL     1      33.404 -20.797 -19.939  0.00  0.00    +0.018 C 
ATOM     10  C   UNL     1      36.033 -20.152 -20.618  0.00  0.00    +0.176 C 
ATOM     11  C   UNL     1      33.663 -20.029 -21.075  0.00  0.00    +0.041 C 
BRANCH   7  12
ATOM     12  O   UNL     1      35.233 -18.947 -22.539  0.00  0.00    -0.451 OA
BRANCH  12  16
ATOM     13  N   UNL     1      33.324 -15.241 -24.613  0.00  0.00    -0.297 N 
ATOM     14  N   UNL     1      34.148 -14.869 -22.381  0.00  0.00    -0.229 NA
ATOM     15  C   UNL     1      34.246 -16.999 -23.591  0.00  0.00    +0.067 C 
ATOM     16  C   UNL     1      34.875 -17.628 -22.504  0.00  0.00    +0.150 C 
ATOM     17  C   UNL     1      33.924 -15.653 -23.452  0.00  0.00    +0.135 C 
ATOM     18  C   UNL     1      33.819 -17.393 -24.887  0.00  0.00    +0.022 C 
ATOM     19  C   UNL     1      33.256 -16.292 -25.493  0.00  0.00    +0.063 C 
ATOM     20  C   UNL     1      35.132 -16.862 -21.368  0.00  0.00    +0.058 C 
ATOM     21  C   UNL     1      34.756 -15.525 -21.366  0.00  0.00    +0.103 C 
ATOM     22  H   UNL     1      32.993 -14.331 -24.791  0.00  0.00    +0.154 HD
ENDBRANCH  12  16
ENDBRANCH   7  12
ENDBRANCH   2   6
BRANCH   3  25
ATOM     23  O   UNL     1      35.403 -23.441 -16.418  0.00  0.00    -0.269 OA
ATOM     24  N   UNL     1      34.362 -24.410 -14.528  0.00  0.00    -0.233 N 
ATOM     25  C   UNL     1      33.078 -23.200 -16.276  0.00  0.00    +0.108 C 
ATOM     26  C   UNL     1      34.400 -23.678 -15.745  0.00  0.00    +0.261 C 
ATOM     27  C   UNL     1      33.134 -24.709 -13.938  0.00  0.00    +0.072 C 
ATOM     28  C   UNL     1      31.941 -23.520 -15.648  0.00  0.00    +0.010 C 
ATOM     29  C   UNL     1      31.967 -24.305 -14.449  0.00  0.00    +0.017 C 
BRANCH  24  31
ATOM     30  F   UNL     1      39.117 -26.151 -12.187  0.00  0.00    -0.204 F 
ATOM     31  C   UNL     1      35.598 -24.862 -13.920  0.00  0.00    +0.059 C 
ATOM     32  C   UNL     1      36.156 -24.147 -12.861  0.00  0.00    +0.018 C 
ATOM     33  C   UNL     1      36.228 -26.013 -14.394  0.00  0.00    +0.018 C 
ATOM     34  C   UNL     1      37.345 -24.582 -12.275  0.00  0.00    +0.031 C 
ATOM     35  C   UNL     1      37.417 -26.449 -13.808  0.00  0.00    +0.031 C 
ATOM     36  C   UNL     1      37.975 -25.734 -12.749  0.00  0.00    +0.140 C 
ENDBRANCH  24  31
ENDBRANCH   3  25
TORSDOF 5
ENDMDL
MODEL 7
REMARK VINA RESULT:     -12.0      2.754     10.996
REMARK  Name = 21081761
REMARK  5 active torsions:
REMARK  status: ('A' for Active; 'I' for Inactive)
REMARK    1  A    between atoms: N_2  and  C_6
REMARK    2  A    between atoms: C_3  and  C_25
REMARK    3  A    between atoms: C_7  and  O_12
REMARK    4  A    between atoms: O_12  and  C_16
REMARK    5  A    between atoms: N_24  and  C_31
REMARK                            x       y       z     vdW  Elec       q    Type
REMARK                         _______ _______ _______ _____ _____    ______ ____
ROOT
ATOM      1  O   UNL     1      36.292 -19.243 -20.305  0.00  0.00    -0.270 OA
ATOM      2  N   UNL     1      34.276 -20.458 -20.467  0.00  0.00    -0.280 N 
ATOM      3  C   UNL     1      35.235 -19.521 -20.858  0.00  0.00    +0.254 C 
ATOM      4  H   UNL     1      33.485 -20.536 -21.048  0.00  0.00    +0.155 HD
ENDROOT
BRANCH   2   6
ATOM      5  F   UNL     1      31.981 -23.017 -17.143  0.00  0.00    -0.201 F 
ATOM      6  C   UNL     1      34.301 -21.296 -19.352  0.00  0.00    +0.053 C 
ATOM      7  C   UNL     1      34.353 -22.971 -17.122  0.00  0.00    +0.173 C 
ATOM      8  C   UNL     1      33.107 -21.748 -18.791  0.00  0.00    +0.047 C 
ATOM      9  C   UNL     1      35.522 -21.682 -18.798  0.00  0.00    +0.018 C 
ATOM     10  C   UNL     1      33.132 -22.586 -17.676  0.00  0.00    +0.176 C 
ATOM     11  C   UNL     1      35.548 -22.519 -17.682  0.00  0.00    +0.041 C 
BRANCH   7  12
ATOM     12  O   UNL     1      34.379 -23.799 -16.016  0.00  0.00    -0.451 OA
BRANCH  12  16
ATOM     13  N   UNL     1      37.834 -25.918 -13.725  0.00  0.00    -0.297 N 
ATOM     14  N   UNL     1      37.750 -23.523 -13.488  0.00  0.00    -0.229 NA
ATOM     15  C   UNL     1      36.188 -24.872 -14.812  0.00  0.00    +0.067 C 
ATOM     16  C   UNL     1      35.472 -23.727 -15.199  0.00  0.00    +0.150 C 
ATOM     17  C   UNL     1      37.286 -24.688 -13.977  0.00  0.00    +0.135 C 
ATOM     18  C   UNL     1      36.088 -26.267 -15.060  0.00  0.00    +0.022 C 
ATOM     19  C   UNL     1      37.114 -26.885 -14.378  0.00  0.00    +0.063 C 
ATOM     20  C   UNL     1      35.910 -22.493 -14.721  0.00  0.00    +0.058 C 
ATOM     21  C   UNL     1      37.023 -22.455 -13.892  0.00  0.00    +0.103 C 
ATOM     22  H   UNL     1      38.625 -26.084 -13.162  0.00  0.00    +0.154 HD
ENDBRANCH  12  16
ENDBRANCH   7  12
ENDBRANCH   2   6
BRANCH   3  25
ATOM     23  O   UNL     1      34.674 -16.715 -21.088  0.00  0.00    -0.269 OA
ATOM     24  N   UNL     1      34.325 -16.796 -23.425  0.00  0.00    -0.233 N 
ATOM     25  C   UNL     1      34.865 -18.821 -22.093  0.00  0.00    +0.108 C 
ATOM     26  C   UNL     1      34.630 -17.338 -22.149  0.00  0.00    +0.261 C 
ATOM     27  C   UNL     1      34.187 -17.645 -24.524  0.00  0.00    +0.072 C 
ATOM     28  C   UNL     1      34.722 -19.570 -23.193  0.00  0.00    +0.010 C 
ATOM     29  C   UNL     1      34.364 -18.967 -24.443  0.00  0.00    +0.017 C 
BRANCH  24  31
ATOM     30  F   UNL     1      33.599 -11.294 -24.001  0.00  0.00    -0.204 F 
ATOM     31  C   UNL     1      34.136 -15.366 -23.575  0.00  0.00    +0.059 C 
ATOM     32  C   UNL     1      34.452 -14.507 -22.522  0.00  0.00    +0.018 C 
ATOM     33  C   UNL     1      33.639 -14.849 -24.772  0.00  0.00    +0.018 C 
ATOM     34  C   UNL     1      34.271 -13.131 -22.667  0.00  0.00    +0.031 C 
ATOM     35  C   UNL     1      33.457 -13.474 -24.916  0.00  0.00    +0.031 C 
ATOM     36  C   UNL     1      33.774 -12.615 -23.864  0.00  0.00    +0.140 C 
ENDBRANCH  24  31
ENDBRANCH   3  25
TORSDOF 5
ENDMDL
MODEL 8
REMARK VINA RESULT:     -11.9      6.100     13.246
REMARK  Name = 21081761
REMARK  5 active torsions:
REMARK  status: ('A' for Active; 'I' for Inactive)
REMARK    1  A    between atoms: N_2  and  C_6
REMARK    2  A    between atoms: C_3  and  C_25
REMARK    3  A    between atoms: C_7  and  O_12
REMARK    4  A    between atoms: O_12  and  C_16
REMARK    5  A    between atoms: N_24  and  C_31
REMARK                            x       y       z     vdW  Elec       q    Type
REMARK                         _______ _______ _______ _____ _____    ______ ____
ROOT
ATOM      1  O   UNL     1      32.264 -11.937 -22.169  0.00  0.00    -0.270 OA
ATOM      2  N   UNL     1      34.197 -12.499 -23.400  0.00  0.00    -0.280 N 
ATOM      3  C   UNL     1      33.251 -11.642 -22.832  0.00  0.00    +0.254 C 
ATOM      4  H   UNL     1      34.925 -12.068 -23.903  0.00  0.00    +0.155 HD
ENDROOT
BRANCH   2   6
ATOM      5  F   UNL     1      33.673 -16.760 -25.508  0.00  0.00    -0.201 F 
ATOM      6  C   UNL     1      34.235 -13.892 -23.341  0.00  0.00    +0.053 C 
ATOM      7  C   UNL     1      34.309 -16.679 -23.223  0.00  0.00    +0.173 C 
ATOM      8  C   UNL     1      33.930 -14.647 -24.474  0.00  0.00    +0.047 C 
ATOM      9  C   UNL     1      34.579 -14.531 -22.150  0.00  0.00    +0.018 C 
ATOM     10  C   UNL     1      33.966 -16.041 -24.415  0.00  0.00    +0.176 C 
ATOM     11  C   UNL     1      34.615 -15.924 -22.090  0.00  0.00    +0.041 C 
BRANCH   7  12
ATOM     12  O   UNL     1      34.345 -18.059 -23.164  0.00  0.00    -0.451 OA
BRANCH  12  16
ATOM     13  N   UNL     1      34.793 -20.867 -19.478  0.00  0.00    -0.297 N 
ATOM     14  N   UNL     1      36.820 -19.795 -20.216  0.00  0.00    -0.229 NA
ATOM     15  C   UNL     1      34.612 -19.513 -21.244  0.00  0.00    +0.067 C 
ATOM     16  C   UNL     1      35.132 -18.629 -22.204  0.00  0.00    +0.150 C 
ATOM     17  C   UNL     1      35.499 -20.038 -20.310  0.00  0.00    +0.135 C 
ATOM     18  C   UNL     1      33.333 -20.055 -20.947  0.00  0.00    +0.022 C 
ATOM     19  C   UNL     1      33.475 -20.884 -19.856  0.00  0.00    +0.063 C 
ATOM     20  C   UNL     1      36.495 -18.342 -22.152  0.00  0.00    +0.058 C 
ATOM     21  C   UNL     1      37.266 -18.937 -21.163  0.00  0.00    +0.103 C 
ATOM     22  H   UNL     1      35.173 -21.373 -18.723  0.00  0.00    +0.154 HD
ENDBRANCH  12  16
ENDBRANCH   7  12
ENDBRANCH   2   6
BRANCH   3  25
ATOM     23  O   UNL     1      31.492  -9.440 -22.288  0.00  0.00    -0.269 OA
ATOM     24  N   UNL     1      33.027  -7.801 -23.030  0.00  0.00    -0.233 N 
ATOM     25  C   UNL     1      33.540 -10.230 -23.104  0.00  0.00    +0.108 C 
ATOM     26  C   UNL     1      32.588  -9.123 -22.750  0.00  0.00    +0.261 C 
ATOM     27  C   UNL     1      34.250  -7.598 -23.670  0.00  0.00    +0.072 C 
ATOM     28  C   UNL     1      34.701  -9.955 -23.709  0.00  0.00    +0.010 C 
ATOM     29  C   UNL     1      35.064  -8.602 -24.011  0.00  0.00    +0.017 C 
BRANCH  24  31
ATOM     30  F   UNL     1      29.811  -3.457 -21.646  0.00  0.00    -0.204 F 
ATOM     31  C   UNL     1      32.191  -6.672 -22.670  0.00  0.00    +0.059 C 
ATOM     32  C   UNL     1      31.523  -6.661 -21.446  0.00  0.00    +0.018 C 
ATOM     33  C   UNL     1      32.056  -5.596 -23.549  0.00  0.00    +0.018 C 
ATOM     34  C   UNL     1      30.719  -5.575 -21.100  0.00  0.00    +0.031 C 
ATOM     35  C   UNL     1      31.252  -4.510 -23.203  0.00  0.00    +0.031 C 
ATOM     36  C   UNL     1      30.584  -4.499 -21.978  0.00  0.00    +0.140 C 
ENDBRANCH  24  31
ENDBRANCH   3  25
TORSDOF 5
ENDMDL
MODEL 9
REMARK VINA RESULT:     -11.9      6.900     10.767
REMARK  Name = 21081761
REMARK  5 active torsions:
REMARK  status: ('A' for Active; 'I' for Inactive)
REMARK    1  A    between atoms: N_2  and  C_6
REMARK    2  A    between atoms: C_3  and  C_25
REMARK    3  A    between atoms: C_7  and  O_12
REMARK    4  A    between atoms: O_12  and  C_16
REMARK    5  A    between atoms: N_24  and  C_31
REMARK                            x       y       z     vdW  Elec       q    Type
REMARK                         _______ _______ _______ _____ _____    ______ ____
ROOT
ATOM      1  O   UNL     1      32.624 -12.746 -22.092  0.00  0.00    -0.270 OA
ATOM      2  N   UNL     1      34.083 -11.873 -23.728  0.00  0.00    -0.280 N 
ATOM      3  C   UNL     1      33.415 -12.874 -23.018  0.00  0.00    +0.254 C 
ATOM      4  H   UNL     1      34.685 -12.179 -24.445  0.00  0.00    +0.155 HD
ENDROOT
BRANCH   2   6
ATOM      5  F   UNL     1      31.613  -7.998 -22.406  0.00  0.00    -0.201 F 
ATOM      6  C   UNL     1      34.002 -10.493 -23.544  0.00  0.00    +0.053 C 
ATOM      7  C   UNL     1      33.840  -7.732 -23.179  0.00  0.00    +0.173 C 
ATOM      8  C   UNL     1      32.826  -9.921 -23.058  0.00  0.00    +0.047 C 
ATOM      9  C   UNL     1      35.097  -9.683 -23.847  0.00  0.00    +0.018 C 
ATOM     10  C   UNL     1      32.745  -8.540 -22.875  0.00  0.00    +0.176 C 
ATOM     11  C   UNL     1      35.016  -8.303 -23.665  0.00  0.00    +0.041 C 
BRANCH   7  12
ATOM     12  O   UNL     1      33.760  -6.364 -22.999  0.00  0.00    -0.451 OA
BRANCH  12  16
ATOM     13  N   UNL     1      31.371  -3.068 -25.260  0.00  0.00    -0.297 N 
ATOM     14  N   UNL     1      33.240  -4.000 -26.459  0.00  0.00    -0.229 NA
ATOM     15  C   UNL     1      32.538  -4.652 -24.202  0.00  0.00    +0.067 C 
ATOM     16  C   UNL     1      33.578  -5.591 -24.111  0.00  0.00    +0.150 C 
ATOM     17  C   UNL     1      32.441  -3.916 -25.379  0.00  0.00    +0.135 C 
ATOM     18  C   UNL     1      31.481  -4.218 -23.358  0.00  0.00    +0.022 C 
ATOM     19  C   UNL     1      30.780  -3.244 -24.035  0.00  0.00    +0.063 C 
ATOM     20  C   UNL     1      34.437  -5.719 -25.202  0.00  0.00    +0.058 C 
ATOM     21  C   UNL     1      34.223  -4.919 -26.317  0.00  0.00    +0.103 C 
ATOM     22  H   UNL     1      31.072  -2.430 -25.947  0.00  0.00    +0.154 HD
ENDBRANCH  12  16
ENDBRANCH   7  12
ENDBRANCH   2   6
BRANCH   3  25
ATOM     23  O   UNL     1      34.572 -14.973 -21.437  0.00  0.00    -0.269 OA
ATOM     24  N   UNL     1      34.541 -16.554 -23.196  0.00  0.00    -0.233 N 
ATOM     25  C   UNL     1      33.750 -14.220 -23.497  0.00  0.00    +0.108 C 
ATOM     26  C   UNL     1      34.312 -15.285 -22.600  0.00  0.00    +0.261 C 
ATOM     27  C   UNL     1      34.314 -16.730 -24.561  0.00  0.00    +0.072 C 
ATOM     28  C   UNL     1      33.550 -14.467 -24.797  0.00  0.00    +0.010 C 
ATOM     29  C   UNL     1      33.849 -15.755 -25.348  0.00  0.00    +0.017 C 
BRANCH  24  31
ATOM     30  F   UNL     1      36.431 -20.781 -20.084  0.00  0.00    -0.204 F 
ATOM     31  C   UNL     1      35.032 -17.653 -22.386  0.00  0.00    +0.059 C 
ATOM     32  C   UNL     1      34.219 -18.760 -22.146  0.00  0.00    +0.018 C 
ATOM     33  C   UNL     1      36.319 -17.602 -21.849  0.00  0.00    +0.018 C 
ATOM     34  C   UNL     1      34.692 -19.817 -21.369  0.00  0.00    +0.031 C 
ATOM     35  C   UNL     1      36.792 -18.659 -21.071  0.00  0.00    +0.031 C 
ATOM     36  C   UNL     1      35.978 -19.767 -20.831  0.00  0.00    +0.140 C 
ENDBRANCH  24  31
ENDBRANCH   3  25
TORSDOF 5
ENDMDL
