MODEL 1
REMARK VINA RESULT:     -11.2      0.000      0.000
REMARK  Name = 4565
REMARK  4 active torsions:
REMARK  status: ('A' for Active; 'I' for Inactive)
REMARK    1  A    between atoms: N_5  and  C_15
REMARK    2  A    between atoms: C_6  and  O_21
REMARK    3  A    between atoms: O_21  and  C_22
REMARK    4  A    between atoms: C_22  and  C_23
REMARK                            x       y       z     vdW  Elec       q    Type
REMARK                         _______ _______ _______ _____ _____    ______ ____
ROOT
ATOM      1  N   UNL     1      32.778 -23.507 -15.503  0.00  0.00    -0.293 NA
ATOM      2  N   UNL     1      29.401 -22.702 -16.716  0.00  0.00    -0.266 NA
ATOM      3  N   UNL     1      30.989 -24.126 -13.962  0.00  0.00    -0.316 NA
ATOM      4  N   UNL     1      28.762 -23.589 -14.773  0.00  0.00    -0.296 N 
ATOM      5  N   UNL     1      33.236 -24.524 -13.444  0.00  0.00    -0.238 N 
ATOM      6  C   UNL     1      31.893 -23.019 -16.399  0.00  0.00    +0.288 C 
ATOM      7  C   UNL     1      30.551 -23.080 -16.085  0.00  0.00    +0.215 C 
ATOM      8  C   UNL     1      30.129 -23.628 -14.882  0.00  0.00    +0.196 C 
ATOM      9  C   UNL     1      32.278 -24.024 -14.355  0.00  0.00    +0.207 C 
ATOM     10  C   UNL     1      28.356 -23.027 -15.892  0.00  0.00    +0.164 C 
ATOM     11  H   UNL     1      29.333 -22.273 -17.600  0.00  0.00    +0.126 HD
ATOM     12  H   UNL     1      28.208 -23.910 -14.025  0.00  0.00    +0.150 HD
ATOM     13  H   UNL     1      32.845 -24.893 -12.619  0.00  0.00    +0.166 HD
ENDROOT
BRANCH   5  15
ATOM     14 CL   UNL     1      37.738 -23.184 -11.380  0.00  0.00    -0.082 Cl
ATOM     15  C   UNL     1      34.640 -24.596 -13.485  0.00  0.00    +0.059 C 
ATOM     16  C   UNL     1      35.406 -23.931 -12.524  0.00  0.00    +0.027 C 
ATOM     17  C   UNL     1      35.276 -25.334 -14.487  0.00  0.00    +0.015 C 
ATOM     18  C   UNL     1      36.798 -24.004 -12.565  0.00  0.00    +0.059 C 
ATOM     19  C   UNL     1      36.668 -25.407 -14.528  0.00  0.00    +0.002 C 
ATOM     20  C   UNL     1      37.429 -24.742 -13.566  0.00  0.00    +0.011 C 
ENDBRANCH   5  15
BRANCH   6  21
ATOM     21  O   UNL     1      32.366 -22.487 -17.574  0.00  0.00    -0.453 OA
BRANCH  21  22
ATOM     22  C   UNL     1      33.701 -22.796 -17.928  0.00  0.00    +0.208 C 
BRANCH  22  23
ATOM     23  C   UNL     1      34.045 -22.052 -19.217  0.00  0.00    +0.044 C 
ATOM     24  C   UNL     1      32.995 -20.973 -19.516  0.00  0.00    +0.004 C 
ATOM     25  C   UNL     1      35.449 -21.439 -19.131  0.00  0.00    +0.004 C 
ATOM     26  C   UNL     1      33.346 -20.179 -20.773  0.00  0.00    +0.000 C 
ATOM     27  C   UNL     1      35.795 -20.644 -20.388  0.00  0.00    +0.000 C 
ATOM     28  C   UNL     1      34.745 -19.578 -20.687  0.00  0.00    +0.000 C 
ENDBRANCH  22  23
ENDBRANCH  21  22
ENDBRANCH   6  21
TORSDOF 4
ENDMDL
MODEL 2
REMARK VINA RESULT:     -10.8      2.801      6.439
REMARK  Name = 4565
REMARK  4 active torsions:
REMARK  status: ('A' for Active; 'I' for Inactive)
REMARK    1  A    between atoms: N_5  and  C_15
REMARK    2  A    between atoms: C_6  and  O_21
REMARK    3  A    between atoms: O_21  and  C_22
REMARK    4  A    between atoms: C_22  and  C_23
REMARK                            x       y       z     vdW  Elec       q    Type
REMARK                         _______ _______ _______ _____ _____    ______ ____
ROOT
ATOM      1  N   UNL     1      33.471 -23.020 -16.076  0.00  0.00    -0.293 NA
ATOM      2  N   UNL     1      31.741 -24.614 -13.248  0.00  0.00    -0.266 NA
ATOM      3  N   UNL     1      31.061 -23.255 -16.384  0.00  0.00    -0.316 NA
ATOM      4  N   UNL     1      29.929 -24.310 -14.510  0.00  0.00    -0.296 N 
ATOM      5  N   UNL     1      32.410 -22.275 -18.026  0.00  0.00    -0.238 N 
ATOM      6  C   UNL     1      33.414 -23.599 -14.857  0.00  0.00    +0.288 C 
ATOM      7  C   UNL     1      32.182 -24.011 -14.391  0.00  0.00    +0.215 C 
ATOM      8  C   UNL     1      31.039 -23.832 -15.159  0.00  0.00    +0.196 C 
ATOM      9  C   UNL     1      32.306 -22.885 -16.755  0.00  0.00    +0.207 C 
ATOM     10  C   UNL     1      30.385 -24.772 -13.366  0.00  0.00    +0.164 C 
ATOM     11  H   UNL     1      32.295 -24.886 -12.481  0.00  0.00    +0.126 HD
ATOM     12  H   UNL     1      28.997 -24.307 -14.829  0.00  0.00    +0.150 HD
ATOM     13  H   UNL     1      31.549 -22.190 -18.497  0.00  0.00    +0.166 HD
ENDROOT
BRANCH   5  15
ATOM     14 CL   UNL     1      34.108 -19.319 -21.861  0.00  0.00    -0.082 Cl
ATOM     15  C   UNL     1      33.502 -21.766 -18.750  0.00  0.00    +0.059 C 
ATOM     16  C   UNL     1      33.289 -20.896 -19.823  0.00  0.00    +0.027 C 
ATOM     17  C   UNL     1      34.806 -22.127 -18.400  0.00  0.00    +0.015 C 
ATOM     18  C   UNL     1      34.373 -20.391 -20.540  0.00  0.00    +0.059 C 
ATOM     19  C   UNL     1      35.890 -21.621 -19.117  0.00  0.00    +0.002 C 
ATOM     20  C   UNL     1      35.673 -20.752 -20.188  0.00  0.00    +0.011 C 
ENDBRANCH   5  15
BRANCH   6  21
ATOM     21  O   UNL     1      34.576 -23.751 -14.141  0.00  0.00    -0.453 OA
BRANCH  21  22
ATOM     22  C   UNL     1      35.663 -22.916 -14.494  0.00  0.00    +0.208 C 
BRANCH  22  23
ATOM     23  C   UNL     1      36.929 -23.466 -13.841  0.00  0.00    +0.044 C 
ATOM     24  C   UNL     1      36.748 -23.584 -12.321  0.00  0.00    +0.004 C 
ATOM     25  C   UNL     1      37.308 -24.822 -14.451  0.00  0.00    +0.004 C 
ATOM     26  C   UNL     1      37.983 -24.182 -11.651  0.00  0.00    +0.000 C 
ATOM     27  C   UNL     1      38.542 -25.419 -13.777  0.00  0.00    +0.000 C 
ATOM     28  C   UNL     1      38.361 -25.525 -12.266  0.00  0.00    +0.000 C 
ENDBRANCH  22  23
ENDBRANCH  21  22
ENDBRANCH   6  21
TORSDOF 4
ENDMDL
MODEL 3
REMARK VINA RESULT:     -10.6      8.246     11.459
REMARK  Name = 4565
REMARK  4 active torsions:
REMARK  status: ('A' for Active; 'I' for Inactive)
REMARK    1  A    between atoms: N_5  and  C_15
REMARK    2  A    between atoms: C_6  and  O_21
REMARK    3  A    between atoms: O_21  and  C_22
REMARK    4  A    between atoms: C_22  and  C_23
REMARK                            x       y       z     vdW  Elec       q    Type
REMARK                         _______ _______ _______ _____ _____    ______ ____
ROOT
ATOM      1  N   UNL     1      34.390 -15.728 -22.960  0.00  0.00    -0.293 NA
ATOM      2  N   UNL     1      33.315 -12.897 -25.047  0.00  0.00    -0.266 NA
ATOM      3  N   UNL     1      34.190 -16.257 -25.334  0.00  0.00    -0.316 NA
ATOM      4  N   UNL     1      33.478 -14.380 -26.704  0.00  0.00    -0.296 N 
ATOM      5  N   UNL     1      34.857 -17.872 -23.778  0.00  0.00    -0.238 N 
ATOM      6  C   UNL     1      34.010 -14.449 -23.171  0.00  0.00    +0.288 C 
ATOM      7  C   UNL     1      33.718 -14.063 -24.462  0.00  0.00    +0.215 C 
ATOM      8  C   UNL     1      33.812 -14.968 -25.511  0.00  0.00    +0.196 C 
ATOM      9  C   UNL     1      34.456 -16.542 -24.041  0.00  0.00    +0.207 C 
ATOM     10  C   UNL     1      33.185 -13.136 -26.390  0.00  0.00    +0.164 C 
ATOM     11  H   UNL     1      33.148 -12.041 -24.589  0.00  0.00    +0.126 HD
ATOM     12  H   UNL     1      33.462 -14.795 -27.596  0.00  0.00    +0.150 HD
ATOM     13  H   UNL     1      34.896 -18.441 -24.581  0.00  0.00    +0.166 HD
ENDROOT
BRANCH   5  15
ATOM     14 CL   UNL     1      33.428 -20.861 -19.860  0.00  0.00    -0.082 Cl
ATOM     15  C   UNL     1      35.211 -18.542 -22.593  0.00  0.00    +0.059 C 
ATOM     16  C   UNL     1      34.255 -19.284 -21.894  0.00  0.00    +0.027 C 
ATOM     17  C   UNL     1      36.520 -18.468 -22.109  0.00  0.00    +0.015 C 
ATOM     18  C   UNL     1      34.607 -19.948 -20.719  0.00  0.00    +0.059 C 
ATOM     19  C   UNL     1      36.871 -19.133 -20.935  0.00  0.00    +0.002 C 
ATOM     20  C   UNL     1      35.914 -19.873 -20.239  0.00  0.00    +0.011 C 
ENDBRANCH   5  15
BRANCH   6  21
ATOM     21  O   UNL     1      33.933 -13.596 -22.097  0.00  0.00    -0.453 OA
BRANCH  21  22
ATOM     22  C   UNL     1      32.821 -13.746 -21.234  0.00  0.00    +0.208 C 
BRANCH  22  23
ATOM     23  C   UNL     1      32.032 -12.439 -21.229  0.00  0.00    +0.044 C 
ATOM     24  C   UNL     1      31.857 -11.918 -19.795  0.00  0.00    +0.004 C 
ATOM     25  C   UNL     1      32.718 -11.388 -22.111  0.00  0.00    +0.004 C 
ATOM     26  C   UNL     1      31.116 -10.583 -19.767  0.00  0.00    +0.000 C 
ATOM     27  C   UNL     1      31.976 -10.053 -22.079  0.00  0.00    +0.000 C 
ATOM     28  C   UNL     1      31.796  -9.543 -20.652  0.00  0.00    +0.000 C 
ENDBRANCH  22  23
ENDBRANCH  21  22
ENDBRANCH   6  21
TORSDOF 4
ENDMDL
MODEL 4
REMARK VINA RESULT:     -10.5      1.400      2.047
REMARK  Name = 4565
REMARK  4 active torsions:
REMARK  status: ('A' for Active; 'I' for Inactive)
REMARK    1  A    between atoms: N_5  and  C_15
REMARK    2  A    between atoms: C_6  and  O_21
REMARK    3  A    between atoms: O_21  and  C_22
REMARK    4  A    between atoms: C_22  and  C_23
REMARK                            x       y       z     vdW  Elec       q    Type
REMARK                         _______ _______ _______ _____ _____    ______ ____
ROOT
ATOM      1  N   UNL     1      33.198 -23.858 -14.512  0.00  0.00    -0.293 NA
ATOM      2  N   UNL     1      29.736 -23.956 -15.749  0.00  0.00    -0.266 NA
ATOM      3  N   UNL     1      31.672 -25.139 -13.104  0.00  0.00    -0.316 NA
ATOM      4  N   UNL     1      29.386 -25.197 -13.930  0.00  0.00    -0.296 N 
ATOM      5  N   UNL     1      33.935 -24.911 -12.554  0.00  0.00    -0.238 N 
ATOM      6  C   UNL     1      32.210 -23.558 -15.383  0.00  0.00    +0.288 C 
ATOM      7  C   UNL     1      30.946 -24.045 -15.122  0.00  0.00    +0.215 C 
ATOM      8  C   UNL     1      30.704 -24.820 -13.996  0.00  0.00    +0.196 C 
ATOM      9  C   UNL     1      32.872 -24.620 -13.441  0.00  0.00    +0.207 C 
ATOM     10  C   UNL     1      28.833 -24.662 -14.998  0.00  0.00    +0.164 C 
ATOM     11  H   UNL     1      29.546 -23.474 -16.586  0.00  0.00    +0.126 HD
ATOM     12  H   UNL     1      28.952 -25.746 -13.238  0.00  0.00    +0.150 HD
ATOM     13  H   UNL     1      33.669 -25.467 -11.785  0.00  0.00    +0.166 HD
ENDROOT
BRANCH   5  15
ATOM     14 CL   UNL     1      38.643 -25.714 -14.427  0.00  0.00    -0.082 Cl
ATOM     15  C   UNL     1      35.297 -24.562 -12.556  0.00  0.00    +0.059 C 
ATOM     16  C   UNL     1      36.192 -25.233 -13.393  0.00  0.00    +0.027 C 
ATOM     17  C   UNL     1      35.761 -23.543 -11.720  0.00  0.00    +0.015 C 
ATOM     18  C   UNL     1      37.543 -24.886 -13.394  0.00  0.00    +0.059 C 
ATOM     19  C   UNL     1      37.112 -23.196 -11.722  0.00  0.00    +0.002 C 
ATOM     20  C   UNL     1      38.003 -23.868 -12.560  0.00  0.00    +0.011 C 
ENDBRANCH   5  15
BRANCH   6  21
ATOM     21  O   UNL     1      32.507 -22.787 -16.480  0.00  0.00    -0.453 OA
BRANCH  21  22
ATOM     22  C   UNL     1      33.639 -23.161 -17.243  0.00  0.00    +0.208 C 
BRANCH  22  23
ATOM     23  C   UNL     1      34.094 -21.953 -18.059  0.00  0.00    +0.044 C 
ATOM     24  C   UNL     1      35.534 -22.147 -18.557  0.00  0.00    +0.004 C 
ATOM     25  C   UNL     1      33.140 -21.701 -19.234  0.00  0.00    +0.004 C 
ATOM     26  C   UNL     1      35.994 -20.974 -19.420  0.00  0.00    +0.000 C 
ATOM     27  C   UNL     1      33.605 -20.530 -20.097  0.00  0.00    +0.000 C 
ATOM     28  C   UNL     1      35.038 -20.722 -20.582  0.00  0.00    +0.000 C 
ENDBRANCH  22  23
ENDBRANCH  21  22
ENDBRANCH   6  21
TORSDOF 4
ENDMDL
MODEL 5
REMARK VINA RESULT:     -10.5      3.231      7.070
REMARK  Name = 4565
REMARK  4 active torsions:
REMARK  status: ('A' for Active; 'I' for Inactive)
REMARK    1  A    between atoms: N_5  and  C_15
REMARK    2  A    between atoms: C_6  and  O_21
REMARK    3  A    between atoms: O_21  and  C_22
REMARK    4  A    between atoms: C_22  and  C_23
REMARK                            x       y       z     vdW  Elec       q    Type
REMARK                         _______ _______ _______ _____ _____    ______ ____
ROOT
ATOM      1  N   UNL     1      35.046 -23.651 -15.482  0.00  0.00    -0.293 NA
ATOM      2  N   UNL     1      36.138 -25.401 -12.437  0.00  0.00    -0.266 NA
ATOM      3  N   UNL     1      37.444 -23.503 -15.051  0.00  0.00    -0.316 NA
ATOM      4  N   UNL     1      38.154 -24.662 -13.037  0.00  0.00    -0.296 N 
ATOM      5  N   UNL     1      36.476 -22.480 -16.921  0.00  0.00    -0.238 N 
ATOM      6  C   UNL     1      34.850 -24.394 -14.371  0.00  0.00    +0.288 C 
ATOM      7  C   UNL     1      35.947 -24.697 -13.592  0.00  0.00    +0.215 C 
ATOM      8  C   UNL     1      37.213 -24.249 -13.945  0.00  0.00    +0.196 C 
ATOM      9  C   UNL     1      36.315 -23.256 -15.750  0.00  0.00    +0.207 C 
ATOM     10  C   UNL     1      37.476 -25.352 -12.145  0.00  0.00    +0.164 C 
ATOM     11  H   UNL     1      35.443 -25.859 -11.911  0.00  0.00    +0.126 HD
ATOM     12  H   UNL     1      39.122 -24.483 -13.050  0.00  0.00    +0.150 HD
ATOM     13  H   UNL     1      37.408 -22.208 -17.091  0.00  0.00    +0.166 HD
ENDROOT
BRANCH   5  15
ATOM     14 CL   UNL     1      35.651 -19.736 -21.177  0.00  0.00    -0.082 Cl
ATOM     15  C   UNL     1      35.567 -22.021 -17.890  0.00  0.00    +0.059 C 
ATOM     16  C   UNL     1      36.008 -21.201 -18.932  0.00  0.00    +0.027 C 
ATOM     17  C   UNL     1      34.220 -22.383 -17.816  0.00  0.00    +0.015 C 
ATOM     18  C   UNL     1      35.106 -20.746 -19.894  0.00  0.00    +0.059 C 
ATOM     19  C   UNL     1      33.318 -21.928 -18.778  0.00  0.00    +0.002 C 
ATOM     20  C   UNL     1      33.761 -21.109 -19.818  0.00  0.00    +0.011 C 
ENDBRANCH   5  15
BRANCH   6  21
ATOM     21  O   UNL     1      33.576 -24.811 -14.070  0.00  0.00    -0.453 OA
BRANCH  21  22
ATOM     22  C   UNL     1      32.838 -24.017 -13.160  0.00  0.00    +0.208 C 
BRANCH  22  23
ATOM     23  C   UNL     1      31.412 -23.874 -13.687  0.00  0.00    +0.044 C 
ATOM     24  C   UNL     1      31.411 -23.220 -15.076  0.00  0.00    +0.004 C 
ATOM     25  C   UNL     1      30.709 -25.238 -13.726  0.00  0.00    +0.004 C 
ATOM     26  C   UNL     1      29.999 -23.114 -15.648  0.00  0.00    +0.000 C 
ATOM     27  C   UNL     1      29.299 -25.129 -14.301  0.00  0.00    +0.000 C 
ATOM     28  C   UNL     1      29.301 -24.470 -15.677  0.00  0.00    +0.000 C 
ENDBRANCH  22  23
ENDBRANCH  21  22
ENDBRANCH   6  21
TORSDOF 4
ENDMDL
MODEL 6
REMARK VINA RESULT:     -10.3      2.396      5.248
REMARK  Name = 4565
REMARK  4 active torsions:
REMARK  status: ('A' for Active; 'I' for Inactive)
REMARK    1  A    between atoms: N_5  and  C_15
REMARK    2  A    between atoms: C_6  and  O_21
REMARK    3  A    between atoms: O_21  and  C_22
REMARK    4  A    between atoms: C_22  and  C_23
REMARK                            x       y       z     vdW  Elec       q    Type
REMARK                         _______ _______ _______ _____ _____    ______ ____
ROOT
ATOM      1  N   UNL     1      35.064 -23.329 -16.001  0.00  0.00    -0.293 NA
ATOM      2  N   UNL     1      33.094 -21.987 -18.802  0.00  0.00    -0.266 NA
ATOM      3  N   UNL     1      36.365 -22.027 -17.603  0.00  0.00    -0.316 NA
ATOM      4  N   UNL     1      35.054 -21.147 -19.451  0.00  0.00    -0.296 N 
ATOM      5  N   UNL     1      37.365 -22.998 -15.724  0.00  0.00    -0.238 N 
ATOM      6  C   UNL     1      33.926 -23.134 -16.703  0.00  0.00    +0.288 C 
ATOM      7  C   UNL     1      33.999 -22.386 -17.860  0.00  0.00    +0.215 C 
ATOM      8  C   UNL     1      35.208 -21.851 -18.284  0.00  0.00    +0.196 C 
ATOM      9  C   UNL     1      36.198 -22.770 -16.488  0.00  0.00    +0.207 C 
ATOM     10  C   UNL     1      33.773 -21.248 -19.734  0.00  0.00    +0.164 C 
ATOM     11  H   UNL     1      32.131 -22.194 -18.811  0.00  0.00    +0.126 HD
ATOM     12  H   UNL     1      35.748 -20.670 -19.962  0.00  0.00    +0.150 HD
ATOM     13  H   UNL     1      38.174 -22.581 -16.101  0.00  0.00    +0.166 HD
ENDROOT
BRANCH   5  15
ATOM     14 CL   UNL     1      36.727 -23.310 -10.642  0.00  0.00    -0.082 Cl
ATOM     15  C   UNL     1      37.598 -23.704 -14.530  0.00  0.00    +0.059 C 
ATOM     16  C   UNL     1      37.105 -23.214 -13.317  0.00  0.00    +0.027 C 
ATOM     17  C   UNL     1      38.322 -24.899 -14.551  0.00  0.00    +0.015 C 
ATOM     18  C   UNL     1      37.336 -23.916 -12.134  0.00  0.00    +0.059 C 
ATOM     19  C   UNL     1      38.552 -25.600 -13.367  0.00  0.00    +0.002 C 
ATOM     20  C   UNL     1      38.059 -25.108 -12.158  0.00  0.00    +0.011 C 
ENDBRANCH   5  15
BRANCH   6  21
ATOM     21  O   UNL     1      32.758 -23.686 -16.237  0.00  0.00    -0.453 OA
BRANCH  21  22
ATOM     22  C   UNL     1      32.345 -23.314 -14.936  0.00  0.00    +0.208 C 
BRANCH  22  23
ATOM     23  C   UNL     1      30.821 -23.393 -14.871  0.00  0.00    +0.044 C 
ATOM     24  C   UNL     1      30.192 -22.757 -16.119  0.00  0.00    +0.004 C 
ATOM     25  C   UNL     1      30.359 -24.847 -14.707  0.00  0.00    +0.004 C 
ATOM     26  C   UNL     1      28.669 -22.870 -16.102  0.00  0.00    +0.000 C 
ATOM     27  C   UNL     1      28.836 -24.956 -14.694  0.00  0.00    +0.000 C 
ATOM     28  C   UNL     1      28.214 -24.315 -15.931  0.00  0.00    +0.000 C 
ENDBRANCH  22  23
ENDBRANCH  21  22
ENDBRANCH   6  21
TORSDOF 4
ENDMDL
MODEL 7
REMARK VINA RESULT:     -10.2      3.389      7.326
REMARK  Name = 4565
REMARK  4 active torsions:
REMARK  status: ('A' for Active; 'I' for Inactive)
REMARK    1  A    between atoms: N_5  and  C_15
REMARK    2  A    between atoms: C_6  and  O_21
REMARK    3  A    between atoms: O_21  and  C_22
REMARK    4  A    between atoms: C_22  and  C_23
REMARK                            x       y       z     vdW  Elec       q    Type
REMARK                         _______ _______ _______ _____ _____    ______ ____
ROOT
ATOM      1  N   UNL     1      34.868 -22.611 -16.934  0.00  0.00    -0.293 NA
ATOM      2  N   UNL     1      35.661 -24.536 -13.902  0.00  0.00    -0.266 NA
ATOM      3  N   UNL     1      37.244 -22.662 -16.376  0.00  0.00    -0.316 NA
ATOM      4  N   UNL     1      37.756 -23.936 -14.371  0.00  0.00    -0.296 N 
ATOM      5  N   UNL     1      36.458 -21.509 -18.255  0.00  0.00    -0.238 N 
ATOM      6  C   UNL     1      34.557 -23.371 -15.862  0.00  0.00    +0.288 C 
ATOM      7  C   UNL     1      35.585 -23.783 -15.039  0.00  0.00    +0.215 C 
ATOM      8  C   UNL     1      36.898 -23.423 -15.310  0.00  0.00    +0.196 C 
ATOM      9  C   UNL     1      36.175 -22.307 -17.122  0.00  0.00    +0.207 C 
ATOM     10  C   UNL     1      36.981 -24.599 -13.540  0.00  0.00    +0.164 C 
ATOM     11  H   UNL     1      34.906 -24.955 -13.428  0.00  0.00    +0.126 HD
ATOM     12  H   UNL     1      38.734 -23.832 -14.328  0.00  0.00    +0.150 HD
ATOM     13  H   UNL     1      37.415 -21.304 -18.368  0.00  0.00    +0.166 HD
ENDROOT
BRANCH   5  15
ATOM     14 CL   UNL     1      36.066 -18.552 -22.429  0.00  0.00    -0.082 Cl
ATOM     15  C   UNL     1      35.639 -20.950 -19.253  0.00  0.00    +0.059 C 
ATOM     16  C   UNL     1      36.193 -20.123 -20.233  0.00  0.00    +0.027 C 
ATOM     17  C   UNL     1      34.268 -21.220 -19.268  0.00  0.00    +0.015 C 
ATOM     18  C   UNL     1      35.380 -19.570 -21.222  0.00  0.00    +0.059 C 
ATOM     19  C   UNL     1      33.456 -20.667 -20.258  0.00  0.00    +0.002 C 
ATOM     20  C   UNL     1      34.012 -19.841 -21.235  0.00  0.00    +0.011 C 
ENDBRANCH   5  15
BRANCH   6  21
ATOM     21  O   UNL     1      33.242 -23.698 -15.641  0.00  0.00    -0.453 OA
BRANCH  21  22
ATOM     22  C   UNL     1      32.646 -23.202 -14.456  0.00  0.00    +0.208 C 
BRANCH  22  23
ATOM     23  C   UNL     1      31.129 -23.322 -14.589  0.00  0.00    +0.044 C 
ATOM     24  C   UNL     1      30.675 -22.914 -15.998  0.00  0.00    +0.004 C 
ATOM     25  C   UNL     1      30.668 -24.747 -14.258  0.00  0.00    +0.004 C 
ATOM     26  C   UNL     1      29.167 -23.077 -16.173  0.00  0.00    +0.000 C 
ATOM     27  C   UNL     1      29.159 -24.907 -14.437  0.00  0.00    +0.000 C 
ATOM     28  C   UNL     1      28.711 -24.492 -15.835  0.00  0.00    +0.000 C 
ENDBRANCH  22  23
ENDBRANCH  21  22
ENDBRANCH   6  21
TORSDOF 4
ENDMDL
MODEL 8
REMARK VINA RESULT:     -10.1      1.818      5.537
REMARK  Name = 4565
REMARK  4 active torsions:
REMARK  status: ('A' for Active; 'I' for Inactive)
REMARK    1  A    between atoms: N_5  and  C_15
REMARK    2  A    between atoms: C_6  and  O_21
REMARK    3  A    between atoms: O_21  and  C_22
REMARK    4  A    between atoms: C_22  and  C_23
REMARK                            x       y       z     vdW  Elec       q    Type
REMARK                         _______ _______ _______ _____ _____    ______ ____
ROOT
ATOM      1  N   UNL     1      32.920 -23.587 -15.560  0.00  0.00    -0.293 NA
ATOM      2  N   UNL     1      30.295 -25.044 -13.437  0.00  0.00    -0.266 NA
ATOM      3  N   UNL     1      30.676 -23.441 -16.507  0.00  0.00    -0.316 NA
ATOM      4  N   UNL     1      28.949 -24.408 -15.096  0.00  0.00    -0.296 N 
ATOM      5  N   UNL     1      32.536 -22.593 -17.645  0.00  0.00    -0.238 N 
ATOM      6  C   UNL     1      32.459 -24.212 -14.455  0.00  0.00    +0.288 C 
ATOM      7  C   UNL     1      31.104 -24.457 -14.367  0.00  0.00    +0.215 C 
ATOM      8  C   UNL     1      30.246 -24.070 -15.387  0.00  0.00    +0.196 C 
ATOM      9  C   UNL     1      32.012 -23.244 -16.505  0.00  0.00    +0.207 C 
ATOM     10  C   UNL     1      29.013 -24.991 -13.918  0.00  0.00    +0.164 C 
ATOM     11  H   UNL     1      30.579 -25.435 -12.579  0.00  0.00    +0.126 HD
ATOM     12  H   UNL     1      28.148 -24.249 -15.646  0.00  0.00    +0.150 HD
ATOM     13  H   UNL     1      31.854 -22.355 -18.315  0.00  0.00    +0.166 HD
ENDROOT
BRANCH   5  15
ATOM     14 CL   UNL     1      37.509 -22.331 -16.409  0.00  0.00    -0.082 Cl
ATOM     15  C   UNL     1      33.841 -22.217 -18.010  0.00  0.00    +0.059 C 
ATOM     16  C   UNL     1      34.906 -22.434 -17.131  0.00  0.00    +0.027 C 
ATOM     17  C   UNL     1      34.080 -21.625 -19.253  0.00  0.00    +0.015 C 
ATOM     18  C   UNL     1      36.200 -22.062 -17.494  0.00  0.00    +0.059 C 
ATOM     19  C   UNL     1      35.374 -21.254 -19.616  0.00  0.00    +0.002 C 
ATOM     20  C   UNL     1      36.435 -21.472 -18.735  0.00  0.00    +0.011 C 
ENDBRANCH   5  15
BRANCH   6  21
ATOM     21  O   UNL     1      33.353 -24.573 -13.477  0.00  0.00    -0.453 OA
BRANCH  21  22
ATOM     22  C   UNL     1      34.596 -23.897 -13.460  0.00  0.00    +0.208 C 
BRANCH  22  23
ATOM     23  C   UNL     1      35.711 -24.935 -13.353  0.00  0.00    +0.044 C 
ATOM     24  C   UNL     1      35.946 -25.620 -14.707  0.00  0.00    +0.004 C 
ATOM     25  C   UNL     1      37.004 -24.290 -12.836  0.00  0.00    +0.004 C 
ATOM     26  C   UNL     1      37.093 -26.625 -14.638  0.00  0.00    +0.000 C 
ATOM     27  C   UNL     1      38.150 -25.298 -12.772  0.00  0.00    +0.000 C 
ATOM     28  C   UNL     1      38.374 -25.983 -14.116  0.00  0.00    +0.000 C 
ENDBRANCH  22  23
ENDBRANCH  21  22
ENDBRANCH   6  21
TORSDOF 4
ENDMDL
MODEL 9
REMARK VINA RESULT:     -10.1      3.082      5.860
REMARK  Name = 4565
REMARK  4 active torsions:
REMARK  status: ('A' for Active; 'I' for Inactive)
REMARK    1  A    between atoms: N_5  and  C_15
REMARK    2  A    between atoms: C_6  and  O_21
REMARK    3  A    between atoms: O_21  and  C_22
REMARK    4  A    between atoms: C_22  and  C_23
REMARK                            x       y       z     vdW  Elec       q    Type
REMARK                         _______ _______ _______ _____ _____    ______ ____
ROOT
ATOM      1  N   UNL     1      35.482 -23.688 -14.747  0.00  0.00    -0.293 NA
ATOM      2  N   UNL     1      39.120 -24.169 -14.974  0.00  0.00    -0.266 NA
ATOM      3  N   UNL     1      36.295 -25.696 -13.625  0.00  0.00    -0.316 NA
ATOM      4  N   UNL     1      38.700 -26.005 -13.782  0.00  0.00    -0.296 N 
ATOM      5  N   UNL     1      34.021 -25.144 -13.638  0.00  0.00    -0.238 N 
ATOM      6  C   UNL     1      36.730 -23.349 -15.136  0.00  0.00    +0.288 C 
ATOM      7  C   UNL     1      37.770 -24.180 -14.773  0.00  0.00    +0.215 C 
ATOM      8  C   UNL     1      37.533 -25.329 -14.031  0.00  0.00    +0.196 C 
ATOM      9  C   UNL     1      35.343 -24.826 -14.024  0.00  0.00    +0.207 C 
ATOM     10  C   UNL     1      39.634 -25.282 -14.362  0.00  0.00    +0.164 C 
ATOM     11  H   UNL     1      39.632 -23.488 -15.469  0.00  0.00    +0.126 HD
ATOM     12  H   UNL     1      38.814 -26.845 -13.280  0.00  0.00    +0.150 HD
ATOM     13  H   UNL     1      33.950 -25.975 -13.114  0.00  0.00    +0.166 HD
ENDROOT
BRANCH   5  15
ATOM     14 CL   UNL     1      28.925 -25.534 -14.087  0.00  0.00    -0.082 Cl
ATOM     15  C   UNL     1      32.786 -24.505 -13.855  0.00  0.00    +0.059 C 
ATOM     16  C   UNL     1      31.604 -25.249 -13.863  0.00  0.00    +0.027 C 
ATOM     17  C   UNL     1      32.738 -23.124 -14.062  0.00  0.00    +0.015 C 
ATOM     18  C   UNL     1      30.380 -24.615 -14.078  0.00  0.00    +0.059 C 
ATOM     19  C   UNL     1      31.514 -22.491 -14.276  0.00  0.00    +0.002 C 
ATOM     20  C   UNL     1      30.334 -23.237 -14.284  0.00  0.00    +0.011 C 
ENDBRANCH   5  15
BRANCH   6  21
ATOM     21  O   UNL     1      36.906 -22.201 -15.870  0.00  0.00    -0.453 OA
BRANCH  21  22
ATOM     22  C   UNL     1      36.925 -22.335 -17.279  0.00  0.00    +0.208 C 
BRANCH  22  23
ATOM     23  C   UNL     1      35.660 -21.692 -17.843  0.00  0.00    +0.044 C 
ATOM     24  C   UNL     1      35.862 -21.298 -19.314  0.00  0.00    +0.004 C 
ATOM     25  C   UNL     1      34.458 -22.633 -17.690  0.00  0.00    +0.004 C 
ATOM     26  C   UNL     1      34.593 -20.700 -19.916  0.00  0.00    +0.000 C 
ATOM     27  C   UNL     1      33.192 -22.033 -18.297  0.00  0.00    +0.000 C 
ATOM     28  C   UNL     1      33.399 -21.635 -19.755  0.00  0.00    +0.000 C 
ENDBRANCH  22  23
ENDBRANCH  21  22
ENDBRANCH   6  21
TORSDOF 4
ENDMDL
