MODEL 1
REMARK VINA RESULT:     -11.7      0.000      0.000
REMARK  Name = 6852141
REMARK  6 active torsions:
REMARK  status: ('A' for Active; 'I' for Inactive)
REMARK    1  A    between atoms: C_3  and  N_18
REMARK    2  A    between atoms: C_7  and  C_31
REMARK    3  A    between atoms: C_9  and  C_13
REMARK    4  A    between atoms: C_19  and  C_21
REMARK    5  A    between atoms: C_24  and  O_28
REMARK    6  A    between atoms: C_31  and  O_32
REMARK                            x       y       z     vdW  Elec       q    Type
REMARK                         _______ _______ _______ _____ _____    ______ ____
ROOT
ATOM      1  C   UNL     1      32.273 -23.604 -15.195  0.00  0.00    +0.014 C 
ATOM      2  C   UNL     1      32.204 -24.444 -14.059  0.00  0.00    +0.001 C 
ATOM      3  C   UNL     1      33.529 -23.276 -15.732  0.00  0.00    +0.051 C 
ATOM      4  C   UNL     1      31.084 -23.116 -15.761  0.00  0.00    +0.004 C 
ATOM      5  C   UNL     1      33.392 -24.933 -13.492  0.00  0.00    +0.007 C 
ATOM      6  C   UNL     1      34.699 -23.772 -15.157  0.00  0.00    +0.021 C 
ATOM      7  C   UNL     1      34.631 -24.598 -14.039  0.00  0.00    +0.077 C 
ATOM      8  C   UNL     1      30.948 -24.771 -13.521  0.00  0.00    +0.000 C 
ATOM      9  C   UNL     1      29.845 -23.451 -15.215  0.00  0.00    +0.031 C 
ATOM     10  C   UNL     1      29.777 -24.277 -14.097  0.00  0.00    +0.003 C 
ENDROOT
BRANCH   9  13
ATOM     11  N   UNL     1      28.249 -23.287 -17.110  0.00  0.00    -0.343 N 
ATOM     12  N   UNL     1      27.847 -22.118 -15.127  0.00  0.00    -0.285 NA
ATOM     13  C   UNL     1      28.624 -22.937 -15.814  0.00  0.00    +0.117 C 
ATOM     14  H   UNL     1      27.419 -22.928 -17.497  0.00  0.00    +0.144 HD
ATOM     15  H   UNL     1      28.817 -23.894 -17.639  0.00  0.00    +0.144 HD
ATOM     16  H   UNL     1      27.020 -21.769 -15.531  0.00  0.00    +0.188 HD
ENDBRANCH   9  13
BRANCH   3  18
ATOM     17  O   UNL     1      33.750 -23.974 -18.639  0.00  0.00    -0.270 OA
ATOM     18  N   UNL     1      33.659 -22.449 -16.854  0.00  0.00    -0.280 N 
ATOM     19  C   UNL     1      33.759 -22.832 -18.195  0.00  0.00    +0.249 C 
ATOM     20  H   UNL     1      33.685 -21.481 -16.677  0.00  0.00    +0.155 HD
BRANCH  19  21
ATOM     21  C   UNL     1      33.919 -21.714 -19.161  0.00  0.00    +0.053 C 
ATOM     22  C   UNL     1      35.168 -21.185 -19.411  0.00  0.00    +0.016 C 
ATOM     23  C   UNL     1      32.783 -21.239 -19.787  0.00  0.00    +0.004 C 
ATOM     24  C   UNL     1      35.288 -20.136 -20.323  0.00  0.00    +0.130 C 
ATOM     25  C   UNL     1      36.389 -21.712 -18.725  0.00  0.00    +0.034 C 
ATOM     26  C   UNL     1      32.903 -20.190 -20.699  0.00  0.00    +0.003 C 
ATOM     27  C   UNL     1      34.155 -19.640 -20.967  0.00  0.00    +0.036 C 
BRANCH  24  28
ATOM     28  O   UNL     1      36.504 -19.585 -20.600  0.00  0.00    -0.506 OA
ATOM     29  H   UNL     1      36.563 -18.688 -20.863  0.00  0.00    +0.292 HD
ENDBRANCH  24  28
ENDBRANCH  19  21
ENDBRANCH   3  18
BRANCH   7  31
ATOM     30  O   UNL     1      36.047 -25.215 -12.221  0.00  0.00    -0.245 OA
ATOM     31  C   UNL     1      35.854 -25.112 -13.440  0.00  0.00    +0.341 C 
BRANCH  31  32
ATOM     32  O   UNL     1      36.768 -25.471 -14.392  0.00  0.00    -0.441 OA
ATOM     33  C   UNL     1      36.879 -26.867 -14.690  0.00  0.00    +0.256 C 
ENDBRANCH  31  32
ENDBRANCH   7  31
TORSDOF 6
ENDMDL
MODEL 2
REMARK VINA RESULT:     -11.5      2.372      4.919
REMARK  Name = 6852141
REMARK  6 active torsions:
REMARK  status: ('A' for Active; 'I' for Inactive)
REMARK    1  A    between atoms: C_3  and  N_18
REMARK    2  A    between atoms: C_7  and  C_31
REMARK    3  A    between atoms: C_9  and  C_13
REMARK    4  A    between atoms: C_19  and  C_21
REMARK    5  A    between atoms: C_24  and  O_28
REMARK    6  A    between atoms: C_31  and  O_32
REMARK                            x       y       z     vdW  Elec       q    Type
REMARK                         _______ _______ _______ _____ _____    ______ ____
ROOT
ATOM      1  C   UNL     1      33.242 -23.462 -15.112  0.00  0.00    +0.014 C 
ATOM      2  C   UNL     1      32.694 -24.248 -14.071  0.00  0.00    +0.001 C 
ATOM      3  C   UNL     1      32.397 -22.975 -16.123  0.00  0.00    +0.051 C 
ATOM      4  C   UNL     1      34.619 -23.187 -15.112  0.00  0.00    +0.004 C 
ATOM      5  C   UNL     1      31.317 -24.524 -14.070  0.00  0.00    +0.007 C 
ATOM      6  C   UNL     1      31.031 -23.258 -16.105  0.00  0.00    +0.021 C 
ATOM      7  C   UNL     1      30.492 -24.032 -15.082  0.00  0.00    +0.077 C 
ATOM      8  C   UNL     1      33.539 -24.737 -13.061  0.00  0.00    +0.000 C 
ATOM      9  C   UNL     1      35.444 -23.680 -14.101  0.00  0.00    +0.031 C 
ATOM     10  C   UNL     1      34.905 -24.452 -13.077  0.00  0.00    +0.003 C 
ENDROOT
BRANCH   9  13
ATOM     11  N   UNL     1      37.612 -23.465 -15.291  0.00  0.00    -0.343 N 
ATOM     12  N   UNL     1      37.480 -23.036 -12.998  0.00  0.00    -0.285 NA
ATOM     13  C   UNL     1      36.868 -23.384 -14.116  0.00  0.00    +0.117 C 
ATOM     14  H   UNL     1      38.575 -23.260 -15.279  0.00  0.00    +0.144 HD
ATOM     15  H   UNL     1      37.174 -23.726 -16.134  0.00  0.00    +0.144 HD
ATOM     16  H   UNL     1      38.444 -22.836 -13.006  0.00  0.00    +0.188 HD
ENDBRANCH   9  13
BRANCH   3  18
ATOM     17  O   UNL     1      33.655 -23.791 -18.718  0.00  0.00    -0.270 OA
ATOM     18  N   UNL     1      32.883 -22.193 -17.178  0.00  0.00    -0.280 N 
ATOM     19  C   UNL     1      33.463 -22.631 -18.372  0.00  0.00    +0.249 C 
ATOM     20  H   UNL     1      32.807 -21.219 -17.065  0.00  0.00    +0.155 HD
BRANCH  19  21
ATOM     21  C   UNL     1      33.910 -21.551 -19.291  0.00  0.00    +0.053 C 
ATOM     22  C   UNL     1      35.235 -21.165 -19.317  0.00  0.00    +0.016 C 
ATOM     23  C   UNL     1      32.959 -20.964 -20.102  0.00  0.00    +0.004 C 
ATOM     24  C   UNL     1      35.626 -20.149 -20.189  0.00  0.00    +0.130 C 
ATOM     25  C   UNL     1      36.253 -21.813 -18.432  0.00  0.00    +0.034 C 
ATOM     26  C   UNL     1      33.350 -19.948 -20.974  0.00  0.00    +0.003 C 
ATOM     27  C   UNL     1      34.683 -19.542 -21.017  0.00  0.00    +0.036 C 
BRANCH  24  28
ATOM     28  O   UNL     1      36.924 -19.739 -20.247  0.00  0.00    -0.506 OA
ATOM     29  H   UNL     1      37.184 -19.097 -20.878  0.00  0.00    +0.292 HD
ENDBRANCH  24  28
ENDBRANCH  19  21
ENDBRANCH   3  18
BRANCH   7  31
ATOM     30  O   UNL     1      28.523 -25.113 -14.280  0.00  0.00    -0.245 OA
ATOM     31  C   UNL     1      29.067 -24.326 -15.067  0.00  0.00    +0.341 C 
BRANCH  31  32
ATOM     32  O   UNL     1      28.398 -23.623 -16.032  0.00  0.00    -0.441 OA
ATOM     33  C   UNL     1      27.404 -22.696 -15.584  0.00  0.00    +0.256 C 
ENDBRANCH  31  32
ENDBRANCH   7  31
TORSDOF 6
ENDMDL
MODEL 3
REMARK VINA RESULT:     -11.5      2.440      5.331
REMARK  Name = 6852141
REMARK  6 active torsions:
REMARK  status: ('A' for Active; 'I' for Inactive)
REMARK    1  A    between atoms: C_3  and  N_18
REMARK    2  A    between atoms: C_7  and  C_31
REMARK    3  A    between atoms: C_9  and  C_13
REMARK    4  A    between atoms: C_19  and  C_21
REMARK    5  A    between atoms: C_24  and  O_28
REMARK    6  A    between atoms: C_31  and  O_32
REMARK                            x       y       z     vdW  Elec       q    Type
REMARK                         _______ _______ _______ _____ _____    ______ ____
ROOT
ATOM      1  C   UNL     1      32.136 -23.481 -15.313  0.00  0.00    +0.014 C 
ATOM      2  C   UNL     1      31.117 -24.092 -14.546  0.00  0.00    +0.001 C 
ATOM      3  C   UNL     1      31.793 -22.796 -16.491  0.00  0.00    +0.051 C 
ATOM      4  C   UNL     1      33.469 -23.573 -14.881  0.00  0.00    +0.004 C 
ATOM      5  C   UNL     1      29.783 -24.001 -14.977  0.00  0.00    +0.007 C 
ATOM      6  C   UNL     1      30.463 -22.715 -16.904  0.00  0.00    +0.021 C 
ATOM      7  C   UNL     1      29.460 -23.317 -16.149  0.00  0.00    +0.077 C 
ATOM      8  C   UNL     1      31.460 -24.778 -13.369  0.00  0.00    +0.000 C 
ATOM      9  C   UNL     1      33.792 -24.257 -13.709  0.00  0.00    +0.031 C 
ATOM     10  C   UNL     1      32.789 -24.858 -12.954  0.00  0.00    +0.003 C 
ENDROOT
BRANCH   9  13
ATOM     11  N   UNL     1      35.893 -23.203 -12.908  0.00  0.00    -0.343 N 
ATOM     12  N   UNL     1      35.783 -25.515 -13.227  0.00  0.00    -0.285 NA
ATOM     13  C   UNL     1      35.177 -24.341 -13.275  0.00  0.00    +0.117 C 
ATOM     14  H   UNL     1      36.830 -23.283 -12.618  0.00  0.00    +0.144 HD
ATOM     15  H   UNL     1      35.460 -22.318 -12.941  0.00  0.00    +0.144 HD
ATOM     16  H   UNL     1      36.720 -25.575 -12.934  0.00  0.00    +0.188 HD
ENDBRANCH   9  13
BRANCH   3  18
ATOM     17  O   UNL     1      33.511 -23.914 -18.678  0.00  0.00    -0.270 OA
ATOM     18  N   UNL     1      32.759 -22.173 -17.291  0.00  0.00    -0.280 N 
ATOM     19  C   UNL     1      33.534 -22.748 -18.302  0.00  0.00    +0.249 C 
ATOM     20  H   UNL     1      32.909 -21.216 -17.120  0.00  0.00    +0.155 HD
BRANCH  19  21
ATOM     21  C   UNL     1      34.501 -21.828 -18.956  0.00  0.00    +0.053 C 
ATOM     22  C   UNL     1      34.059 -20.881 -19.857  0.00  0.00    +0.016 C 
ATOM     23  C   UNL     1      35.836 -21.961 -18.629  0.00  0.00    +0.004 C 
ATOM     24  C   UNL     1      34.989 -20.031 -20.456  0.00  0.00    +0.130 C 
ATOM     25  C   UNL     1      32.608 -20.750 -20.200  0.00  0.00    +0.034 C 
ATOM     26  C   UNL     1      36.766 -21.111 -19.228  0.00  0.00    +0.003 C 
ATOM     27  C   UNL     1      36.342 -20.147 -20.141  0.00  0.00    +0.036 C 
BRANCH  24  28
ATOM     28  O   UNL     1      34.594 -19.081 -21.350  0.00  0.00    -0.506 OA
ATOM     29  H   UNL     1      33.768 -18.651 -21.242  0.00  0.00    +0.292 HD
ENDBRANCH  24  28
ENDBRANCH  19  21
ENDBRANCH   3  18
BRANCH   7  31
ATOM     30  O   UNL     1      27.443 -24.163 -17.101  0.00  0.00    -0.245 OA
ATOM     31  C   UNL     1      28.074 -23.231 -16.583  0.00  0.00    +0.341 C 
BRANCH  31  32
ATOM     32  O   UNL     1      27.549 -21.990 -16.348  0.00  0.00    -0.441 OA
ATOM     33  C   UNL     1      26.324 -21.668 -17.016  0.00  0.00    +0.256 C 
ENDBRANCH  31  32
ENDBRANCH   7  31
TORSDOF 6
ENDMDL
MODEL 4
REMARK VINA RESULT:     -10.7      2.564      6.281
REMARK  Name = 6852141
REMARK  6 active torsions:
REMARK  status: ('A' for Active; 'I' for Inactive)
REMARK    1  A    between atoms: C_3  and  N_18
REMARK    2  A    between atoms: C_7  and  C_31
REMARK    3  A    between atoms: C_9  and  C_13
REMARK    4  A    between atoms: C_19  and  C_21
REMARK    5  A    between atoms: C_24  and  O_28
REMARK    6  A    between atoms: C_31  and  O_32
REMARK                            x       y       z     vdW  Elec       q    Type
REMARK                         _______ _______ _______ _____ _____    ______ ____
ROOT
ATOM      1  C   UNL     1      34.903 -22.302 -17.412  0.00  0.00    +0.014 C 
ATOM      2  C   UNL     1      36.293 -22.051 -17.493  0.00  0.00    +0.001 C 
ATOM      3  C   UNL     1      34.403 -23.059 -16.339  0.00  0.00    +0.051 C 
ATOM      4  C   UNL     1      34.053 -21.791 -18.405  0.00  0.00    +0.004 C 
ATOM      5  C   UNL     1      37.143 -22.562 -16.499  0.00  0.00    +0.007 C 
ATOM      6  C   UNL     1      35.263 -23.559 -15.360  0.00  0.00    +0.021 C 
ATOM      7  C   UNL     1      36.630 -23.311 -15.440  0.00  0.00    +0.077 C 
ATOM      8  C   UNL     1      36.792 -21.294 -18.566  0.00  0.00    +0.000 C 
ATOM      9  C   UNL     1      34.566 -21.042 -19.464  0.00  0.00    +0.031 C 
ATOM     10  C   UNL     1      35.933 -20.793 -19.544  0.00  0.00    +0.003 C 
ENDROOT
BRANCH   9  13
ATOM     11  N   UNL     1      34.158 -19.797 -21.574  0.00  0.00    -0.343 N 
ATOM     12  N   UNL     1      32.369 -20.721 -20.386  0.00  0.00    -0.285 NA
ATOM     13  C   UNL     1      33.672 -20.518 -20.485  0.00  0.00    +0.117 C 
ATOM     14  H   UNL     1      33.535 -19.452 -22.253  0.00  0.00    +0.144 HD
ATOM     15  H   UNL     1      35.125 -19.633 -21.663  0.00  0.00    +0.144 HD
ATOM     16  H   UNL     1      31.763 -20.367 -21.076  0.00  0.00    +0.188 HD
ENDBRANCH   9  13
BRANCH   3  18
ATOM     17  O   UNL     1      32.503 -22.434 -14.107  0.00  0.00    -0.270 OA
ATOM     18  N   UNL     1      33.038 -23.342 -16.206  0.00  0.00    -0.280 N 
ATOM     19  C   UNL     1      32.197 -23.024 -15.136  0.00  0.00    +0.249 C 
ATOM     20  H   UNL     1      32.622 -23.822 -16.957  0.00  0.00    +0.155 HD
BRANCH  19  21
ATOM     21  C   UNL     1      30.792 -23.488 -15.278  0.00  0.00    +0.053 C 
ATOM     22  C   UNL     1      30.330 -24.545 -14.521  0.00  0.00    +0.016 C 
ATOM     23  C   UNL     1      29.985 -22.826 -16.182  0.00  0.00    +0.004 C 
ATOM     24  C   UNL     1      29.006 -24.959 -14.674  0.00  0.00    +0.130 C 
ATOM     25  C   UNL     1      31.217 -25.251 -13.544  0.00  0.00    +0.034 C 
ATOM     26  C   UNL     1      28.662 -23.240 -16.336  0.00  0.00    +0.003 C 
ATOM     27  C   UNL     1      28.173 -24.305 -15.581  0.00  0.00    +0.036 C 
BRANCH  24  28
ATOM     28  O   UNL     1      28.509 -25.997 -13.945  0.00  0.00    -0.506 OA
ATOM     29  H   UNL     1      27.687 -26.382 -14.177  0.00  0.00    +0.292 HD
ENDBRANCH  24  28
ENDBRANCH  19  21
ENDBRANCH   3  18
BRANCH   7  31
ATOM     30  O   UNL     1      38.735 -24.037 -14.584  0.00  0.00    -0.245 OA
ATOM     31  C   UNL     1      37.524 -23.834 -14.418  0.00  0.00    +0.341 C 
BRANCH  31  32
ATOM     32  O   UNL     1      36.862 -24.075 -13.246  0.00  0.00    -0.441 OA
ATOM     33  C   UNL     1      37.149 -23.202 -12.148  0.00  0.00    +0.256 C 
ENDBRANCH  31  32
ENDBRANCH   7  31
TORSDOF 6
ENDMDL
MODEL 5
REMARK VINA RESULT:     -10.4      2.085      6.605
REMARK  Name = 6852141
REMARK  6 active torsions:
REMARK  status: ('A' for Active; 'I' for Inactive)
REMARK    1  A    between atoms: C_3  and  N_18
REMARK    2  A    between atoms: C_7  and  C_31
REMARK    3  A    between atoms: C_9  and  C_13
REMARK    4  A    between atoms: C_19  and  C_21
REMARK    5  A    between atoms: C_24  and  O_28
REMARK    6  A    between atoms: C_31  and  O_32
REMARK                            x       y       z     vdW  Elec       q    Type
REMARK                         _______ _______ _______ _____ _____    ______ ____
ROOT
ATOM      1  C   UNL     1      33.127 -23.111 -15.952  0.00  0.00    +0.014 C 
ATOM      2  C   UNL     1      32.272 -22.691 -16.999  0.00  0.00    +0.001 C 
ATOM      3  C   UNL     1      34.517 -22.983 -16.108  0.00  0.00    +0.051 C 
ATOM      4  C   UNL     1      32.567 -23.646 -14.781  0.00  0.00    +0.004 C 
ATOM      5  C   UNL     1      32.831 -22.156 -18.171  0.00  0.00    +0.007 C 
ATOM      6  C   UNL     1      35.055 -22.448 -17.278  0.00  0.00    +0.021 C 
ATOM      7  C   UNL     1      34.214 -22.036 -18.308  0.00  0.00    +0.077 C 
ATOM      8  C   UNL     1      30.882 -22.820 -16.844  0.00  0.00    +0.000 C 
ATOM      9  C   UNL     1      31.184 -23.766 -14.644  0.00  0.00    +0.031 C 
ATOM     10  C   UNL     1      30.343 -23.353 -15.673  0.00  0.00    +0.003 C 
ENDROOT
BRANCH   9  13
ATOM     11  N   UNL     1      29.797 -25.445 -13.452  0.00  0.00    -0.343 N 
ATOM     12  N   UNL     1      30.883 -23.755 -12.259  0.00  0.00    -0.285 NA
ATOM     13  C   UNL     1      30.620 -24.321 -13.424  0.00  0.00    +0.117 C 
ATOM     14  H   UNL     1      29.426 -25.805 -12.614  0.00  0.00    +0.144 HD
ATOM     15  H   UNL     1      29.586 -25.880 -14.310  0.00  0.00    +0.144 HD
ATOM     16  H   UNL     1      30.503 -24.129 -11.432  0.00  0.00    +0.188 HD
ENDBRANCH   9  13
BRANCH   3  18
ATOM     17  O   UNL     1      35.481 -25.717 -15.348  0.00  0.00    -0.270 OA
ATOM     18  N   UNL     1      35.412 -23.382 -15.107  0.00  0.00    -0.280 N 
ATOM     19  C   UNL     1      35.827 -24.679 -14.796  0.00  0.00    +0.249 C 
ATOM     20  H   UNL     1      35.793 -22.661 -14.556  0.00  0.00    +0.155 HD
BRANCH  19  21
ATOM     21  C   UNL     1      36.769 -24.785 -13.651  0.00  0.00    +0.053 C 
ATOM     22  C   UNL     1      36.335 -24.525 -12.368  0.00  0.00    +0.016 C 
ATOM     23  C   UNL     1      38.073 -25.148 -13.925  0.00  0.00    +0.004 C 
ATOM     24  C   UNL     1      37.242 -24.631 -11.313  0.00  0.00    +0.130 C 
ATOM     25  C   UNL     1      34.918 -24.133 -12.089  0.00  0.00    +0.034 C 
ATOM     26  C   UNL     1      38.980 -25.254 -12.870  0.00  0.00    +0.003 C 
ATOM     27  C   UNL     1      38.563 -24.996 -11.565  0.00  0.00    +0.036 C 
BRANCH  24  28
ATOM     28  O   UNL     1      36.853 -24.385 -10.030  0.00  0.00    -0.506 OA
ATOM     29  H   UNL     1      36.915 -25.061  -9.384  0.00  0.00    +0.292 HD
ENDBRANCH  24  28
ENDBRANCH  19  21
ENDBRANCH   3  18
BRANCH   7  31
ATOM     30  O   UNL     1      35.930 -21.696 -19.930  0.00  0.00    -0.245 OA
ATOM     31  C   UNL     1      34.779 -21.479 -19.528  0.00  0.00    +0.341 C 
BRANCH  31  32
ATOM     32  O   UNL     1      33.878 -20.684 -20.182  0.00  0.00    -0.441 OA
ATOM     33  C   UNL     1      34.413 -19.661 -21.029  0.00  0.00    +0.256 C 
ENDBRANCH  31  32
ENDBRANCH   7  31
TORSDOF 6
ENDMDL
MODEL 6
REMARK VINA RESULT:     -10.4      3.004      6.294
REMARK  Name = 6852141
REMARK  6 active torsions:
REMARK  status: ('A' for Active; 'I' for Inactive)
REMARK    1  A    between atoms: C_3  and  N_18
REMARK    2  A    between atoms: C_7  and  C_31
REMARK    3  A    between atoms: C_9  and  C_13
REMARK    4  A    between atoms: C_19  and  C_21
REMARK    5  A    between atoms: C_24  and  O_28
REMARK    6  A    between atoms: C_31  and  O_32
REMARK                            x       y       z     vdW  Elec       q    Type
REMARK                         _______ _______ _______ _____ _____    ______ ____
ROOT
ATOM      1  C   UNL     1      35.393 -23.014 -15.290  0.00  0.00    +0.014 C 
ATOM      2  C   UNL     1      36.743 -22.819 -14.913  0.00  0.00    +0.001 C 
ATOM      3  C   UNL     1      34.500 -23.588 -14.370  0.00  0.00    +0.051 C 
ATOM      4  C   UNL     1      34.976 -22.630 -16.574  0.00  0.00    +0.004 C 
ATOM      5  C   UNL     1      37.161 -23.202 -13.629  0.00  0.00    +0.007 C 
ATOM      6  C   UNL     1      34.932 -23.962 -13.098  0.00  0.00    +0.021 C 
ATOM      7  C   UNL     1      36.260 -23.771 -12.728  0.00  0.00    +0.077 C 
ATOM      8  C   UNL     1      37.636 -22.246 -15.834  0.00  0.00    +0.000 C 
ATOM      9  C   UNL     1      35.877 -22.062 -17.475  0.00  0.00    +0.031 C 
ATOM     10  C   UNL     1      37.204 -21.869 -17.105  0.00  0.00    +0.003 C 
ENDROOT
BRANCH   9  13
ATOM     11  N   UNL     1      34.248 -22.173 -19.347  0.00  0.00    -0.343 N 
ATOM     12  N   UNL     1      36.146 -20.820 -19.516  0.00  0.00    -0.285 NA
ATOM     13  C   UNL     1      35.428 -21.669 -18.801  0.00  0.00    +0.117 C 
ATOM     14  H   UNL     1      33.963 -21.894 -20.246  0.00  0.00    +0.144 HD
ATOM     15  H   UNL     1      33.700 -22.809 -18.831  0.00  0.00    +0.144 HD
ATOM     16  H   UNL     1      35.844 -20.554 -20.414  0.00  0.00    +0.188 HD
ENDBRANCH   9  13
BRANCH   3  18
ATOM     17  O   UNL     1      32.061 -21.991 -13.671  0.00  0.00    -0.270 OA
ATOM     18  N   UNL     1      33.153 -23.807 -14.687  0.00  0.00    -0.280 N 
ATOM     19  C   UNL     1      32.051 -23.024 -14.331  0.00  0.00    +0.249 C 
ATOM     20  H   UNL     1      32.960 -24.609 -15.223  0.00  0.00    +0.155 HD
BRANCH  19  21
ATOM     21  C   UNL     1      30.735 -23.536 -14.795  0.00  0.00    +0.053 C 
ATOM     22  C   UNL     1      30.101 -24.547 -14.103  0.00  0.00    +0.016 C 
ATOM     23  C   UNL     1      30.187 -22.967 -15.927  0.00  0.00    +0.004 C 
ATOM     24  C   UNL     1      28.866 -25.008 -14.561  0.00  0.00    +0.130 C 
ATOM     25  C   UNL     1      30.708 -25.153 -12.877  0.00  0.00    +0.034 C 
ATOM     26  C   UNL     1      28.953 -23.428 -16.386  0.00  0.00    +0.003 C 
ATOM     27  C   UNL     1      28.294 -24.449 -15.702  0.00  0.00    +0.036 C 
BRANCH  24  28
ATOM     28  O   UNL     1      28.205 -26.004 -13.906  0.00  0.00    -0.506 OA
ATOM     29  H   UNL     1      27.300 -25.900 -13.687  0.00  0.00    +0.292 HD
ENDBRANCH  24  28
ENDBRANCH  19  21
ENDBRANCH   3  18
BRANCH   7  31
ATOM     30  O   UNL     1      37.206 -23.389 -10.572  0.00  0.00    -0.245 OA
ATOM     31  C   UNL     1      36.708 -24.163 -11.400  0.00  0.00    +0.341 C 
BRANCH  31  32
ATOM     32  O   UNL     1      36.512 -25.499 -11.177  0.00  0.00    -0.441 OA
ATOM     33  C   UNL     1      37.224 -26.408 -12.023  0.00  0.00    +0.256 C 
ENDBRANCH  31  32
ENDBRANCH   7  31
TORSDOF 6
ENDMDL
MODEL 7
REMARK VINA RESULT:     -10.3      2.611      5.412
REMARK  Name = 6852141
REMARK  6 active torsions:
REMARK  status: ('A' for Active; 'I' for Inactive)
REMARK    1  A    between atoms: C_3  and  N_18
REMARK    2  A    between atoms: C_7  and  C_31
REMARK    3  A    between atoms: C_9  and  C_13
REMARK    4  A    between atoms: C_19  and  C_21
REMARK    5  A    between atoms: C_24  and  O_28
REMARK    6  A    between atoms: C_31  and  O_32
REMARK                            x       y       z     vdW  Elec       q    Type
REMARK                         _______ _______ _______ _____ _____    ______ ____
ROOT
ATOM      1  C   UNL     1      35.151 -23.885 -14.503  0.00  0.00    +0.014 C 
ATOM      2  C   UNL     1      34.703 -24.585 -13.358  0.00  0.00    +0.001 C 
ATOM      3  C   UNL     1      34.226 -23.154 -15.267  0.00  0.00    +0.051 C 
ATOM      4  C   UNL     1      36.510 -23.937 -14.852  0.00  0.00    +0.004 C 
ATOM      5  C   UNL     1      33.344 -24.534 -13.009  0.00  0.00    +0.007 C 
ATOM      6  C   UNL     1      32.879 -23.113 -14.904  0.00  0.00    +0.021 C 
ATOM      7  C   UNL     1      32.439 -23.802 -13.778  0.00  0.00    +0.077 C 
ATOM      8  C   UNL     1      35.628 -25.317 -12.595  0.00  0.00    +0.000 C 
ATOM      9  C   UNL     1      37.415 -24.668 -14.083  0.00  0.00    +0.031 C 
ATOM     10  C   UNL     1      36.975 -25.357 -12.956  0.00  0.00    +0.003 C 
ENDROOT
BRANCH   9  13
ATOM     11  N   UNL     1      39.721 -25.544 -13.797  0.00  0.00    -0.343 N 
ATOM     12  N   UNL     1      39.263 -23.945 -15.439  0.00  0.00    -0.285 NA
ATOM     13  C   UNL     1      38.820 -24.711 -14.457  0.00  0.00    +0.117 C 
ATOM     14  H   UNL     1      40.668 -25.557 -14.067  0.00  0.00    +0.144 HD
ATOM     15  H   UNL     1      39.411 -26.120 -13.061  0.00  0.00    +0.144 HD
ATOM     16  H   UNL     1      40.213 -23.972 -15.694  0.00  0.00    +0.188 HD
ENDBRANCH   9  13
BRANCH   3  18
ATOM     17  O   UNL     1      33.645 -23.678 -18.160  0.00  0.00    -0.270 OA
ATOM     18  N   UNL     1      34.610 -22.443 -16.410  0.00  0.00    -0.280 N 
ATOM     19  C   UNL     1      34.309 -22.735 -17.743  0.00  0.00    +0.249 C 
ATOM     20  H   UNL     1      35.159 -21.641 -16.256  0.00  0.00    +0.155 HD
BRANCH  19  21
ATOM     21  C   UNL     1      34.890 -21.802 -18.743  0.00  0.00    +0.053 C 
ATOM     22  C   UNL     1      34.066 -21.089 -19.589  0.00  0.00    +0.016 C 
ATOM     23  C   UNL     1      36.265 -21.681 -18.785  0.00  0.00    +0.004 C 
ATOM     24  C   UNL     1      34.639 -20.220 -20.517  0.00  0.00    +0.130 C 
ATOM     25  C   UNL     1      32.577 -21.231 -19.530  0.00  0.00    +0.034 C 
ATOM     26  C   UNL     1      36.838 -20.812 -19.713  0.00  0.00    +0.003 C 
ATOM     27  C   UNL     1      36.025 -20.081 -20.578  0.00  0.00    +0.036 C 
BRANCH  24  28
ATOM     28  O   UNL     1      33.861 -19.496 -21.371  0.00  0.00    -0.506 OA
ATOM     29  H   UNL     1      33.206 -18.918 -21.032  0.00  0.00    +0.292 HD
ENDBRANCH  24  28
ENDBRANCH  19  21
ENDBRANCH   3  18
BRANCH   7  31
ATOM     30  O   UNL     1      30.547 -24.366 -12.440  0.00  0.00    -0.245 OA
ATOM     31  C   UNL     1      31.034 -23.759 -13.403  0.00  0.00    +0.341 C 
BRANCH  31  32
ATOM     32  O   UNL     1      30.312 -22.961 -14.249  0.00  0.00    -0.441 OA
ATOM     33  C   UNL     1      29.233 -23.580 -14.958  0.00  0.00    +0.256 C 
ENDBRANCH  31  32
ENDBRANCH   7  31
TORSDOF 6
ENDMDL
MODEL 8
REMARK VINA RESULT:     -10.2      1.532      2.336
REMARK  Name = 6852141
REMARK  6 active torsions:
REMARK  status: ('A' for Active; 'I' for Inactive)
REMARK    1  A    between atoms: C_3  and  N_18
REMARK    2  A    between atoms: C_7  and  C_31
REMARK    3  A    between atoms: C_9  and  C_13
REMARK    4  A    between atoms: C_19  and  C_21
REMARK    5  A    between atoms: C_24  and  O_28
REMARK    6  A    between atoms: C_31  and  O_32
REMARK                            x       y       z     vdW  Elec       q    Type
REMARK                         _______ _______ _______ _____ _____    ______ ____
ROOT
ATOM      1  C   UNL     1      34.231 -23.376 -15.080  0.00  0.00    +0.014 C 
ATOM      2  C   UNL     1      34.257 -24.193 -13.925  0.00  0.00    +0.001 C 
ATOM      3  C   UNL     1      35.443 -23.020 -15.696  0.00  0.00    +0.051 C 
ATOM      4  C   UNL     1      32.997 -22.940 -15.586  0.00  0.00    +0.004 C 
ATOM      5  C   UNL     1      35.492 -24.631 -13.419  0.00  0.00    +0.007 C 
ATOM      6  C   UNL     1      36.661 -23.464 -15.180  0.00  0.00    +0.021 C 
ATOM      7  C   UNL     1      36.685 -24.267 -14.044  0.00  0.00    +0.077 C 
ATOM      8  C   UNL     1      33.046 -24.549 -13.309  0.00  0.00    +0.000 C 
ATOM      9  C   UNL     1      31.803 -23.303 -14.961  0.00  0.00    +0.031 C 
ATOM     10  C   UNL     1      31.828 -24.107 -13.825  0.00  0.00    +0.003 C 
ENDROOT
BRANCH   9  13
ATOM     11  N   UNL     1      29.384 -22.803 -14.710  0.00  0.00    -0.343 N 
ATOM     12  N   UNL     1      30.452 -22.455 -16.759  0.00  0.00    -0.285 NA
ATOM     13  C   UNL     1      30.533 -22.843 -15.498  0.00  0.00    +0.117 C 
ATOM     14  H   UNL     1      28.534 -22.488 -15.093  0.00  0.00    +0.144 HD
ATOM     15  H   UNL     1      29.423 -23.091 -13.768  0.00  0.00    +0.144 HD
ATOM     16  H   UNL     1      29.593 -22.143 -17.124  0.00  0.00    +0.188 HD
ENDBRANCH   9  13
BRANCH   3  18
ATOM     17  O   UNL     1      34.310 -23.484 -18.432  0.00  0.00    -0.270 OA
ATOM     18  N   UNL     1      35.480 -22.213 -16.840  0.00  0.00    -0.280 N 
ATOM     19  C   UNL     1      34.932 -22.482 -18.097  0.00  0.00    +0.249 C 
ATOM     20  H   UNL     1      35.950 -21.353 -16.747  0.00  0.00    +0.155 HD
BRANCH  19  21
ATOM     21  C   UNL     1      35.165 -21.435 -19.126  0.00  0.00    +0.053 C 
ATOM     22  C   UNL     1      34.104 -20.910 -19.835  0.00  0.00    +0.016 C 
ATOM     23  C   UNL     1      36.465 -21.020 -19.336  0.00  0.00    +0.004 C 
ATOM     24  C   UNL     1      34.353 -19.929 -20.795  0.00  0.00    +0.130 C 
ATOM     25  C   UNL     1      32.701 -21.371 -19.595  0.00  0.00    +0.034 C 
ATOM     26  C   UNL     1      36.714 -20.038 -20.295  0.00  0.00    +0.003 C 
ATOM     27  C   UNL     1      35.658 -19.493 -21.024  0.00  0.00    +0.036 C 
BRANCH  24  28
ATOM     28  O   UNL     1      33.334 -19.382 -21.517  0.00  0.00    -0.506 OA
ATOM     29  H   UNL     1      33.450 -18.552 -21.936  0.00  0.00    +0.292 HD
ENDBRANCH  24  28
ENDBRANCH  19  21
ENDBRANCH   3  18
BRANCH   7  31
ATOM     30  O   UNL     1      38.489 -24.279 -12.484  0.00  0.00    -0.245 OA
ATOM     31  C   UNL     1      37.957 -24.728 -13.507  0.00  0.00    +0.341 C 
BRANCH  31  32
ATOM     32  O   UNL     1      38.495 -25.724 -14.276  0.00  0.00    -0.441 OA
ATOM     33  C   UNL     1      39.905 -25.665 -14.516  0.00  0.00    +0.256 C 
ENDBRANCH  31  32
ENDBRANCH   7  31
TORSDOF 6
ENDMDL
MODEL 9
REMARK VINA RESULT:     -10.0      2.815      6.158
REMARK  Name = 6852141
REMARK  6 active torsions:
REMARK  status: ('A' for Active; 'I' for Inactive)
REMARK    1  A    between atoms: C_3  and  N_18
REMARK    2  A    between atoms: C_7  and  C_31
REMARK    3  A    between atoms: C_9  and  C_13
REMARK    4  A    between atoms: C_19  and  C_21
REMARK    5  A    between atoms: C_24  and  O_28
REMARK    6  A    between atoms: C_31  and  O_32
REMARK                            x       y       z     vdW  Elec       q    Type
REMARK                         _______ _______ _______ _____ _____    ______ ____
ROOT
ATOM      1  C   UNL     1      35.206 -23.026 -16.154  0.00  0.00    +0.014 C 
ATOM      2  C   UNL     1      36.585 -22.708 -16.131  0.00  0.00    +0.001 C 
ATOM      3  C   UNL     1      34.655 -23.771 -15.098  0.00  0.00    +0.051 C 
ATOM      4  C   UNL     1      34.419 -22.591 -17.232  0.00  0.00    +0.004 C 
ATOM      5  C   UNL     1      37.373 -23.143 -15.053  0.00  0.00    +0.007 C 
ATOM      6  C   UNL     1      35.453 -24.195 -14.034  0.00  0.00    +0.021 C 
ATOM      7  C   UNL     1      36.809 -23.882 -14.012  0.00  0.00    +0.077 C 
ATOM      8  C   UNL     1      37.136 -21.964 -17.187  0.00  0.00    +0.000 C 
ATOM      9  C   UNL     1      34.983 -21.853 -18.273  0.00  0.00    +0.031 C 
ATOM     10  C   UNL     1      36.338 -21.539 -18.250  0.00  0.00    +0.003 C 
ENDROOT
BRANCH   9  13
ATOM     11  N   UNL     1      34.628 -20.496 -20.322  0.00  0.00    -0.343 N 
ATOM     12  N   UNL     1      32.921 -21.870 -19.508  0.00  0.00    -0.285 NA
ATOM     13  C   UNL     1      34.153 -21.409 -19.381  0.00  0.00    +0.117 C 
ATOM     14  H   UNL     1      34.049 -20.209 -21.065  0.00  0.00    +0.144 HD
ATOM     15  H   UNL     1      35.542 -20.139 -20.243  0.00  0.00    +0.144 HD
ATOM     16  H   UNL     1      32.358 -21.570 -20.257  0.00  0.00    +0.188 HD
ENDBRANCH   9  13
BRANCH   3  18
ATOM     17  O   UNL     1      32.339 -22.411 -13.769  0.00  0.00    -0.270 OA
ATOM     18  N   UNL     1      33.299 -24.117 -15.067  0.00  0.00    -0.280 N 
ATOM     19  C   UNL     1      32.256 -23.442 -14.427  0.00  0.00    +0.249 C 
ATOM     20  H   UNL     1      33.050 -24.935 -15.555  0.00  0.00    +0.155 HD
BRANCH  19  21
ATOM     21  C   UNL     1      30.919 -24.078 -14.553  0.00  0.00    +0.053 C 
ATOM     22  C   UNL     1      30.043 -23.666 -15.537  0.00  0.00    +0.016 C 
ATOM     23  C   UNL     1      30.598 -25.080 -13.659  0.00  0.00    +0.004 C 
ATOM     24  C   UNL     1      28.795 -24.281 -15.632  0.00  0.00    +0.130 C 
ATOM     25  C   UNL     1      30.407 -22.578 -16.498  0.00  0.00    +0.034 C 
ATOM     26  C   UNL     1      29.350 -25.696 -13.754  0.00  0.00    +0.003 C 
ATOM     27  C   UNL     1      28.449 -25.296 -14.740  0.00  0.00    +0.036 C 
BRANCH  24  28
ATOM     28  O   UNL     1      27.901 -23.905 -16.590  0.00  0.00    -0.506 OA
ATOM     29  H   UNL     1      28.085 -24.072 -17.493  0.00  0.00    +0.292 HD
ENDBRANCH  24  28
ENDBRANCH  19  21
ENDBRANCH   3  18
BRANCH   7  31
ATOM     30  O   UNL     1      37.970 -25.502 -12.701  0.00  0.00    -0.245 OA
ATOM     31  C   UNL     1      37.639 -24.325 -12.902  0.00  0.00    +0.341 C 
BRANCH  31  32
ATOM     32  O   UNL     1      38.011 -23.279 -12.103  0.00  0.00    -0.441 OA
ATOM     33  C   UNL     1      37.071 -22.859 -11.107  0.00  0.00    +0.256 C 
ENDBRANCH  31  32
ENDBRANCH   7  31
TORSDOF 6
ENDMDL
