MODEL 1
REMARK VINA RESULT:     -11.4      0.000      0.000
REMARK  Name = 10250490
REMARK  6 active torsions:
REMARK  status: ('A' for Active; 'I' for Inactive)
REMARK    1  A    between atoms: N_2  and  C_18
REMARK    2  A    between atoms: C_3  and  C_6
REMARK    3  A    between atoms: C_5  and  N_12
REMARK    4  A    between atoms: C_18  and  C_19
REMARK    5  A    between atoms: C_19  and  N_21
REMARK    6  A    between atoms: C_22  and  C_26
REMARK                            x       y       z     vdW  Elec       q    Type
REMARK                         _______ _______ _______ _____ _____    ______ ____
ROOT
ATOM      1  O   UNL     1      34.446 -23.404 -17.346  0.00  0.00    -0.270 OA
ATOM      2  N   UNL     1      32.228 -22.740 -17.231  0.00  0.00    -0.299 N 
ATOM      3  C   UNL     1      33.520 -22.690 -17.766  0.00  0.00    +0.246 C 
ATOM      4  H   UNL     1      31.541 -22.146 -17.612  0.00  0.00    +0.150 HD
ENDROOT
BRANCH   3   6
ATOM      5  C   UNL     1      34.196 -19.904 -20.897  0.00  0.00    +0.058 C 
ATOM      6  C   UNL     1      33.752 -21.736 -18.840  0.00  0.00    +0.053 C 
ATOM      7  C   UNL     1      35.276 -20.536 -20.279  0.00  0.00    +0.015 C 
ATOM      8  C   UNL     1      32.894 -20.190 -20.486  0.00  0.00    +0.015 C 
ATOM      9  C   UNL     1      35.054 -21.451 -19.251  0.00  0.00    +0.006 C 
ATOM     10  C   UNL     1      32.672 -21.105 -19.457  0.00  0.00    +0.006 C 
BRANCH   5  12
ATOM     11  O   UNL     1      35.285 -17.246 -20.560  0.00  0.00    -0.269 OA
ATOM     12  N   UNL     1      34.428 -18.952 -21.965  0.00  0.00    -0.233 N 
ATOM     13  C   UNL     1      35.007 -17.689 -21.674  0.00  0.00    +0.257 C 
ATOM     14  C   UNL     1      34.065 -19.258 -23.278  0.00  0.00    +0.072 C 
ATOM     15  C   UNL     1      35.256 -16.786 -22.840  0.00  0.00    +0.059 C 
ATOM     16  C   UNL     1      34.267 -18.419 -24.301  0.00  0.00    +0.017 C 
ATOM     17  C   UNL     1      34.887 -17.148 -24.071  0.00  0.00    +0.006 C 
ENDBRANCH   5  12
ENDBRANCH   3   6
BRANCH   2  18
ATOM     18  C   UNL     1      31.846 -23.617 -16.147  0.00  0.00    +0.111 C 
BRANCH  18  19
ATOM     19  C   UNL     1      32.019 -22.959 -14.788  0.00  0.00    +0.111 C 
BRANCH  19  21
ATOM     20  O   UNL     1      32.576 -24.885 -12.733  0.00  0.00    -0.270 OA
ATOM     21  N   UNL     1      33.303 -23.249 -14.208  0.00  0.00    -0.299 N 
ATOM     22  C   UNL     1      33.478 -24.203 -13.213  0.00  0.00    +0.252 C 
ATOM     23  H   UNL     1      34.090 -22.751 -14.530  0.00  0.00    +0.150 HD
BRANCH  22  26
ATOM     24 CL   UNL     1      38.820 -25.352 -12.857  0.00  0.00    -0.075 Cl
ATOM     25  S   UNL     1      36.017 -24.981 -13.762  0.00  0.00    -0.071 S 
ATOM     26  C   UNL     1      34.863 -24.366 -12.701  0.00  0.00    +0.084 C 
ATOM     27  C   UNL     1      35.304 -24.074 -11.467  0.00  0.00    +0.012 C 
ATOM     28  C   UNL     1      36.694 -24.370 -11.361  0.00  0.00    +0.019 C 
ATOM     29  C   UNL     1      37.208 -24.869 -12.537  0.00  0.00    +0.087 C 
ENDBRANCH  22  26
ENDBRANCH  19  21
ENDBRANCH  18  19
ENDBRANCH   2  18
TORSDOF 6
ENDMDL
MODEL 2
REMARK VINA RESULT:     -11.4      2.966      4.021
REMARK  Name = 10250490
REMARK  6 active torsions:
REMARK  status: ('A' for Active; 'I' for Inactive)
REMARK    1  A    between atoms: N_2  and  C_18
REMARK    2  A    between atoms: C_3  and  C_6
REMARK    3  A    between atoms: C_5  and  N_12
REMARK    4  A    between atoms: C_18  and  C_19
REMARK    5  A    between atoms: C_19  and  N_21
REMARK    6  A    between atoms: C_22  and  C_26
REMARK                            x       y       z     vdW  Elec       q    Type
REMARK                         _______ _______ _______ _____ _____    ______ ____
ROOT
ATOM      1  O   UNL     1      33.782 -23.783 -17.609  0.00  0.00    -0.270 OA
ATOM      2  N   UNL     1      35.503 -22.634 -16.566  0.00  0.00    -0.299 N 
ATOM      3  C   UNL     1      34.574 -22.825 -17.594  0.00  0.00    +0.246 C 
ATOM      4  H   UNL     1      36.101 -21.853 -16.616  0.00  0.00    +0.150 HD
ENDROOT
BRANCH   3   6
ATOM      5  C   UNL     1      34.601 -20.002 -20.764  0.00  0.00    +0.058 C 
ATOM      6  C   UNL     1      34.582 -21.857 -18.680  0.00  0.00    +0.053 C 
ATOM      7  C   UNL     1      33.389 -20.465 -20.251  0.00  0.00    +0.015 C 
ATOM      8  C   UNL     1      35.805 -20.467 -20.233  0.00  0.00    +0.015 C 
ATOM      9  C   UNL     1      33.380 -21.392 -19.209  0.00  0.00    +0.006 C 
ATOM     10  C   UNL     1      35.795 -21.395 -19.191  0.00  0.00    +0.006 C 
BRANCH   5  12
ATOM     11  O   UNL     1      35.319 -17.211 -20.514  0.00  0.00    -0.269 OA
ATOM     12  N   UNL     1      34.610 -19.039 -21.847  0.00  0.00    -0.233 N 
ATOM     13  C   UNL     1      35.022 -17.703 -21.603  0.00  0.00    +0.257 C 
ATOM     14  C   UNL     1      34.194 -19.410 -23.128  0.00  0.00    +0.072 C 
ATOM     15  C   UNL     1      35.047 -16.787 -22.786  0.00  0.00    +0.059 C 
ATOM     16  C   UNL     1      34.194 -18.563 -24.163  0.00  0.00    +0.017 C 
ATOM     17  C   UNL     1      34.641 -17.214 -23.984  0.00  0.00    +0.006 C 
ENDBRANCH   5  12
ENDBRANCH   3   6
BRANCH   2  18
ATOM     18  C   UNL     1      35.633 -23.521 -15.432  0.00  0.00    +0.111 C 
BRANCH  18  19
ATOM     19  C   UNL     1      34.699 -23.141 -14.295  0.00  0.00    +0.111 C 
BRANCH  19  21
ATOM     20  O   UNL     1      32.782 -24.631 -12.763  0.00  0.00    -0.270 OA
ATOM     21  N   UNL     1      33.319 -23.368 -14.633  0.00  0.00    -0.299 N 
ATOM     22  C   UNL     1      32.462 -24.106 -13.826  0.00  0.00    +0.252 C 
ATOM     23  H   UNL     1      32.970 -22.985 -15.470  0.00  0.00    +0.150 HD
BRANCH  22  26
ATOM     24 CL   UNL     1      27.819 -23.484 -16.663  0.00  0.00    -0.075 Cl
ATOM     25  S   UNL     1      30.571 -23.253 -15.572  0.00  0.00    -0.071 S 
ATOM     26  C   UNL     1      31.073 -24.271 -14.329  0.00  0.00    +0.084 C 
ATOM     27  C   UNL     1      30.161 -25.154 -13.895  0.00  0.00    +0.012 C 
ATOM     28  C   UNL     1      28.946 -25.002 -14.625  0.00  0.00    +0.019 C 
ATOM     29  C   UNL     1      29.032 -24.003 -15.569  0.00  0.00    +0.087 C 
ENDBRANCH  22  26
ENDBRANCH  19  21
ENDBRANCH  18  19
ENDBRANCH   2  18
TORSDOF 6
ENDMDL
MODEL 3
REMARK VINA RESULT:     -10.7      7.379     12.552
REMARK  Name = 10250490
REMARK  6 active torsions:
REMARK  status: ('A' for Active; 'I' for Inactive)
REMARK    1  A    between atoms: N_2  and  C_18
REMARK    2  A    between atoms: C_3  and  C_6
REMARK    3  A    between atoms: C_5  and  N_12
REMARK    4  A    between atoms: C_18  and  C_19
REMARK    5  A    between atoms: C_19  and  N_21
REMARK    6  A    between atoms: C_22  and  C_26
REMARK                            x       y       z     vdW  Elec       q    Type
REMARK                         _______ _______ _______ _____ _____    ______ ____
ROOT
ATOM      1  O   UNL     1      34.850 -16.158 -25.514  0.00  0.00    -0.270 OA
ATOM      2  N   UNL     1      33.590 -14.901 -24.029  0.00  0.00    -0.299 N 
ATOM      3  C   UNL     1      34.338 -16.027 -24.389  0.00  0.00    +0.246 C 
ATOM      4  H   UNL     1      33.213 -14.862 -23.120  0.00  0.00    +0.150 HD
ENDROOT
BRANCH   3   6
ATOM      5  C   UNL     1      34.754 -19.081 -21.469  0.00  0.00    +0.058 C 
ATOM      6  C   UNL     1      34.480 -17.073 -23.388  0.00  0.00    +0.053 C 
ATOM      7  C   UNL     1      35.066 -17.759 -21.147  0.00  0.00    +0.015 C 
ATOM      8  C   UNL     1      34.304 -19.397 -22.752  0.00  0.00    +0.015 C 
ATOM      9  C   UNL     1      34.929 -16.756 -22.106  0.00  0.00    +0.006 C 
ATOM     10  C   UNL     1      34.168 -18.394 -23.711  0.00  0.00    +0.006 C 
BRANCH   5  12
ATOM     11  O   UNL     1      32.572 -20.503 -20.211  0.00  0.00    -0.269 OA
ATOM     12  N   UNL     1      34.898 -20.123 -20.472  0.00  0.00    -0.233 N 
ATOM     13  C   UNL     1      33.746 -20.775 -19.959  0.00  0.00    +0.257 C 
ATOM     14  C   UNL     1      36.161 -20.477 -19.995  0.00  0.00    +0.072 C 
ATOM     15  C   UNL     1      33.987 -21.871 -18.970  0.00  0.00    +0.059 C 
ATOM     16  C   UNL     1      36.348 -21.439 -19.084  0.00  0.00    +0.017 C 
ATOM     17  C   UNL     1      35.225 -22.160 -18.563  0.00  0.00    +0.006 C 
ENDBRANCH   5  12
ENDBRANCH   3   6
BRANCH   2  18
ATOM     18  C   UNL     1      33.340 -13.790 -24.919  0.00  0.00    +0.111 C 
BRANCH  18  19
ATOM     19  C   UNL     1      34.238 -12.602 -24.621  0.00  0.00    +0.111 C 
BRANCH  19  21
ATOM     20  O   UNL     1      35.088  -9.885 -24.249  0.00  0.00    -0.270 OA
ATOM     21  N   UNL     1      33.552 -11.582 -23.873  0.00  0.00    -0.299 N 
ATOM     22  C   UNL     1      34.042 -10.288 -23.747  0.00  0.00    +0.252 C 
ATOM     23  H   UNL     1      32.702 -11.812 -23.433  0.00  0.00    +0.150 HD
BRANCH  22  26
ATOM     24 CL   UNL     1      32.159  -5.790 -21.255  0.00  0.00    -0.075 Cl
ATOM     25  S   UNL     1      33.703  -7.744 -22.873  0.00  0.00    -0.071 S 
ATOM     26  C   UNL     1      33.229  -9.360 -22.919  0.00  0.00    +0.084 C 
ATOM     27  C   UNL     1      32.144  -9.670 -22.193  0.00  0.00    +0.012 C 
ATOM     28  C   UNL     1      31.644  -8.507 -21.539  0.00  0.00    +0.019 C 
ATOM     29  C   UNL     1      32.398  -7.389 -21.822  0.00  0.00    +0.087 C 
ENDBRANCH  22  26
ENDBRANCH  19  21
ENDBRANCH  18  19
ENDBRANCH   2  18
TORSDOF 6
ENDMDL
MODEL 4
REMARK VINA RESULT:     -10.7      2.969      3.962
REMARK  Name = 10250490
REMARK  6 active torsions:
REMARK  status: ('A' for Active; 'I' for Inactive)
REMARK    1  A    between atoms: N_2  and  C_18
REMARK    2  A    between atoms: C_3  and  C_6
REMARK    3  A    between atoms: C_5  and  N_12
REMARK    4  A    between atoms: C_18  and  C_19
REMARK    5  A    between atoms: C_19  and  N_21
REMARK    6  A    between atoms: C_22  and  C_26
REMARK                            x       y       z     vdW  Elec       q    Type
REMARK                         _______ _______ _______ _____ _____    ______ ____
ROOT
ATOM      1  O   UNL     1      35.128 -22.751 -18.680  0.00  0.00    -0.270 OA
ATOM      2  N   UNL     1      36.843 -21.442 -17.830  0.00  0.00    -0.299 N 
ATOM      3  C   UNL     1      35.798 -21.704 -18.723  0.00  0.00    +0.246 C 
ATOM      4  H   UNL     1      37.332 -20.592 -17.921  0.00  0.00    +0.150 HD
ENDROOT
BRANCH   3   6
ATOM      5  C   UNL     1      35.016 -18.770 -21.690  0.00  0.00    +0.058 C 
ATOM      6  C   UNL     1      35.531 -20.699 -19.740  0.00  0.00    +0.053 C 
ATOM      7  C   UNL     1      36.316 -18.959 -21.219  0.00  0.00    +0.015 C 
ATOM      8  C   UNL     1      33.974 -19.548 -21.185  0.00  0.00    +0.015 C 
ATOM      9  C   UNL     1      36.573 -19.924 -20.245  0.00  0.00    +0.006 C 
ATOM     10  C   UNL     1      34.231 -20.512 -20.210  0.00  0.00    +0.006 C 
BRANCH   5  12
ATOM     11  O   UNL     1      34.124 -19.312 -24.387  0.00  0.00    -0.269 OA
ATOM     12  N   UNL     1      34.750 -17.767 -22.702  0.00  0.00    -0.233 N 
ATOM     13  C   UNL     1      34.276 -18.160 -23.980  0.00  0.00    +0.257 C 
ATOM     14  C   UNL     1      34.977 -16.415 -22.436  0.00  0.00    +0.072 C 
ATOM     15  C   UNL     1      33.981 -17.059 -24.948  0.00  0.00    +0.059 C 
ATOM     16  C   UNL     1      34.737 -15.450 -23.331  0.00  0.00    +0.017 C 
ATOM     17  C   UNL     1      34.217 -15.786 -24.622  0.00  0.00    +0.006 C 
ENDBRANCH   5  12
ENDBRANCH   3   6
BRANCH   2  18
ATOM     18  C   UNL     1      37.244 -22.352 -16.781  0.00  0.00    +0.111 C 
BRANCH  18  19
ATOM     19  C   UNL     1      36.653 -21.970 -15.434  0.00  0.00    +0.111 C 
BRANCH  19  21
ATOM     20  O   UNL     1      35.461 -24.573 -15.224  0.00  0.00    -0.270 OA
ATOM     21  N   UNL     1      35.248 -22.267 -15.358  0.00  0.00    -0.299 N 
ATOM     22  C   UNL     1      34.761 -23.564 -15.258  0.00  0.00    +0.252 C 
ATOM     23  H   UNL     1      34.606 -21.520 -15.378  0.00  0.00    +0.150 HD
BRANCH  22  26
ATOM     24 CL   UNL     1      29.675 -24.860 -13.696  0.00  0.00    -0.075 Cl
ATOM     25  S   UNL     1      32.617 -24.514 -13.896  0.00  0.00    -0.071 S 
ATOM     26  C   UNL     1      33.282 -23.705 -15.215  0.00  0.00    +0.084 C 
ATOM     27  C   UNL     1      32.405 -23.254 -16.125  0.00  0.00    +0.012 C 
ATOM     28  C   UNL     1      31.076 -23.586 -15.730  0.00  0.00    +0.019 C 
ATOM     29  C   UNL     1      31.047 -24.272 -14.536  0.00  0.00    +0.087 C 
ENDBRANCH  22  26
ENDBRANCH  19  21
ENDBRANCH  18  19
ENDBRANCH   2  18
TORSDOF 6
ENDMDL
MODEL 5
REMARK VINA RESULT:     -10.6      6.262     10.877
REMARK  Name = 10250490
REMARK  6 active torsions:
REMARK  status: ('A' for Active; 'I' for Inactive)
REMARK    1  A    between atoms: N_2  and  C_18
REMARK    2  A    between atoms: C_3  and  C_6
REMARK    3  A    between atoms: C_5  and  N_12
REMARK    4  A    between atoms: C_18  and  C_19
REMARK    5  A    between atoms: C_19  and  N_21
REMARK    6  A    between atoms: C_22  and  C_26
REMARK                            x       y       z     vdW  Elec       q    Type
REMARK                         _______ _______ _______ _____ _____    ______ ____
ROOT
ATOM      1  O   UNL     1      35.361 -16.329 -25.509  0.00  0.00    -0.270 OA
ATOM      2  N   UNL     1      33.112 -16.039 -25.026  0.00  0.00    -0.299 N 
ATOM      3  C   UNL     1      34.375 -16.597 -24.800  0.00  0.00    +0.246 C 
ATOM      4  H   UNL     1      32.375 -16.294 -24.425  0.00  0.00    +0.150 HD
ENDROOT
BRANCH   3   6
ATOM      5  C   UNL     1      34.719 -19.343 -21.582  0.00  0.00    +0.058 C 
ATOM      6  C   UNL     1      34.493 -17.538 -23.698  0.00  0.00    +0.053 C 
ATOM      7  C   UNL     1      34.227 -19.771 -22.815  0.00  0.00    +0.015 C 
ATOM      8  C   UNL     1      35.099 -18.012 -21.407  0.00  0.00    +0.015 C 
ATOM      9  C   UNL     1      34.114 -18.869 -23.873  0.00  0.00    +0.006 C 
ATOM     10  C   UNL     1      34.986 -17.110 -22.465  0.00  0.00    +0.006 C 
BRANCH   5  12
ATOM     11  O   UNL     1      32.500 -20.567 -20.188  0.00  0.00    -0.269 OA
ATOM     12  N   UNL     1      34.834 -20.281 -20.482  0.00  0.00    -0.233 N 
ATOM     13  C   UNL     1      33.665 -20.844 -19.907  0.00  0.00    +0.257 C 
ATOM     14  C   UNL     1      36.088 -20.619 -19.969  0.00  0.00    +0.072 C 
ATOM     15  C   UNL     1      33.876 -21.839 -18.810  0.00  0.00    +0.059 C 
ATOM     16  C   UNL     1      36.249 -21.487 -18.963  0.00  0.00    +0.017 C 
ATOM     17  C   UNL     1      35.107 -22.119 -18.373  0.00  0.00    +0.006 C 
ENDBRANCH   5  12
ENDBRANCH   3   6
BRANCH   2  18
ATOM     18  C   UNL     1      32.830 -15.107 -26.094  0.00  0.00    +0.111 C 
BRANCH  18  19
ATOM     19  C   UNL     1      33.228 -13.685 -25.736  0.00  0.00    +0.111 C 
BRANCH  19  21
ATOM     20  O   UNL     1      34.677 -13.685 -23.258  0.00  0.00    -0.270 OA
ATOM     21  N   UNL     1      32.725 -13.292 -24.447  0.00  0.00    -0.299 N 
ATOM     22  C   UNL     1      33.503 -13.325 -23.297  0.00  0.00    +0.252 C 
ATOM     23  H   UNL     1      31.791 -12.988 -24.379  0.00  0.00    +0.150 HD
BRANCH  22  26
ATOM     24 CL   UNL     1      30.931 -10.372 -19.469  0.00  0.00    -0.075 Cl
ATOM     25  S   UNL     1      32.296 -11.319 -21.931  0.00  0.00    -0.071 S 
ATOM     26  C   UNL     1      32.828 -12.913 -22.039  0.00  0.00    +0.084 C 
ATOM     27  C   UNL     1      32.591 -13.680 -20.964  0.00  0.00    +0.012 C 
ATOM     28  C   UNL     1      31.922 -12.922 -19.959  0.00  0.00    +0.019 C 
ATOM     29  C   UNL     1      31.699 -11.622 -20.354  0.00  0.00    +0.087 C 
ENDBRANCH  22  26
ENDBRANCH  19  21
ENDBRANCH  18  19
ENDBRANCH   2  18
TORSDOF 6
ENDMDL
MODEL 6
REMARK VINA RESULT:     -10.5      6.946     10.905
REMARK  Name = 10250490
REMARK  6 active torsions:
REMARK  status: ('A' for Active; 'I' for Inactive)
REMARK    1  A    between atoms: N_2  and  C_18
REMARK    2  A    between atoms: C_3  and  C_6
REMARK    3  A    between atoms: C_5  and  N_12
REMARK    4  A    between atoms: C_18  and  C_19
REMARK    5  A    between atoms: C_19  and  N_21
REMARK    6  A    between atoms: C_22  and  C_26
REMARK                            x       y       z     vdW  Elec       q    Type
REMARK                         _______ _______ _______ _____ _____    ______ ____
ROOT
ATOM      1  O   UNL     1      33.673 -14.527 -21.966  0.00  0.00    -0.270 OA
ATOM      2  N   UNL     1      33.042 -14.265 -24.181  0.00  0.00    -0.299 N 
ATOM      3  C   UNL     1      33.232 -13.802 -22.874  0.00  0.00    +0.246 C 
ATOM      4  H   UNL     1      32.689 -13.637 -24.852  0.00  0.00    +0.150 HD
ENDROOT
BRANCH   3   6
ATOM      5  C   UNL     1      32.163  -9.771 -22.081  0.00  0.00    +0.058 C 
ATOM      6  C   UNL     1      32.866 -12.421 -22.603  0.00  0.00    +0.053 C 
ATOM      7  C   UNL     1      33.085 -10.064 -23.086  0.00  0.00    +0.015 C 
ATOM      8  C   UNL     1      31.592 -10.804 -21.338  0.00  0.00    +0.015 C 
ATOM      9  C   UNL     1      33.436 -11.389 -23.347  0.00  0.00    +0.006 C 
ATOM     10  C   UNL     1      31.943 -12.129 -21.598  0.00  0.00    +0.006 C 
BRANCH   5  12
ATOM     11  O   UNL     1      32.763  -8.333 -19.645  0.00  0.00    -0.269 OA
ATOM     12  N   UNL     1      31.800  -8.394 -21.810  0.00  0.00    -0.233 N 
ATOM     13  C   UNL     1      32.189  -7.788 -20.587  0.00  0.00    +0.257 C 
ATOM     14  C   UNL     1      31.049  -7.665 -22.734  0.00  0.00    +0.072 C 
ATOM     15  C   UNL     1      31.815  -6.351 -20.408  0.00  0.00    +0.059 C 
ATOM     16  C   UNL     1      30.697  -6.389 -22.536  0.00  0.00    +0.017 C 
ATOM     17  C   UNL     1      31.100  -5.713 -21.339  0.00  0.00    +0.006 C 
ENDBRANCH   5  12
ENDBRANCH   3   6
BRANCH   2  18
ATOM     18  C   UNL     1      33.336 -15.617 -24.600  0.00  0.00    +0.111 C 
BRANCH  18  19
ATOM     19  C   UNL     1      34.830 -15.875 -24.700  0.00  0.00    +0.111 C 
BRANCH  19  21
ATOM     20  O   UNL     1      34.126 -18.606 -24.167  0.00  0.00    -0.270 OA
ATOM     21  N   UNL     1      35.310 -16.689 -23.616  0.00  0.00    -0.299 N 
ATOM     22  C   UNL     1      34.912 -18.008 -23.437  0.00  0.00    +0.252 C 
ATOM     23  H   UNL     1      35.946 -16.295 -22.976  0.00  0.00    +0.150 HD
BRANCH  22  26
ATOM     24 CL   UNL     1      35.507 -21.278 -19.085  0.00  0.00    -0.075 Cl
ATOM     25  S   UNL     1      34.491 -19.818 -21.462  0.00  0.00    -0.071 S 
ATOM     26  C   UNL     1      35.478 -18.706 -22.254  0.00  0.00    +0.084 C 
ATOM     27  C   UNL     1      36.706 -18.547 -21.737  0.00  0.00    +0.012 C 
ATOM     28  C   UNL     1      36.874 -19.392 -20.602  0.00  0.00    +0.019 C 
ATOM     29  C   UNL     1      35.746 -20.138 -20.342  0.00  0.00    +0.087 C 
ENDBRANCH  22  26
ENDBRANCH  19  21
ENDBRANCH  18  19
ENDBRANCH   2  18
TORSDOF 6
ENDMDL
MODEL 7
REMARK VINA RESULT:     -10.5      4.768     10.836
REMARK  Name = 10250490
REMARK  6 active torsions:
REMARK  status: ('A' for Active; 'I' for Inactive)
REMARK    1  A    between atoms: N_2  and  C_18
REMARK    2  A    between atoms: C_3  and  C_6
REMARK    3  A    between atoms: C_5  and  N_12
REMARK    4  A    between atoms: C_18  and  C_19
REMARK    5  A    between atoms: C_19  and  N_21
REMARK    6  A    between atoms: C_22  and  C_26
REMARK                            x       y       z     vdW  Elec       q    Type
REMARK                         _______ _______ _______ _____ _____    ______ ____
ROOT
ATOM      1  O   UNL     1      32.722 -21.825 -19.514  0.00  0.00    -0.270 OA
ATOM      2  N   UNL     1      34.716 -20.679 -19.805  0.00  0.00    -0.299 N 
ATOM      3  C   UNL     1      33.878 -21.574 -19.131  0.00  0.00    +0.246 C 
ATOM      4  H   UNL     1      35.621 -20.527 -19.448  0.00  0.00    +0.150 HD
ENDROOT
BRANCH   3   6
ATOM      5  C   UNL     1      35.429 -23.389 -15.621  0.00  0.00    +0.058 C 
ATOM      6  C   UNL     1      34.409 -22.197 -17.929  0.00  0.00    +0.053 C 
ATOM      7  C   UNL     1      34.097 -23.593 -15.983  0.00  0.00    +0.015 C 
ATOM      8  C   UNL     1      36.251 -22.588 -16.415  0.00  0.00    +0.015 C 
ATOM      9  C   UNL     1      33.588 -22.998 -17.136  0.00  0.00    +0.006 C 
ATOM     10  C   UNL     1      35.741 -21.992 -17.568  0.00  0.00    +0.006 C 
BRANCH   5  12
ATOM     11  O   UNL     1      36.152 -26.176 -15.357  0.00  0.00    -0.269 OA
ATOM     12  N   UNL     1      35.958 -24.007 -14.421  0.00  0.00    -0.233 N 
ATOM     13  C   UNL     1      36.313 -25.381 -14.431  0.00  0.00    +0.257 C 
ATOM     14  C   UNL     1      36.100 -23.266 -13.246  0.00  0.00    +0.072 C 
ATOM     15  C   UNL     1      36.896 -25.927 -13.166  0.00  0.00    +0.059 C 
ATOM     16  C   UNL     1      36.593 -23.786 -12.116  0.00  0.00    +0.017 C 
ATOM     17  C   UNL     1      37.008 -25.157 -12.081  0.00  0.00    +0.006 C 
ENDBRANCH   5  12
ENDBRANCH   3   6
BRANCH   2  18
ATOM     18  C   UNL     1      34.325 -19.964 -20.999  0.00  0.00    +0.111 C 
BRANCH  18  19
ATOM     19  C   UNL     1      35.489 -19.214 -21.626  0.00  0.00    +0.111 C 
BRANCH  19  21
ATOM     20  O   UNL     1      34.308 -18.812 -24.211  0.00  0.00    -0.270 OA
ATOM     21  N   UNL     1      35.077 -17.959 -22.196  0.00  0.00    -0.299 N 
ATOM     22  C   UNL     1      34.512 -17.861 -23.461  0.00  0.00    +0.252 C 
ATOM     23  H   UNL     1      35.201 -17.138 -21.667  0.00  0.00    +0.150 HD
BRANCH  22  26
ATOM     24 CL   UNL     1      33.900 -12.423 -23.684  0.00  0.00    -0.075 Cl
ATOM     25  S   UNL     1      34.544 -15.211 -22.888  0.00  0.00    -0.071 S 
ATOM     26  C   UNL     1      34.164 -16.490 -23.916  0.00  0.00    +0.084 C 
ATOM     27  C   UNL     1      33.572 -16.152 -25.072  0.00  0.00    +0.012 C 
ATOM     28  C   UNL     1      33.406 -14.738 -25.142  0.00  0.00    +0.019 C 
ATOM     29  C   UNL     1      33.892 -14.104 -24.020  0.00  0.00    +0.087 C 
ENDBRANCH  22  26
ENDBRANCH  19  21
ENDBRANCH  18  19
ENDBRANCH   2  18
TORSDOF 6
ENDMDL
MODEL 8
REMARK VINA RESULT:     -10.5      7.514     12.681
REMARK  Name = 10250490
REMARK  6 active torsions:
REMARK  status: ('A' for Active; 'I' for Inactive)
REMARK    1  A    between atoms: N_2  and  C_18
REMARK    2  A    between atoms: C_3  and  C_6
REMARK    3  A    between atoms: C_5  and  N_12
REMARK    4  A    between atoms: C_18  and  C_19
REMARK    5  A    between atoms: C_19  and  N_21
REMARK    6  A    between atoms: C_22  and  C_26
REMARK                            x       y       z     vdW  Elec       q    Type
REMARK                         _______ _______ _______ _____ _____    ______ ____
ROOT
ATOM      1  O   UNL     1      34.486 -15.914 -25.826  0.00  0.00    -0.270 OA
ATOM      2  N   UNL     1      33.656 -14.505 -24.183  0.00  0.00    -0.299 N 
ATOM      3  C   UNL     1      34.205 -15.710 -24.632  0.00  0.00    +0.246 C 
ATOM      4  H   UNL     1      33.458 -14.410 -23.223  0.00  0.00    +0.150 HD
ENDROOT
BRANCH   3   6
ATOM      5  C   UNL     1      34.836 -18.741 -21.727  0.00  0.00    +0.058 C 
ATOM      6  C   UNL     1      34.421 -16.748 -23.636  0.00  0.00    +0.053 C 
ATOM      7  C   UNL     1      35.111 -17.409 -21.417  0.00  0.00    +0.015 C 
ATOM      8  C   UNL     1      34.352 -19.076 -22.992  0.00  0.00    +0.015 C 
ATOM      9  C   UNL     1      34.903 -16.413 -22.371  0.00  0.00    +0.006 C 
ATOM     10  C   UNL     1      34.145 -18.080 -23.946  0.00  0.00    +0.006 C 
BRANCH   5  12
ATOM     11  O   UNL     1      37.406 -19.506 -20.644  0.00  0.00    -0.269 OA
ATOM     12  N   UNL     1      35.053 -19.776 -20.735  0.00  0.00    -0.233 N 
ATOM     13  C   UNL     1      36.363 -20.029 -20.253  0.00  0.00    +0.257 C 
ATOM     14  C   UNL     1      33.984 -20.542 -20.265  0.00  0.00    +0.072 C 
ATOM     15  C   UNL     1      36.492 -21.081 -19.196  0.00  0.00    +0.059 C 
ATOM     16  C   UNL     1      34.130 -21.500 -19.344  0.00  0.00    +0.017 C 
ATOM     17  C   UNL     1      35.423 -21.770 -18.790  0.00  0.00    +0.006 C 
ENDBRANCH   5  12
ENDBRANCH   3   6
BRANCH   2  18
ATOM     18  C   UNL     1      33.361 -13.388 -25.053  0.00  0.00    +0.111 C 
BRANCH  18  19
ATOM     19  C   UNL     1      34.231 -12.179 -24.750  0.00  0.00    +0.111 C 
BRANCH  19  21
ATOM     20  O   UNL     1      35.261  -9.653 -23.859  0.00  0.00    -0.270 OA
ATOM     21  N   UNL     1      33.523 -11.182 -23.993  0.00  0.00    -0.299 N 
ATOM     22  C   UNL     1      34.106  -9.983 -23.604  0.00  0.00    +0.252 C 
ATOM     23  H   UNL     1      32.587 -11.358 -23.740  0.00  0.00    +0.150 HD
BRANCH  22  26
ATOM     24 CL   UNL     1      32.066  -5.522 -21.168  0.00  0.00    -0.075 Cl
ATOM     25  S   UNL     1      33.697  -7.447 -22.735  0.00  0.00    -0.071 S 
ATOM     26  C   UNL     1      33.250  -9.070 -22.803  0.00  0.00    +0.084 C 
ATOM     27  C   UNL     1      32.144  -9.399 -22.117  0.00  0.00    +0.012 C 
ATOM     28  C   UNL     1      31.603  -8.245 -21.477  0.00  0.00    +0.019 C 
ATOM     29  C   UNL     1      32.350  -7.116 -21.730  0.00  0.00    +0.087 C 
ENDBRANCH  22  26
ENDBRANCH  19  21
ENDBRANCH  18  19
ENDBRANCH   2  18
TORSDOF 6
ENDMDL
MODEL 9
REMARK VINA RESULT:     -10.4      5.397      9.246
REMARK  Name = 10250490
REMARK  6 active torsions:
REMARK  status: ('A' for Active; 'I' for Inactive)
REMARK    1  A    between atoms: N_2  and  C_18
REMARK    2  A    between atoms: C_3  and  C_6
REMARK    3  A    between atoms: C_5  and  N_12
REMARK    4  A    between atoms: C_18  and  C_19
REMARK    5  A    between atoms: C_19  and  N_21
REMARK    6  A    between atoms: C_22  and  C_26
REMARK                            x       y       z     vdW  Elec       q    Type
REMARK                         _______ _______ _______ _____ _____    ______ ____
ROOT
ATOM      1  O   UNL     1      33.137 -15.933 -25.994  0.00  0.00    -0.270 OA
ATOM      2  N   UNL     1      34.131 -16.511 -23.982  0.00  0.00    -0.299 N 
ATOM      3  C   UNL     1      33.614 -15.590 -24.899  0.00  0.00    +0.246 C 
ATOM      4  H   UNL     1      34.493 -16.171 -23.132  0.00  0.00    +0.150 HD
ENDROOT
BRANCH   3   6
ATOM      5  C   UNL     1      33.796 -11.488 -23.822  0.00  0.00    +0.058 C 
ATOM      6  C   UNL     1      33.677 -14.184 -24.529  0.00  0.00    +0.053 C 
ATOM      7  C   UNL     1      33.881 -12.473 -22.837  0.00  0.00    +0.015 C 
ATOM      8  C   UNL     1      33.652 -11.852 -25.161  0.00  0.00    +0.015 C 
ATOM      9  C   UNL     1      33.822 -13.821 -23.191  0.00  0.00    +0.006 C 
ATOM     10  C   UNL     1      33.592 -13.200 -25.514  0.00  0.00    +0.006 C 
BRANCH   5  12
ATOM     11  O   UNL     1      31.804 -10.081 -22.267  0.00  0.00    -0.269 OA
ATOM     12  N   UNL     1      33.857 -10.087 -23.453  0.00  0.00    -0.233 N 
ATOM     13  C   UNL     1      32.832  -9.522 -22.650  0.00  0.00    +0.257 C 
ATOM     14  C   UNL     1      34.905  -9.281 -23.901  0.00  0.00    +0.072 C 
ATOM     15  C   UNL     1      32.997  -8.083 -22.276  0.00  0.00    +0.059 C 
ATOM     16  C   UNL     1      35.013  -7.987 -23.581  0.00  0.00    +0.017 C 
ATOM     17  C   UNL     1      34.031  -7.375 -22.737  0.00  0.00    +0.006 C 
ENDBRANCH   5  12
ENDBRANCH   3   6
BRANCH   2  18
ATOM     18  C   UNL     1      34.161 -17.938 -24.213  0.00  0.00    +0.111 C 
BRANCH  18  19
ATOM     19  C   UNL     1      35.175 -18.642 -23.328  0.00  0.00    +0.111 C 
BRANCH  19  21
ATOM     20  O   UNL     1      36.196 -19.202 -20.704  0.00  0.00    -0.270 OA
ATOM     21  N   UNL     1      34.542 -19.440 -22.313  0.00  0.00    -0.299 N 
ATOM     22  C   UNL     1      35.114 -19.657 -21.065  0.00  0.00    +0.252 C 
ATOM     23  H   UNL     1      33.668 -19.849 -22.511  0.00  0.00    +0.150 HD
BRANCH  22  26
ATOM     24 CL   UNL     1      33.802 -23.366 -17.256  0.00  0.00    -0.075 Cl
ATOM     25  S   UNL     1      35.222 -21.577 -19.154  0.00  0.00    -0.071 S 
ATOM     26  C   UNL     1      34.346 -20.527 -20.137  0.00  0.00    +0.084 C 
ATOM     27  C   UNL     1      33.012 -20.570 -19.993  0.00  0.00    +0.012 C 
ATOM     28  C   UNL     1      32.657 -21.533 -19.004  0.00  0.00    +0.019 C 
ATOM     29  C   UNL     1      33.763 -22.154 -18.466  0.00  0.00    +0.087 C 
ENDBRANCH  22  26
ENDBRANCH  19  21
ENDBRANCH  18  19
ENDBRANCH   2  18
TORSDOF 6
ENDMDL
