MODEL 1
REMARK VINA RESULT:     -11.7      0.000      0.000
REMARK  Name = 6918151
REMARK  4 active torsions:
REMARK  status: ('A' for Active; 'I' for Inactive)
REMARK    1  A    between atoms: C_2  and  C_11
REMARK    2  A    between atoms: C_7  and  C_18
REMARK    3  A    between atoms: C_11  and  C_12
REMARK    4  A    between atoms: C_18  and  C_23
REMARK                            x       y       z     vdW  Elec       q    Type
REMARK                         _______ _______ _______ _____ _____    ______ ____
ROOT
ATOM      1  O   UNL     1      35.816 -19.994 -20.294  0.00  0.00    -0.479 OA
ATOM      2  C   UNL     1      35.007 -19.021 -20.970  0.00  0.00    +0.171 C 
ATOM      3  C   UNL     1      33.795 -19.671 -21.635  0.00  0.00    +0.049 C 
ATOM      4  C   UNL     1      32.910 -20.292 -20.560  0.00  0.00    +0.033 C 
ATOM      5  C   UNL     1      33.741 -21.065 -19.578  0.00  0.00    +0.012 C 
ATOM      6  C   UNL     1      35.126 -20.867 -19.493  0.00  0.00    +0.134 C 
ATOM      7  C   UNL     1      33.891 -22.707 -17.796  0.00  0.00    -0.021 C 
ATOM      8  C   UNL     1      33.128 -21.981 -18.712  0.00  0.00    -0.006 C 
ATOM      9  C   UNL     1      35.889 -21.603 -18.583  0.00  0.00    +0.036 C 
ATOM     10  C   UNL     1      35.271 -22.520 -17.734  0.00  0.00    -0.001 C 
ENDROOT
BRANCH   2  11
ATOM     11  C   UNL     1      35.892 -18.339 -22.007  0.00  0.00    +0.070 C 
BRANCH  11  12
ATOM     12  C   UNL     1      35.210 -17.148 -22.625  0.00  0.00    -0.019 C 
ATOM     13  C   UNL     1      34.906 -16.048 -21.834  0.00  0.00    -0.004 C 
ATOM     14  C   UNL     1      34.895 -17.165 -23.977  0.00  0.00    -0.004 C 
ATOM     15  C   UNL     1      34.274 -14.944 -22.406  0.00  0.00    -0.000 C 
ATOM     16  C   UNL     1      34.264 -16.060 -24.549  0.00  0.00    -0.000 C 
ATOM     17  C   UNL     1      33.953 -14.951 -23.764  0.00  0.00    -0.000 C 
ENDBRANCH  11  12
ENDBRANCH   2  11
BRANCH   7  18
ATOM     18  C   UNL     1      33.229 -23.683 -16.884  0.00  0.00    +0.047 C 
BRANCH  18  23
ATOM     19  S   UNL     1      33.088 -23.830 -14.131  0.00  0.00    -0.048 S 
ATOM     20  O   UNL     1      30.405 -22.676 -16.655  0.00  0.00    -0.274 OA
ATOM     21  O   UNL     1      31.158 -24.712 -12.579  0.00  0.00    -0.263 OA
ATOM     22  N   UNL     1      30.578 -23.702 -14.589  0.00  0.00    -0.246 N 
ATOM     23  C   UNL     1      32.590 -23.006 -15.674  0.00  0.00    +0.137 C 
ATOM     24  C   UNL     1      31.082 -23.096 -15.722  0.00  0.00    +0.239 C 
ATOM     25  C   UNL     1      31.444 -24.157 -13.629  0.00  0.00    +0.279 C 
ATOM     26  H   UNL     1      29.606 -23.807 -14.473  0.00  0.00    +0.158 HD
ENDBRANCH  18  23
ENDBRANCH   7  18
TORSDOF 4
ENDMDL
MODEL 2
REMARK VINA RESULT:     -11.3      1.233      1.584
REMARK  Name = 6918151
REMARK  4 active torsions:
REMARK  status: ('A' for Active; 'I' for Inactive)
REMARK    1  A    between atoms: C_2  and  C_11
REMARK    2  A    between atoms: C_7  and  C_18
REMARK    3  A    between atoms: C_11  and  C_12
REMARK    4  A    between atoms: C_18  and  C_23
REMARK                            x       y       z     vdW  Elec       q    Type
REMARK                         _______ _______ _______ _____ _____    ______ ____
ROOT
ATOM      1  O   UNL     1      35.891 -20.072 -20.560  0.00  0.00    -0.479 OA
ATOM      2  C   UNL     1      35.026 -19.136 -21.220  0.00  0.00    +0.171 C 
ATOM      3  C   UNL     1      33.747 -19.813 -21.711  0.00  0.00    +0.049 C 
ATOM      4  C   UNL     1      32.970 -20.341 -20.511  0.00  0.00    +0.033 C 
ATOM      5  C   UNL     1      33.889 -21.056 -19.564  0.00  0.00    +0.012 C 
ATOM      6  C   UNL     1      35.277 -20.875 -19.632  0.00  0.00    +0.134 C 
ATOM      7  C   UNL     1      34.202 -22.568 -17.691  0.00  0.00    -0.021 C 
ATOM      8  C   UNL     1      33.358 -21.897 -18.577  0.00  0.00    -0.006 C 
ATOM      9  C   UNL     1      36.121 -21.557 -18.752  0.00  0.00    +0.036 C 
ATOM     10  C   UNL     1      35.583 -22.400 -17.781  0.00  0.00    -0.001 C 
ENDROOT
BRANCH   2  11
ATOM     11  C   UNL     1      35.808 -18.546 -22.387  0.00  0.00    +0.070 C 
BRANCH  11  12
ATOM     12  C   UNL     1      35.100 -17.363 -22.991  0.00  0.00    -0.019 C 
ATOM     13  C   UNL     1      34.538 -17.475 -24.256  0.00  0.00    -0.004 C 
ATOM     14  C   UNL     1      35.017 -16.177 -22.275  0.00  0.00    -0.004 C 
ATOM     15  C   UNL     1      33.881 -16.380 -24.816  0.00  0.00    -0.000 C 
ATOM     16  C   UNL     1      34.359 -15.081 -22.835  0.00  0.00    -0.000 C 
ATOM     17  C   UNL     1      33.792 -15.182 -24.105  0.00  0.00    -0.000 C 
ENDBRANCH  11  12
ENDBRANCH   2  11
BRANCH   7  18
ATOM     18  C   UNL     1      33.627 -23.466 -16.649  0.00  0.00    +0.047 C 
BRANCH  18  23
ATOM     19  S   UNL     1      35.055 -23.568 -14.290  0.00  0.00    -0.048 S 
ATOM     20  O   UNL     1      31.308 -22.830 -14.844  0.00  0.00    -0.274 OA
ATOM     21  O   UNL     1      34.435 -24.658 -11.979  0.00  0.00    -0.263 OA
ATOM     22  N   UNL     1      32.719 -23.778 -13.277  0.00  0.00    -0.246 N 
ATOM     23  C   UNL     1      33.690 -22.850 -15.254  0.00  0.00    +0.137 C 
ATOM     24  C   UNL     1      32.433 -23.137 -14.465  0.00  0.00    +0.239 C 
ATOM     25  C   UNL     1      34.020 -24.094 -12.980  0.00  0.00    +0.279 C 
ATOM     26  H   UNL     1      31.997 -24.006 -12.648  0.00  0.00    +0.158 HD
ENDBRANCH  18  23
ENDBRANCH   7  18
TORSDOF 4
ENDMDL
MODEL 3
REMARK VINA RESULT:     -11.1      1.136      1.947
REMARK  Name = 6918151
REMARK  4 active torsions:
REMARK  status: ('A' for Active; 'I' for Inactive)
REMARK    1  A    between atoms: C_2  and  C_11
REMARK    2  A    between atoms: C_7  and  C_18
REMARK    3  A    between atoms: C_11  and  C_12
REMARK    4  A    between atoms: C_18  and  C_23
REMARK                            x       y       z     vdW  Elec       q    Type
REMARK                         _______ _______ _______ _____ _____    ______ ____
ROOT
ATOM      1  O   UNL     1      34.563 -19.297 -21.038  0.00  0.00    -0.479 OA
ATOM      2  C   UNL     1      35.901 -19.253 -21.556  0.00  0.00    +0.171 C 
ATOM      3  C   UNL     1      36.934 -19.401 -20.441  0.00  0.00    +0.049 C 
ATOM      4  C   UNL     1      36.773 -20.769 -19.790  0.00  0.00    +0.033 C 
ATOM      5  C   UNL     1      35.324 -21.056 -19.524  0.00  0.00    +0.012 C 
ATOM      6  C   UNL     1      34.315 -20.323 -20.162  0.00  0.00    +0.134 C 
ATOM      7  C   UNL     1      33.622 -22.363 -18.388  0.00  0.00    -0.021 C 
ATOM      8  C   UNL     1      34.966 -22.088 -18.645  0.00  0.00    -0.006 C 
ATOM      9  C   UNL     1      32.970 -20.592 -19.894  0.00  0.00    +0.036 C 
ATOM     10  C   UNL     1      32.625 -21.614 -19.010  0.00  0.00    -0.001 C 
ENDROOT
BRANCH   2  11
ATOM     11  C   UNL     1      36.063 -17.915 -22.270  0.00  0.00    +0.070 C 
BRANCH  11  12
ATOM     12  C   UNL     1      34.998 -17.708 -23.313  0.00  0.00    -0.019 C 
ATOM     13  C   UNL     1      34.716 -16.422 -23.755  0.00  0.00    -0.004 C 
ATOM     14  C   UNL     1      34.312 -18.804 -23.818  0.00  0.00    -0.004 C 
ATOM     15  C   UNL     1      33.729 -16.229 -24.722  0.00  0.00    -0.000 C 
ATOM     16  C   UNL     1      33.326 -18.610 -24.785  0.00  0.00    -0.000 C 
ATOM     17  C   UNL     1      33.034 -17.324 -25.236  0.00  0.00    -0.000 C 
ENDBRANCH  11  12
ENDBRANCH   2  11
BRANCH   7  18
ATOM     18  C   UNL     1      33.253 -23.459 -17.447  0.00  0.00    +0.047 C 
BRANCH  18  23
ATOM     19  S   UNL     1      33.698 -23.766 -14.740  0.00  0.00    -0.048 S 
ATOM     20  O   UNL     1      30.444 -22.818 -16.586  0.00  0.00    -0.274 OA
ATOM     21  O   UNL     1      32.238 -24.958 -12.908  0.00  0.00    -0.263 OA
ATOM     22  N   UNL     1      31.149 -23.922 -14.680  0.00  0.00    -0.246 N 
ATOM     23  C   UNL     1      32.807 -22.929 -16.086  0.00  0.00    +0.137 C 
ATOM     24  C   UNL     1      31.340 -23.201 -15.841  0.00  0.00    +0.239 C 
ATOM     25  C   UNL     1      32.238 -24.318 -13.948  0.00  0.00    +0.279 C 
ATOM     26  H   UNL     1      30.240 -24.152 -14.382  0.00  0.00    +0.158 HD
ENDBRANCH  18  23
ENDBRANCH   7  18
TORSDOF 4
ENDMDL
MODEL 4
REMARK VINA RESULT:     -10.7      4.364      9.523
REMARK  Name = 6918151
REMARK  4 active torsions:
REMARK  status: ('A' for Active; 'I' for Inactive)
REMARK    1  A    between atoms: C_2  and  C_11
REMARK    2  A    between atoms: C_7  and  C_18
REMARK    3  A    between atoms: C_11  and  C_12
REMARK    4  A    between atoms: C_18  and  C_23
REMARK                            x       y       z     vdW  Elec       q    Type
REMARK                         _______ _______ _______ _____ _____    ______ ____
ROOT
ATOM      1  O   UNL     1      35.334 -23.036 -15.157  0.00  0.00    -0.479 OA
ATOM      2  C   UNL     1      34.242 -23.916 -14.849  0.00  0.00    +0.171 C 
ATOM      3  C   UNL     1      32.918 -23.363 -15.374  0.00  0.00    +0.049 C 
ATOM      4  C   UNL     1      32.982 -23.276 -16.895  0.00  0.00    +0.033 C 
ATOM      5  C   UNL     1      34.283 -22.668 -17.331  0.00  0.00    +0.012 C 
ATOM      6  C   UNL     1      35.374 -22.594 -16.455  0.00  0.00    +0.134 C 
ATOM      7  C   UNL     1      35.630 -21.620 -19.058  0.00  0.00    -0.021 C 
ATOM      8  C   UNL     1      34.426 -22.188 -18.640  0.00  0.00    -0.006 C 
ATOM      9  C   UNL     1      36.575 -22.014 -16.870  0.00  0.00    +0.036 C 
ATOM     10  C   UNL     1      36.703 -21.530 -18.172  0.00  0.00    -0.001 C 
ENDROOT
BRANCH   2  11
ATOM     11  C   UNL     1      34.200 -24.070 -13.333  0.00  0.00    +0.070 C 
BRANCH  11  12
ATOM     12  C   UNL     1      35.574 -24.285 -12.758  0.00  0.00    -0.019 C 
ATOM     13  C   UNL     1      36.064 -23.399 -11.807  0.00  0.00    -0.004 C 
ATOM     14  C   UNL     1      36.334 -25.366 -13.185  0.00  0.00    -0.004 C 
ATOM     15  C   UNL     1      37.337 -23.598 -11.273  0.00  0.00    -0.000 C 
ATOM     16  C   UNL     1      37.607 -25.564 -12.650  0.00  0.00    -0.000 C 
ATOM     17  C   UNL     1      38.108 -24.681 -11.696  0.00  0.00    -0.000 C 
ENDBRANCH  11  12
ENDBRANCH   2  11
BRANCH   7  18
ATOM     18  C   UNL     1      35.769 -21.108 -20.451  0.00  0.00    +0.047 C 
BRANCH  18  23
ATOM     19  S   UNL     1      34.228 -19.402 -21.979  0.00  0.00    -0.048 S 
ATOM     20  O   UNL     1      37.536 -18.698 -20.119  0.00  0.00    -0.274 OA
ATOM     21  O   UNL     1      34.945 -17.637 -23.791  0.00  0.00    -0.263 OA
ATOM     22  N   UNL     1      36.380 -18.024 -22.005  0.00  0.00    -0.246 N 
ATOM     23  C   UNL     1      35.358 -19.642 -20.574  0.00  0.00    +0.137 C 
ATOM     24  C   UNL     1      36.550 -18.754 -20.847  0.00  0.00    +0.239 C 
ATOM     25  C   UNL     1      35.242 -18.201 -22.749  0.00  0.00    +0.279 C 
ATOM     26  H   UNL     1      37.069 -17.384 -22.295  0.00  0.00    +0.158 HD
ENDBRANCH  18  23
ENDBRANCH   7  18
TORSDOF 4
ENDMDL
MODEL 5
REMARK VINA RESULT:     -10.7      3.482      9.185
REMARK  Name = 6918151
REMARK  4 active torsions:
REMARK  status: ('A' for Active; 'I' for Inactive)
REMARK    1  A    between atoms: C_2  and  C_11
REMARK    2  A    between atoms: C_7  and  C_18
REMARK    3  A    between atoms: C_11  and  C_12
REMARK    4  A    between atoms: C_18  and  C_23
REMARK                            x       y       z     vdW  Elec       q    Type
REMARK                         _______ _______ _______ _____ _____    ______ ____
ROOT
ATOM      1  O   UNL     1      33.149 -23.322 -15.972  0.00  0.00    -0.479 OA
ATOM      2  C   UNL     1      33.801 -23.317 -14.693  0.00  0.00    +0.171 C 
ATOM      3  C   UNL     1      35.242 -23.811 -14.802  0.00  0.00    +0.049 C 
ATOM      4  C   UNL     1      36.031 -22.854 -15.689  0.00  0.00    +0.033 C 
ATOM      5  C   UNL     1      35.249 -22.519 -16.926  0.00  0.00    +0.012 C 
ATOM      6  C   UNL     1      33.870 -22.757 -16.993  0.00  0.00    +0.134 C 
ATOM      7  C   UNL     1      35.179 -21.620 -19.180  0.00  0.00    -0.021 C 
ATOM      8  C   UNL     1      35.895 -21.935 -18.024  0.00  0.00    -0.006 C 
ATOM      9  C   UNL     1      33.157 -22.453 -18.155  0.00  0.00    +0.036 C 
ATOM     10  C   UNL     1      33.812 -21.882 -19.246  0.00  0.00    -0.001 C 
ENDROOT
BRANCH   2  11
ATOM     11  C   UNL     1      32.989 -24.219 -13.770  0.00  0.00    +0.070 C 
BRANCH  11  12
ATOM     12  C   UNL     1      31.521 -24.176 -14.099  0.00  0.00    -0.019 C 
ATOM     13  C   UNL     1      30.909 -22.952 -14.335  0.00  0.00    -0.004 C 
ATOM     14  C   UNL     1      30.799 -25.359 -14.162  0.00  0.00    -0.004 C 
ATOM     15  C   UNL     1      29.549 -22.911 -14.641  0.00  0.00    -0.000 C 
ATOM     16  C   UNL     1      29.438 -25.319 -14.468  0.00  0.00    -0.000 C 
ATOM     17  C   UNL     1      28.813 -24.095 -14.706  0.00  0.00    -0.000 C 
ENDBRANCH  11  12
ENDBRANCH   2  11
BRANCH   7  18
ATOM     18  C   UNL     1      35.878 -21.005 -20.344  0.00  0.00    +0.047 C 
BRANCH  18  23
ATOM     19  S   UNL     1      34.354 -19.391 -21.985  0.00  0.00    -0.048 S 
ATOM     20  O   UNL     1      37.652 -18.586 -20.149  0.00  0.00    -0.274 OA
ATOM     21  O   UNL     1      35.091 -17.745 -23.899  0.00  0.00    -0.263 OA
ATOM     22  N   UNL     1      36.512 -18.026 -22.082  0.00  0.00    -0.246 N 
ATOM     23  C   UNL     1      35.473 -19.549 -20.561  0.00  0.00    +0.137 C 
ATOM     24  C   UNL     1      36.672 -18.683 -20.879  0.00  0.00    +0.239 C 
ATOM     25  C   UNL     1      35.379 -18.244 -22.822  0.00  0.00    +0.279 C 
ATOM     26  H   UNL     1      37.206 -17.407 -22.406  0.00  0.00    +0.158 HD
ENDBRANCH  18  23
ENDBRANCH   7  18
TORSDOF 4
ENDMDL
MODEL 6
REMARK VINA RESULT:     -10.6      4.548      9.679
REMARK  Name = 6918151
REMARK  4 active torsions:
REMARK  status: ('A' for Active; 'I' for Inactive)
REMARK    1  A    between atoms: C_2  and  C_11
REMARK    2  A    between atoms: C_7  and  C_18
REMARK    3  A    between atoms: C_11  and  C_12
REMARK    4  A    between atoms: C_18  and  C_23
REMARK                            x       y       z     vdW  Elec       q    Type
REMARK                         _______ _______ _______ _____ _____    ______ ____
ROOT
ATOM      1  O   UNL     1      34.458 -23.014 -16.616  0.00  0.00    -0.479 OA
ATOM      2  C   UNL     1      35.306 -22.919 -15.462  0.00  0.00    +0.171 C 
ATOM      3  C   UNL     1      36.777 -23.085 -15.839  0.00  0.00    +0.049 C 
ATOM      4  C   UNL     1      37.186 -21.947 -16.767  0.00  0.00    +0.033 C 
ATOM      5  C   UNL     1      36.150 -21.740 -17.833  0.00  0.00    +0.012 C 
ATOM      6  C   UNL     1      34.859 -22.267 -17.694  0.00  0.00    +0.134 C 
ATOM      7  C   UNL     1      35.506 -20.791 -19.972  0.00  0.00    -0.021 C 
ATOM      8  C   UNL     1      36.461 -20.989 -18.974  0.00  0.00    -0.006 C 
ATOM      9  C   UNL     1      33.908 -22.079 -18.700  0.00  0.00    +0.036 C 
ATOM     10  C   UNL     1      34.232 -21.338 -19.837  0.00  0.00    -0.001 C 
ENDROOT
BRANCH   2  11
ATOM     11  C   UNL     1      34.870 -24.009 -14.490  0.00  0.00    +0.070 C 
BRANCH  11  12
ATOM     12  C   UNL     1      35.917 -24.270 -13.441  0.00  0.00    -0.019 C 
ATOM     13  C   UNL     1      36.577 -25.492 -13.422  0.00  0.00    -0.004 C 
ATOM     14  C   UNL     1      36.209 -23.287 -12.506  0.00  0.00    -0.004 C 
ATOM     15  C   UNL     1      37.546 -25.735 -12.450  0.00  0.00    -0.000 C 
ATOM     16  C   UNL     1      37.180 -23.530 -11.534  0.00  0.00    -0.000 C 
ATOM     17  C   UNL     1      37.848 -24.753 -11.506  0.00  0.00    -0.000 C 
ENDBRANCH  11  12
ENDBRANCH   2  11
BRANCH   7  18
ATOM     18  C   UNL     1      35.850 -19.994 -21.185  0.00  0.00    +0.047 C 
BRANCH  18  23
ATOM     19  S   UNL     1      34.396 -19.365 -23.445  0.00  0.00    -0.048 S 
ATOM     20  O   UNL     1      35.255 -17.154 -20.400  0.00  0.00    -0.274 OA
ATOM     21  O   UNL     1      34.450 -17.208 -24.947  0.00  0.00    -0.263 OA
ATOM     22  N   UNL     1      34.868 -16.975 -22.673  0.00  0.00    -0.246 N 
ATOM     23  C   UNL     1      34.684 -19.134 -21.664  0.00  0.00    +0.137 C 
ATOM     24  C   UNL     1      34.971 -17.661 -21.480  0.00  0.00    +0.239 C 
ATOM     25  C   UNL     1      34.573 -17.664 -23.821  0.00  0.00    +0.279 C 
ATOM     26  H   UNL     1      35.006 -16.001 -22.700  0.00  0.00    +0.158 HD
ENDBRANCH  18  23
ENDBRANCH   7  18
TORSDOF 4
ENDMDL
MODEL 7
REMARK VINA RESULT:     -10.5      4.045      5.834
REMARK  Name = 6918151
REMARK  4 active torsions:
REMARK  status: ('A' for Active; 'I' for Inactive)
REMARK    1  A    between atoms: C_2  and  C_11
REMARK    2  A    between atoms: C_7  and  C_18
REMARK    3  A    between atoms: C_11  and  C_12
REMARK    4  A    between atoms: C_18  and  C_23
REMARK                            x       y       z     vdW  Elec       q    Type
REMARK                         _______ _______ _______ _____ _____    ______ ____
ROOT
ATOM      1  O   UNL     1      35.213 -22.494 -17.318  0.00  0.00    -0.479 OA
ATOM      2  C   UNL     1      33.789 -22.386 -17.462  0.00  0.00    +0.171 C 
ATOM      3  C   UNL     1      33.068 -23.510 -16.721  0.00  0.00    +0.049 C 
ATOM      4  C   UNL     1      33.358 -23.390 -15.230  0.00  0.00    +0.033 C 
ATOM      5  C   UNL     1      34.821 -23.145 -14.997  0.00  0.00    +0.012 C 
ATOM      6  C   UNL     1      35.652 -22.706 -16.036  0.00  0.00    +0.134 C 
ATOM      7  C   UNL     1      36.724 -23.107 -13.491  0.00  0.00    -0.021 C 
ATOM      8  C   UNL     1      35.366 -23.331 -13.719  0.00  0.00    -0.006 C 
ATOM      9  C   UNL     1      37.014 -22.495 -15.808  0.00  0.00    +0.036 C 
ATOM     10  C   UNL     1      37.548 -22.693 -14.536  0.00  0.00    -0.001 C 
ENDROOT
BRANCH   2  11
ATOM     11  C   UNL     1      33.482 -22.438 -18.954  0.00  0.00    +0.070 C 
BRANCH  11  12
ATOM     12  C   UNL     1      34.178 -21.335 -19.705  0.00  0.00    -0.019 C 
ATOM     13  C   UNL     1      35.564 -21.252 -19.668  0.00  0.00    -0.004 C 
ATOM     14  C   UNL     1      33.427 -20.416 -20.424  0.00  0.00    -0.004 C 
ATOM     15  C   UNL     1      36.210 -20.230 -20.364  0.00  0.00    -0.000 C 
ATOM     16  C   UNL     1      34.073 -19.395 -21.120  0.00  0.00    -0.000 C 
ATOM     17  C   UNL     1      35.464 -19.301 -21.090  0.00  0.00    -0.000 C 
ENDBRANCH  11  12
ENDBRANCH   2  11
BRANCH   7  18
ATOM     18  C   UNL     1      37.295 -23.314 -12.129  0.00  0.00    +0.047 C 
BRANCH  18  23
ATOM     19  S   UNL     1      38.788 -25.253 -13.405  0.00  0.00    -0.048 S 
ATOM     20  O   UNL     1      35.881 -25.666 -10.899  0.00  0.00    -0.274 OA
ATOM     21  O   UNL     1      38.027 -27.490 -14.559  0.00  0.00    -0.263 OA
ATOM     22  N   UNL     1      36.826 -26.739 -12.717  0.00  0.00    -0.246 N 
ATOM     23  C   UNL     1      37.849 -24.724 -11.940  0.00  0.00    +0.137 C 
ATOM     24  C   UNL     1      36.740 -25.737 -11.772  0.00  0.00    +0.239 C 
ATOM     25  C   UNL     1      37.819 -26.688 -13.661  0.00  0.00    +0.279 C 
ATOM     26  H   UNL     1      36.181 -27.482 -12.713  0.00  0.00    +0.158 HD
ENDBRANCH  18  23
ENDBRANCH   7  18
TORSDOF 4
ENDMDL
MODEL 8
REMARK VINA RESULT:     -10.4      4.213      9.265
REMARK  Name = 6918151
REMARK  4 active torsions:
REMARK  status: ('A' for Active; 'I' for Inactive)
REMARK    1  A    between atoms: C_2  and  C_11
REMARK    2  A    between atoms: C_7  and  C_18
REMARK    3  A    between atoms: C_11  and  C_12
REMARK    4  A    between atoms: C_18  and  C_23
REMARK                            x       y       z     vdW  Elec       q    Type
REMARK                         _______ _______ _______ _____ _____    ______ ____
ROOT
ATOM      1  O   UNL     1      35.170 -22.973 -16.365  0.00  0.00    -0.479 OA
ATOM      2  C   UNL     1      34.165 -23.826 -15.798  0.00  0.00    +0.171 C 
ATOM      3  C   UNL     1      32.813 -23.117 -15.720  0.00  0.00    +0.049 C 
ATOM      4  C   UNL     1      32.345 -22.783 -17.131  0.00  0.00    +0.033 C 
ATOM      5  C   UNL     1      33.467 -22.188 -17.931  0.00  0.00    +0.012 C 
ATOM      6  C   UNL     1      34.799 -22.325 -17.516  0.00  0.00    +0.134 C 
ATOM      7  C   UNL     1      34.227 -20.949 -19.875  0.00  0.00    -0.021 C 
ATOM      8  C   UNL     1      33.191 -21.507 -19.124  0.00  0.00    -0.006 C 
ATOM      9  C   UNL     1      35.833 -21.755 -18.262  0.00  0.00    +0.036 C 
ATOM     10  C   UNL     1      35.546 -21.070 -19.443  0.00  0.00    -0.001 C 
ENDROOT
BRANCH   2  11
ATOM     11  C   UNL     1      34.645 -24.227 -14.408  0.00  0.00    +0.070 C 
BRANCH  11  12
ATOM     12  C   UNL     1      35.991 -24.900 -14.456  0.00  0.00    -0.019 C 
ATOM     13  C   UNL     1      36.069 -26.249 -14.774  0.00  0.00    -0.004 C 
ATOM     14  C   UNL     1      37.135 -24.163 -14.182  0.00  0.00    -0.004 C 
ATOM     15  C   UNL     1      37.316 -26.873 -14.819  0.00  0.00    -0.000 C 
ATOM     16  C   UNL     1      38.381 -24.787 -14.228  0.00  0.00    -0.000 C 
ATOM     17  C   UNL     1      38.472 -26.142 -14.546  0.00  0.00    -0.000 C 
ENDBRANCH  11  12
ENDBRANCH   2  11
BRANCH   7  18
ATOM     18  C   UNL     1      33.921 -20.222 -21.141  0.00  0.00    +0.047 C 
BRANCH  18  23
ATOM     19  S   UNL     1      35.204 -17.785 -20.953  0.00  0.00    -0.048 S 
ATOM     20  O   UNL     1      34.928 -20.173 -23.973  0.00  0.00    -0.274 OA
ATOM     21  O   UNL     1      35.256 -15.765 -22.635  0.00  0.00    -0.263 OA
ATOM     22  N   UNL     1      35.101 -17.915 -23.503  0.00  0.00    -0.246 N 
ATOM     23  C   UNL     1      35.128 -19.453 -21.674  0.00  0.00    +0.137 C 
ATOM     24  C   UNL     1      35.038 -19.253 -23.170  0.00  0.00    +0.239 C 
ATOM     25  C   UNL     1      35.194 -16.978 -22.506  0.00  0.00    +0.279 C 
ATOM     26  H   UNL     1      35.079 -17.636 -24.447  0.00  0.00    +0.158 HD
ENDBRANCH  18  23
ENDBRANCH   7  18
TORSDOF 4
ENDMDL
MODEL 9
REMARK VINA RESULT:     -10.3      5.908     10.488
REMARK  Name = 6918151
REMARK  4 active torsions:
REMARK  status: ('A' for Active; 'I' for Inactive)
REMARK    1  A    between atoms: C_2  and  C_11
REMARK    2  A    between atoms: C_7  and  C_18
REMARK    3  A    between atoms: C_11  and  C_12
REMARK    4  A    between atoms: C_18  and  C_23
REMARK                            x       y       z     vdW  Elec       q    Type
REMARK                         _______ _______ _______ _____ _____    ______ ____
ROOT
ATOM      1  O   UNL     1      34.737 -17.959 -23.208  0.00  0.00    -0.479 OA
ATOM      2  C   UNL     1      34.703 -18.374 -21.834  0.00  0.00    +0.171 C 
ATOM      3  C   UNL     1      35.462 -17.396 -20.939  0.00  0.00    +0.049 C 
ATOM      4  C   UNL     1      34.776 -16.036 -20.993  0.00  0.00    +0.033 C 
ATOM      5  C   UNL     1      34.449 -15.668 -22.411  0.00  0.00    +0.012 C 
ATOM      6  C   UNL     1      34.436 -16.638 -23.422  0.00  0.00    +0.134 C 
ATOM      7  C   UNL     1      33.822 -13.989 -24.048  0.00  0.00    -0.021 C 
ATOM      8  C   UNL     1      34.126 -14.343 -22.732  0.00  0.00    -0.006 C 
ATOM      9  C   UNL     1      34.144 -16.279 -24.740  0.00  0.00    +0.036 C 
ATOM     10  C   UNL     1      33.834 -14.956 -25.051  0.00  0.00    -0.001 C 
ENDROOT
BRANCH   2  11
ATOM     11  C   UNL     1      35.326 -19.764 -21.767  0.00  0.00    +0.070 C 
BRANCH  11  12
ATOM     12  C   UNL     1      34.813 -20.548 -20.590  0.00  0.00    -0.019 C 
ATOM     13  C   UNL     1      35.709 -21.244 -19.789  0.00  0.00    -0.004 C 
ATOM     14  C   UNL     1      33.451 -20.566 -20.321  0.00  0.00    -0.004 C 
ATOM     15  C   UNL     1      35.233 -21.971 -18.698  0.00  0.00    -0.000 C 
ATOM     16  C   UNL     1      32.976 -21.293 -19.229  0.00  0.00    -0.000 C 
ATOM     17  C   UNL     1      33.867 -21.996 -18.418  0.00  0.00    -0.000 C 
ENDBRANCH  11  12
ENDBRANCH   2  11
BRANCH   7  18
ATOM     18  C   UNL     1      33.485 -12.575 -24.379  0.00  0.00    +0.047 C 
BRANCH  18  23
ATOM     19  S   UNL     1      32.253 -11.379 -22.218  0.00  0.00    -0.048 S 
ATOM     20  O   UNL     1      35.112 -10.047 -24.442  0.00  0.00    -0.274 OA
ATOM     21  O   UNL     1      31.437  -8.901 -21.891  0.00  0.00    -0.263 OA
ATOM     22  N   UNL     1      33.318  -9.276 -23.202  0.00  0.00    -0.246 N 
ATOM     23  C   UNL     1      33.754 -11.626 -23.214  0.00  0.00    +0.137 C 
ATOM     24  C   UNL     1      34.157 -10.252 -23.701  0.00  0.00    +0.239 C 
ATOM     25  C   UNL     1      32.264  -9.639 -22.405  0.00  0.00    +0.279 C 
ATOM     26  H   UNL     1      33.476  -8.328 -23.418  0.00  0.00    +0.158 HD
ENDBRANCH  18  23
ENDBRANCH   7  18
TORSDOF 4
ENDMDL
