MODEL 1
REMARK VINA RESULT:     -11.8      0.000      0.000
REMARK  Name = 11224409
REMARK  8 active torsions:
REMARK  status: ('A' for Active; 'I' for Inactive)
REMARK    1  A    between atoms: C_2  and  N_10
REMARK    2  A    between atoms: C_5  and  C_20
REMARK    3  A    between atoms: C_11  and  C_14
REMARK    4  A    between atoms: C_14  and  N_16
REMARK    5  A    between atoms: C_21  and  C_26
REMARK    6  A    between atoms: C_26  and  N_27
REMARK    7  A    between atoms: N_27  and  C_30
REMARK    8  A    between atoms: C_30  and  C_34
REMARK                            x       y       z     vdW  Elec       q    Type
REMARK                         _______ _______ _______ _____ _____    ______ ____
ROOT
ATOM      1  F   UNL     1      36.965 -19.853 -20.659  0.00  0.00    -0.204 F 
ATOM      2  C   UNL     1      34.599 -21.693 -18.604  0.00  0.00    +0.059 C 
ATOM      3  C   UNL     1      35.804 -21.204 -19.110  0.00  0.00    +0.045 C 
ATOM      4  C   UNL     1      33.390 -21.292 -19.173  0.00  0.00    +0.015 C 
ATOM      5  C   UNL     1      34.590 -19.914 -20.753  0.00  0.00    +0.028 C 
ATOM      6  C   UNL     1      35.799 -20.315 -20.185  0.00  0.00    +0.141 C 
ATOM      7  C   UNL     1      33.385 -20.402 -20.247  0.00  0.00    +0.004 C 
ENDROOT
BRANCH   2  10
ATOM      8  O   UNL     1      35.218 -23.752 -15.665  0.00  0.00    -0.434 OA
ATOM      9  O   UNL     1      36.683 -22.206 -16.448  0.00  0.00    -0.226 OA
ATOM     10  N   UNL     1      34.604 -22.600 -17.507  0.00  0.00    -0.221 N 
ATOM     11  C   UNL     1      33.843 -24.082 -15.900  0.00  0.00    +0.210 C 
ATOM     12  C   UNL     1      33.570 -23.580 -17.301  0.00  0.00    +0.147 C 
ATOM     13  C   UNL     1      35.602 -22.769 -16.550  0.00  0.00    +0.409 C 
BRANCH  11  14
ATOM     14  C   UNL     1      32.987 -23.402 -14.841  0.00  0.00    +0.135 C 
BRANCH  14  16
ATOM     15  O   UNL     1      31.817 -25.144 -12.834  0.00  0.00    -0.275 OA
ATOM     16  N   UNL     1      31.659 -23.941 -14.823  0.00  0.00    -0.301 N 
ATOM     17  C   UNL     1      31.180 -24.773 -13.816  0.00  0.00    +0.223 C 
ATOM     18  C   UNL     1      29.745 -25.175 -14.031  0.00  0.00    +0.095 C 
ATOM     19  H   UNL     1      31.053 -23.711 -15.565  0.00  0.00    +0.150 HD
ENDBRANCH  14  16
ENDBRANCH  11  14
ENDBRANCH   2  10
BRANCH   5  20
ATOM     20  C   UNL     1      34.581 -18.992 -21.868  0.00  0.00    +0.002 C 
ATOM     21  C   UNL     1      34.560 -17.214 -24.018  0.00  0.00    -0.044 C 
ATOM     22  C   UNL     1      34.174 -19.427 -23.129  0.00  0.00    -0.000 C 
ATOM     23  C   UNL     1      34.977 -17.667 -21.682  0.00  0.00    -0.000 C 
ATOM     24  C   UNL     1      34.163 -18.538 -24.204  0.00  0.00    -0.006 C 
ATOM     25  C   UNL     1      34.968 -16.778 -22.756  0.00  0.00    -0.006 C 
BRANCH  21  26
ATOM     26  C   UNL     1      34.548 -16.264 -25.167  0.00  0.00    -0.054 C 
BRANCH  26  27
ATOM     27  N   UNL     1      33.214 -15.718 -25.427  0.00  0.00    +0.390 N 
ATOM     28  H   UNL     1      32.646 -15.806 -24.584  0.00  0.00    -0.083 HD
ATOM     29  H   UNL     1      32.790 -16.240 -26.194  0.00  0.00    -0.083 HD
BRANCH  27  30
ATOM     30  C   UNL     1      33.297 -14.316 -25.803  0.00  0.00    -0.031 C 
BRANCH  30  34
ATOM     31  N   UNL     1      33.837 -12.173 -24.690  0.00  0.00    -0.170 NA
ATOM     32  N   UNL     1      33.698 -11.752 -23.423  0.00  0.00    -0.157 N 
ATOM     33  N   UNL     1      33.172 -12.596 -22.520  0.00  0.00    -0.162 NA
ATOM     34  C   UNL     1      33.351 -13.415 -24.598  0.00  0.00    +0.077 C 
ATOM     35  C   UNL     1      32.948 -13.672 -23.281  0.00  0.00    +0.133 C 
ATOM     36  H   UNL     1      33.976 -10.844 -23.161  0.00  0.00    +0.197 HD
ENDBRANCH  30  34
ENDBRANCH  27  30
ENDBRANCH  26  27
ENDBRANCH  21  26
ENDBRANCH   5  20
TORSDOF 8
ENDMDL
MODEL 2
REMARK VINA RESULT:     -11.4      2.930      4.642
REMARK  Name = 11224409
REMARK  8 active torsions:
REMARK  status: ('A' for Active; 'I' for Inactive)
REMARK    1  A    between atoms: C_2  and  N_10
REMARK    2  A    between atoms: C_5  and  C_20
REMARK    3  A    between atoms: C_11  and  C_14
REMARK    4  A    between atoms: C_14  and  N_16
REMARK    5  A    between atoms: C_21  and  C_26
REMARK    6  A    between atoms: C_26  and  N_27
REMARK    7  A    between atoms: N_27  and  C_30
REMARK    8  A    between atoms: C_30  and  C_34
REMARK                            x       y       z     vdW  Elec       q    Type
REMARK                         _______ _______ _______ _____ _____    ______ ____
ROOT
ATOM      1  F   UNL     1      37.285 -21.135 -17.691  0.00  0.00    -0.204 F 
ATOM      2  C   UNL     1      35.487 -23.550 -15.655  0.00  0.00    +0.059 C 
ATOM      3  C   UNL     1      36.500 -22.706 -16.114  0.00  0.00    +0.045 C 
ATOM      4  C   UNL     1      34.278 -23.628 -16.347  0.00  0.00    +0.015 C 
ATOM      5  C   UNL     1      35.094 -22.020 -17.954  0.00  0.00    +0.028 C 
ATOM      6  C   UNL     1      36.302 -21.941 -17.263  0.00  0.00    +0.141 C 
ATOM      7  C   UNL     1      34.081 -22.863 -17.496  0.00  0.00    +0.004 C 
ENDROOT
BRANCH   2  10
ATOM      8  O   UNL     1      36.088 -26.059 -13.085  0.00  0.00    -0.434 OA
ATOM      9  O   UNL     1      36.086 -26.512 -15.308  0.00  0.00    -0.226 OA
ATOM     10  N   UNL     1      35.689 -24.331 -14.482  0.00  0.00    -0.221 N 
ATOM     11  C   UNL     1      36.113 -24.878 -12.273  0.00  0.00    +0.210 C 
ATOM     12  C   UNL     1      35.514 -23.803 -13.155  0.00  0.00    +0.147 C 
ATOM     13  C   UNL     1      35.971 -25.693 -14.408  0.00  0.00    +0.409 C 
BRANCH  11  14
ATOM     14  C   UNL     1      37.552 -24.590 -11.869  0.00  0.00    +0.135 C 
BRANCH  14  16
ATOM     15  O   UNL     1      39.103 -24.240 -14.298  0.00  0.00    -0.275 OA
ATOM     16  N   UNL     1      38.456 -25.527 -12.467  0.00  0.00    -0.301 N 
ATOM     17  C   UNL     1      39.161 -25.275 -13.639  0.00  0.00    +0.223 C 
ATOM     18  C   UNL     1      40.058 -26.418 -14.033  0.00  0.00    +0.095 C 
ATOM     19  H   UNL     1      38.584 -26.398 -12.025  0.00  0.00    +0.150 HD
ENDBRANCH  14  16
ENDBRANCH  11  14
ENDBRANCH   2  10
BRANCH   5  20
ATOM     20  C   UNL     1      34.885 -21.229 -19.148  0.00  0.00    +0.002 C 
ATOM     21  C   UNL     1      34.482 -19.701 -21.447  0.00  0.00    -0.044 C 
ATOM     22  C   UNL     1      33.590 -20.977 -19.599  0.00  0.00    -0.000 C 
ATOM     23  C   UNL     1      35.979 -20.716 -19.846  0.00  0.00    -0.000 C 
ATOM     24  C   UNL     1      33.388 -20.212 -20.749  0.00  0.00    -0.006 C 
ATOM     25  C   UNL     1      35.778 -19.953 -20.995  0.00  0.00    -0.006 C 
BRANCH  21  26
ATOM     26  C   UNL     1      34.266 -18.884 -22.675  0.00  0.00    -0.054 C 
BRANCH  26  27
ATOM     27  N   UNL     1      35.338 -17.912 -22.895  0.00  0.00    +0.390 N 
ATOM     28  H   UNL     1      35.648 -17.968 -23.865  0.00  0.00    -0.083 HD
ATOM     29  H   UNL     1      36.110 -18.127 -22.265  0.00  0.00    -0.083 HD
BRANCH  27  30
ATOM     30  C   UNL     1      34.873 -16.562 -22.620  0.00  0.00    -0.031 C 
BRANCH  30  34
ATOM     31  N   UNL     1      33.487 -14.835 -23.725  0.00  0.00    -0.170 NA
ATOM     32  N   UNL     1      33.163 -14.621 -25.010  0.00  0.00    -0.157 N 
ATOM     33  N   UNL     1      33.642 -15.463 -25.941  0.00  0.00    -0.162 NA
ATOM     34  C   UNL     1      34.254 -15.924 -23.835  0.00  0.00    +0.077 C 
ATOM     35  C   UNL     1      34.347 -16.305 -25.181  0.00  0.00    +0.133 C 
ATOM     36  H   UNL     1      32.587 -13.864 -25.265  0.00  0.00    +0.197 HD
ENDBRANCH  30  34
ENDBRANCH  27  30
ENDBRANCH  26  27
ENDBRANCH  21  26
ENDBRANCH   5  20
TORSDOF 8
ENDMDL
MODEL 3
REMARK VINA RESULT:     -11.4      6.974     12.992
REMARK  Name = 11224409
REMARK  8 active torsions:
REMARK  status: ('A' for Active; 'I' for Inactive)
REMARK    1  A    between atoms: C_2  and  N_10
REMARK    2  A    between atoms: C_5  and  C_20
REMARK    3  A    between atoms: C_11  and  C_14
REMARK    4  A    between atoms: C_14  and  N_16
REMARK    5  A    between atoms: C_21  and  C_26
REMARK    6  A    between atoms: C_26  and  N_27
REMARK    7  A    between atoms: N_27  and  C_30
REMARK    8  A    between atoms: C_30  and  C_34
REMARK                            x       y       z     vdW  Elec       q    Type
REMARK                         _______ _______ _______ _____ _____    ______ ____
ROOT
ATOM      1  F   UNL     1      31.577 -12.855 -21.002  0.00  0.00    -0.204 F 
ATOM      2  C   UNL     1      32.107  -9.425 -22.080  0.00  0.00    +0.059 C 
ATOM      3  C   UNL     1      31.611 -10.525 -21.379  0.00  0.00    +0.045 C 
ATOM      4  C   UNL     1      33.053  -9.610 -23.088  0.00  0.00    +0.015 C 
ATOM      5  C   UNL     1      33.009 -11.993 -22.694  0.00  0.00    +0.028 C 
ATOM      6  C   UNL     1      32.062 -11.809 -21.686  0.00  0.00    +0.141 C 
ATOM      7  C   UNL     1      33.505 -10.894 -23.395  0.00  0.00    +0.004 C 
ENDROOT
BRANCH   2  10
ATOM      8  O   UNL     1      31.250  -6.169 -20.694  0.00  0.00    -0.434 OA
ATOM      9  O   UNL     1      32.488  -7.718 -19.592  0.00  0.00    -0.226 OA
ATOM     10  N   UNL     1      31.646  -8.115 -21.767  0.00  0.00    -0.221 N 
ATOM     11  C   UNL     1      30.792  -5.981 -22.040  0.00  0.00    +0.210 C 
ATOM     12  C   UNL     1      30.753  -7.378 -22.621  0.00  0.00    +0.147 C 
ATOM     13  C   UNL     1      31.874  -7.393 -20.599  0.00  0.00    +0.409 C 
BRANCH  11  14
ATOM     14  C   UNL     1      31.759  -5.056 -22.764  0.00  0.00    +0.135 C 
BRANCH  14  16
ATOM     15  O   UNL     1      33.135  -5.109 -25.321  0.00  0.00    -0.275 OA
ATOM     16  N   UNL     1      32.983  -5.732 -23.081  0.00  0.00    -0.301 N 
ATOM     17  C   UNL     1      33.574  -5.703 -24.340  0.00  0.00    +0.223 C 
ATOM     18  C   UNL     1      34.865  -6.476 -24.391  0.00  0.00    +0.095 C 
ATOM     19  H   UNL     1      33.429  -6.245 -22.368  0.00  0.00    +0.150 HD
ENDBRANCH  14  16
ENDBRANCH  11  14
ENDBRANCH   2  10
BRANCH   5  20
ATOM     20  C   UNL     1      33.479 -13.323 -23.015  0.00  0.00    +0.002 C 
ATOM     21  C   UNL     1      34.389 -15.886 -23.637  0.00  0.00    -0.044 C 
ATOM     22  C   UNL     1      33.178 -13.888 -24.254  0.00  0.00    -0.000 C 
ATOM     23  C   UNL     1      34.236 -14.040 -22.087  0.00  0.00    -0.000 C 
ATOM     24  C   UNL     1      33.634 -15.170 -24.565  0.00  0.00    -0.006 C 
ATOM     25  C   UNL     1      34.690 -15.321 -22.397  0.00  0.00    -0.006 C 
BRANCH  21  26
ATOM     26  C   UNL     1      34.875 -17.256 -23.970  0.00  0.00    -0.054 C 
BRANCH  26  27
ATOM     27  N   UNL     1      35.608 -17.873 -22.862  0.00  0.00    +0.390 N 
ATOM     28  H   UNL     1      35.816 -17.162 -22.161  0.00  0.00    -0.083 HD
ATOM     29  H   UNL     1      36.472 -18.276 -23.225  0.00  0.00    -0.083 HD
BRANCH  27  30
ATOM     30  C   UNL     1      34.819 -18.930 -22.251  0.00  0.00    -0.031 C 
BRANCH  30  34
ATOM     31  N   UNL     1      36.666 -19.023 -20.606  0.00  0.00    -0.170 NA
ATOM     32  N   UNL     1      36.915 -19.841 -19.571  0.00  0.00    -0.157 N 
ATOM     33  N   UNL     1      36.043 -20.828 -19.310  0.00  0.00    -0.162 NA
ATOM     34  C   UNL     1      35.516 -19.531 -21.059  0.00  0.00    +0.077 C 
ATOM     35  C   UNL     1      35.138 -20.628 -20.272  0.00  0.00    +0.133 C 
ATOM     36  H   UNL     1      37.720 -19.721 -19.017  0.00  0.00    +0.197 HD
ENDBRANCH  30  34
ENDBRANCH  27  30
ENDBRANCH  26  27
ENDBRANCH  21  26
ENDBRANCH   5  20
TORSDOF 8
ENDMDL
MODEL 4
REMARK VINA RESULT:     -11.2      4.372     11.508
REMARK  Name = 11224409
REMARK  8 active torsions:
REMARK  status: ('A' for Active; 'I' for Inactive)
REMARK    1  A    between atoms: C_2  and  N_10
REMARK    2  A    between atoms: C_5  and  C_20
REMARK    3  A    between atoms: C_11  and  C_14
REMARK    4  A    between atoms: C_14  and  N_16
REMARK    5  A    between atoms: C_21  and  C_26
REMARK    6  A    between atoms: C_26  and  N_27
REMARK    7  A    between atoms: N_27  and  C_30
REMARK    8  A    between atoms: C_30  and  C_34
REMARK                            x       y       z     vdW  Elec       q    Type
REMARK                         _______ _______ _______ _____ _____    ______ ____
ROOT
ATOM      1  F   UNL     1      32.502 -20.912 -19.735  0.00  0.00    -0.204 F 
ATOM      2  C   UNL     1      34.746 -19.087 -21.936  0.00  0.00    +0.059 C 
ATOM      3  C   UNL     1      33.574 -19.596 -21.377  0.00  0.00    +0.045 C 
ATOM      4  C   UNL     1      35.983 -19.413 -21.379  0.00  0.00    +0.015 C 
ATOM      5  C   UNL     1      34.875 -20.757 -19.705  0.00  0.00    +0.028 C 
ATOM      6  C   UNL     1      33.638 -20.431 -20.262  0.00  0.00    +0.141 C 
ATOM      7  C   UNL     1      36.048 -20.248 -20.264  0.00  0.00    +0.004 C 
ENDROOT
BRANCH   2  10
ATOM      8  O   UNL     1      34.310 -17.445 -25.157  0.00  0.00    -0.434 OA
ATOM      9  O   UNL     1      33.734 -19.602 -24.758  0.00  0.00    -0.226 OA
ATOM     10  N   UNL     1      34.680 -18.235 -23.075  0.00  0.00    -0.221 N 
ATOM     11  C   UNL     1      34.674 -16.310 -24.360  0.00  0.00    +0.210 C 
ATOM     12  C   UNL     1      35.238 -16.909 -23.089  0.00  0.00    +0.147 C 
ATOM     13  C   UNL     1      34.189 -18.547 -24.340  0.00  0.00    +0.409 C 
BRANCH  11  14
ATOM     14  C   UNL     1      33.435 -15.457 -24.124  0.00  0.00    +0.135 C 
BRANCH  14  16
ATOM     15  O   UNL     1      33.647 -13.107 -22.431  0.00  0.00    -0.275 OA
ATOM     16  N   UNL     1      33.652 -14.102 -24.538  0.00  0.00    -0.301 N 
ATOM     17  C   UNL     1      33.740 -13.032 -23.653  0.00  0.00    +0.223 C 
ATOM     18  C   UNL     1      33.995 -11.723 -24.352  0.00  0.00    +0.095 C 
ATOM     19  H   UNL     1      33.742 -13.919 -25.501  0.00  0.00    +0.150 HD
ENDBRANCH  14  16
ENDBRANCH  11  14
ENDBRANCH   2  10
BRANCH   5  20
ATOM     20  C   UNL     1      34.947 -21.624 -18.548  0.00  0.00    +0.002 C 
ATOM     21  C   UNL     1      35.086 -23.295 -16.320  0.00  0.00    -0.044 C 
ATOM     22  C   UNL     1      33.855 -22.421 -18.206  0.00  0.00    -0.000 C 
ATOM     23  C   UNL     1      36.109 -21.662 -17.777  0.00  0.00    -0.000 C 
ATOM     24  C   UNL     1      33.925 -23.257 -17.092  0.00  0.00    -0.006 C 
ATOM     25  C   UNL     1      36.178 -22.497 -16.662  0.00  0.00    -0.006 C 
BRANCH  21  26
ATOM     26  C   UNL     1      35.160 -24.190 -15.129  0.00  0.00    -0.054 C 
BRANCH  26  27
ATOM     27  N   UNL     1      36.502 -24.230 -14.544  0.00  0.00    +0.390 N 
ATOM     28  H   UNL     1      36.481 -23.782 -13.628  0.00  0.00    -0.083 HD
ATOM     29  H   UNL     1      37.145 -23.738 -15.164  0.00  0.00    -0.083 HD
BRANCH  27  30
ATOM     30  C   UNL     1      36.955 -25.604 -14.393  0.00  0.00    -0.031 C 
BRANCH  30  34
ATOM     31  N   UNL     1      39.073 -26.880 -14.288  0.00  0.00    -0.170 NA
ATOM     32  N   UNL     1      40.359 -26.498 -14.255  0.00  0.00    -0.157 N 
ATOM     33  N   UNL     1      40.638 -25.184 -14.279  0.00  0.00    -0.162 NA
ATOM     34  C   UNL     1      38.458 -25.695 -14.340  0.00  0.00    +0.077 C 
ATOM     35  C   UNL     1      39.408 -24.665 -14.334  0.00  0.00    +0.133 C 
ATOM     36  H   UNL     1      41.082 -27.165 -14.212  0.00  0.00    +0.197 HD
ENDBRANCH  30  34
ENDBRANCH  27  30
ENDBRANCH  26  27
ENDBRANCH  21  26
ENDBRANCH   5  20
TORSDOF 8
ENDMDL
MODEL 5
REMARK VINA RESULT:     -11.2      4.326     11.485
REMARK  Name = 11224409
REMARK  8 active torsions:
REMARK  status: ('A' for Active; 'I' for Inactive)
REMARK    1  A    between atoms: C_2  and  N_10
REMARK    2  A    between atoms: C_5  and  C_20
REMARK    3  A    between atoms: C_11  and  C_14
REMARK    4  A    between atoms: C_14  and  N_16
REMARK    5  A    between atoms: C_21  and  C_26
REMARK    6  A    between atoms: C_26  and  N_27
REMARK    7  A    between atoms: N_27  and  C_30
REMARK    8  A    between atoms: C_30  and  C_34
REMARK                            x       y       z     vdW  Elec       q    Type
REMARK                         _______ _______ _______ _____ _____    ______ ____
ROOT
ATOM      1  F   UNL     1      32.818 -21.009 -19.682  0.00  0.00    -0.204 F 
ATOM      2  C   UNL     1      34.864 -19.071 -21.976  0.00  0.00    +0.059 C 
ATOM      3  C   UNL     1      33.747 -19.656 -21.379  0.00  0.00    +0.045 C 
ATOM      4  C   UNL     1      36.134 -19.283 -21.438  0.00  0.00    +0.015 C 
ATOM      5  C   UNL     1      35.170 -20.665 -19.708  0.00  0.00    +0.028 C 
ATOM      6  C   UNL     1      33.901 -20.454 -20.245  0.00  0.00    +0.141 C 
ATOM      7  C   UNL     1      36.287 -20.080 -20.304  0.00  0.00    +0.004 C 
ENDROOT
BRANCH   2  10
ATOM      8  O   UNL     1      34.179 -17.540 -25.208  0.00  0.00    -0.434 OA
ATOM      9  O   UNL     1      33.653 -19.687 -24.698  0.00  0.00    -0.226 OA
ATOM     10  N   UNL     1      34.708 -18.258 -23.134  0.00  0.00    -0.221 N 
ATOM     11  C   UNL     1      34.591 -16.376 -24.478  0.00  0.00    +0.210 C 
ATOM     12  C   UNL     1      35.251 -16.930 -23.233  0.00  0.00    +0.147 C 
ATOM     13  C   UNL     1      34.128 -18.615 -24.349  0.00  0.00    +0.409 C 
BRANCH  11  14
ATOM     14  C   UNL     1      33.365 -15.524 -24.179  0.00  0.00    +0.135 C 
BRANCH  14  16
ATOM     15  O   UNL     1      33.514 -13.363 -22.246  0.00  0.00    -0.275 OA
ATOM     16  N   UNL     1      33.621 -14.139 -24.441  0.00  0.00    -0.301 N 
ATOM     17  C   UNL     1      33.675 -13.166 -23.448  0.00  0.00    +0.223 C 
ATOM     18  C   UNL     1      33.984 -11.797 -23.994  0.00  0.00    +0.095 C 
ATOM     19  H   UNL     1      33.767 -13.860 -25.374  0.00  0.00    +0.150 HD
ENDBRANCH  14  16
ENDBRANCH  11  14
ENDBRANCH   2  10
BRANCH   5  20
ATOM     20  C   UNL     1      35.334 -21.492 -18.531  0.00  0.00    +0.002 C 
ATOM     21  C   UNL     1      35.651 -23.087 -16.265  0.00  0.00    -0.044 C 
ATOM     22  C   UNL     1      34.276 -22.281 -18.080  0.00  0.00    -0.000 C 
ATOM     23  C   UNL     1      36.551 -21.501 -17.848  0.00  0.00    -0.000 C 
ATOM     24  C   UNL     1      34.435 -23.079 -16.947  0.00  0.00    -0.006 C 
ATOM     25  C   UNL     1      36.709 -22.297 -16.715  0.00  0.00    -0.006 C 
BRANCH  21  26
ATOM     26  C   UNL     1      35.820 -23.940 -15.053  0.00  0.00    -0.054 C 
BRANCH  26  27
ATOM     27  N   UNL     1      37.109 -24.633 -15.034  0.00  0.00    +0.390 N 
ATOM     28  H   UNL     1      37.854 -23.952 -14.886  0.00  0.00    -0.083 HD
ATOM     29  H   UNL     1      37.239 -25.110 -15.926  0.00  0.00    -0.083 HD
BRANCH  27  30
ATOM     30  C   UNL     1      37.146 -25.620 -13.967  0.00  0.00    -0.031 C 
BRANCH  30  34
ATOM     31  N   UNL     1      38.363 -24.225 -12.324  0.00  0.00    -0.170 NA
ATOM     32  N   UNL     1      38.088 -23.870 -11.059  0.00  0.00    -0.157 N 
ATOM     33  N   UNL     1      36.951 -24.319 -10.500  0.00  0.00    -0.162 NA
ATOM     34  C   UNL     1      37.297 -24.977 -12.614  0.00  0.00    +0.077 C 
ATOM     35  C   UNL     1      36.440 -25.035 -11.506  0.00  0.00    +0.133 C 
ATOM     36  H   UNL     1      38.705 -23.295 -10.552  0.00  0.00    +0.197 HD
ENDBRANCH  30  34
ENDBRANCH  27  30
ENDBRANCH  26  27
ENDBRANCH  21  26
ENDBRANCH   5  20
TORSDOF 8
ENDMDL
MODEL 6
REMARK VINA RESULT:     -11.1      7.515     13.400
REMARK  Name = 11224409
REMARK  8 active torsions:
REMARK  status: ('A' for Active; 'I' for Inactive)
REMARK    1  A    between atoms: C_2  and  N_10
REMARK    2  A    between atoms: C_5  and  C_20
REMARK    3  A    between atoms: C_11  and  C_14
REMARK    4  A    between atoms: C_14  and  N_16
REMARK    5  A    between atoms: C_21  and  C_26
REMARK    6  A    between atoms: C_26  and  N_27
REMARK    7  A    between atoms: N_27  and  C_30
REMARK    8  A    between atoms: C_30  and  C_34
REMARK                            x       y       z     vdW  Elec       q    Type
REMARK                         _______ _______ _______ _____ _____    ______ ____
ROOT
ATOM      1  F   UNL     1      34.508 -11.056 -24.298  0.00  0.00    -0.204 F 
ATOM      2  C   UNL     1      32.144  -9.394 -22.093  0.00  0.00    +0.059 C 
ATOM      3  C   UNL     1      33.130  -9.591 -23.061  0.00  0.00    +0.045 C 
ATOM      4  C   UNL     1      31.587 -10.489 -21.432  0.00  0.00    +0.015 C 
ATOM      5  C   UNL     1      33.003 -11.977 -22.704  0.00  0.00    +0.028 C 
ATOM      6  C   UNL     1      33.560 -10.883 -23.365  0.00  0.00    +0.141 C 
ATOM      7  C   UNL     1      32.017 -11.781 -21.737  0.00  0.00    +0.004 C 
ENDROOT
BRANCH   2  10
ATOM      8  O   UNL     1      31.275  -6.151 -20.684  0.00  0.00    -0.434 OA
ATOM      9  O   UNL     1      32.319  -7.791 -19.514  0.00  0.00    -0.226 OA
ATOM     10  N   UNL     1      31.706  -8.076 -21.782  0.00  0.00    -0.221 N 
ATOM     11  C   UNL     1      30.975  -5.897 -22.063  0.00  0.00    +0.210 C 
ATOM     12  C   UNL     1      30.944  -7.271 -22.699  0.00  0.00    +0.147 C 
ATOM     13  C   UNL     1      31.834  -7.404 -20.569  0.00  0.00    +0.409 C 
BRANCH  11  14
ATOM     14  C   UNL     1      32.054  -4.993 -22.642  0.00  0.00    +0.135 C 
BRANCH  14  16
ATOM     15  O   UNL     1      30.132  -2.829 -22.411  0.00  0.00    -0.275 OA
ATOM     16  N   UNL     1      31.534  -4.175 -23.697  0.00  0.00    -0.301 N 
ATOM     17  C   UNL     1      30.610  -3.154 -23.495  0.00  0.00    +0.223 C 
ATOM     18  C   UNL     1      30.251  -2.437 -24.769  0.00  0.00    +0.095 C 
ATOM     19  H   UNL     1      31.847  -4.345 -24.615  0.00  0.00    +0.150 HD
ENDBRANCH  14  16
ENDBRANCH  11  14
ENDBRANCH   2  10
BRANCH   5  20
ATOM     20  C   UNL     1      33.446 -13.319 -23.017  0.00  0.00    +0.002 C 
ATOM     21  C   UNL     1      34.302 -15.904 -23.621  0.00  0.00    -0.044 C 
ATOM     22  C   UNL     1      33.117 -13.893 -24.244  0.00  0.00    -0.000 C 
ATOM     23  C   UNL     1      34.203 -14.038 -22.091  0.00  0.00    -0.000 C 
ATOM     24  C   UNL     1      33.546 -15.186 -24.547  0.00  0.00    -0.006 C 
ATOM     25  C   UNL     1      34.630 -15.330 -22.393  0.00  0.00    -0.006 C 
BRANCH  21  26
ATOM     26  C   UNL     1      34.760 -17.286 -23.945  0.00  0.00    -0.054 C 
BRANCH  26  27
ATOM     27  N   UNL     1      35.543 -17.883 -22.862  0.00  0.00    +0.390 N 
ATOM     28  H   UNL     1      35.712 -17.179 -22.143  0.00  0.00    -0.083 HD
ATOM     29  H   UNL     1      36.427 -18.219 -23.243  0.00  0.00    -0.083 HD
BRANCH  27  30
ATOM     30  C   UNL     1      34.831 -19.006 -22.272  0.00  0.00    -0.031 C 
BRANCH  30  34
ATOM     31  N   UNL     1      36.699 -19.017 -20.648  0.00  0.00    -0.170 NA
ATOM     32  N   UNL     1      36.970 -19.793 -19.587  0.00  0.00    -0.157 N 
ATOM     33  N   UNL     1      36.113 -20.780 -19.279  0.00  0.00    -0.162 NA
ATOM     34  C   UNL     1      35.549 -19.555 -21.068  0.00  0.00    +0.077 C 
ATOM     35  C   UNL     1      35.194 -20.626 -20.236  0.00  0.00    +0.133 C 
ATOM     36  H   UNL     1      37.780 -19.643 -19.048  0.00  0.00    +0.197 HD
ENDBRANCH  30  34
ENDBRANCH  27  30
ENDBRANCH  26  27
ENDBRANCH  21  26
ENDBRANCH   5  20
TORSDOF 8
ENDMDL
MODEL 7
REMARK VINA RESULT:     -10.9      1.877      2.769
REMARK  Name = 11224409
REMARK  8 active torsions:
REMARK  status: ('A' for Active; 'I' for Inactive)
REMARK    1  A    between atoms: C_2  and  N_10
REMARK    2  A    between atoms: C_5  and  C_20
REMARK    3  A    between atoms: C_11  and  C_14
REMARK    4  A    between atoms: C_14  and  N_16
REMARK    5  A    between atoms: C_21  and  C_26
REMARK    6  A    between atoms: C_26  and  N_27
REMARK    7  A    between atoms: N_27  and  C_30
REMARK    8  A    between atoms: C_30  and  C_34
REMARK                            x       y       z     vdW  Elec       q    Type
REMARK                         _______ _______ _______ _____ _____    ______ ____
ROOT
ATOM      1  F   UNL     1      33.286 -21.948 -19.044  0.00  0.00    -0.204 F 
ATOM      2  C   UNL     1      35.745 -22.817 -16.513  0.00  0.00    +0.059 C 
ATOM      3  C   UNL     1      34.547 -22.772 -17.225  0.00  0.00    +0.045 C 
ATOM      4  C   UNL     1      36.842 -22.071 -16.945  0.00  0.00    +0.015 C 
ATOM      5  C   UNL     1      35.541 -21.235 -18.802  0.00  0.00    +0.028 C 
ATOM      6  C   UNL     1      34.445 -21.981 -18.370  0.00  0.00    +0.141 C 
ATOM      7  C   UNL     1      36.741 -21.280 -18.090  0.00  0.00    +0.004 C 
ENDROOT
BRANCH   2  10
ATOM      8  O   UNL     1      36.606 -24.574 -13.442  0.00  0.00    -0.434 OA
ATOM      9  O   UNL     1      37.942 -23.024 -14.419  0.00  0.00    -0.226 OA
ATOM     10  N   UNL     1      35.849 -23.624 -15.345  0.00  0.00    -0.221 N 
ATOM     11  C   UNL     1      35.244 -25.001 -13.585  0.00  0.00    +0.210 C 
ATOM     12  C   UNL     1      34.885 -24.638 -15.010  0.00  0.00    +0.147 C 
ATOM     13  C   UNL     1      36.893 -23.653 -14.423  0.00  0.00    +0.409 C 
BRANCH  11  14
ATOM     14  C   UNL     1      34.392 -24.280 -12.549  0.00  0.00    +0.135 C 
BRANCH  14  16
ATOM     15  O   UNL     1      31.631 -25.157 -12.736  0.00  0.00    -0.275 OA
ATOM     16  N   UNL     1      33.299 -23.589 -13.168  0.00  0.00    -0.301 N 
ATOM     17  C   UNL     1      32.001 -24.087 -13.211  0.00  0.00    +0.223 C 
ATOM     18  C   UNL     1      31.044 -23.149 -13.898  0.00  0.00    +0.095 C 
ATOM     19  H   UNL     1      33.477 -22.715 -13.585  0.00  0.00    +0.150 HD
ENDBRANCH  14  16
ENDBRANCH  11  14
ENDBRANCH   2  10
BRANCH   5  20
ATOM     20  C   UNL     1      35.440 -20.413 -19.988  0.00  0.00    +0.002 C 
ATOM     21  C   UNL     1      35.245 -18.826 -22.274  0.00  0.00    -0.044 C 
ATOM     22  C   UNL     1      34.209 -20.251 -20.622  0.00  0.00    -0.000 C 
ATOM     23  C   UNL     1      36.575 -19.780 -20.498  0.00  0.00    -0.000 C 
ATOM     24  C   UNL     1      34.111 -19.457 -21.764  0.00  0.00    -0.006 C 
ATOM     25  C   UNL     1      36.478 -18.988 -21.641  0.00  0.00    -0.006 C 
BRANCH  21  26
ATOM     26  C   UNL     1      35.140 -17.977 -23.496  0.00  0.00    -0.054 C 
BRANCH  26  27
ATOM     27  N   UNL     1      35.656 -16.624 -23.281  0.00  0.00    +0.390 N 
ATOM     28  H   UNL     1      35.897 -16.210 -24.182  0.00  0.00    -0.083 HD
ATOM     29  H   UNL     1      36.482 -16.679 -22.686  0.00  0.00    -0.083 HD
BRANCH  27  30
ATOM     30  C   UNL     1      34.660 -15.792 -22.624  0.00  0.00    -0.031 C 
BRANCH  30  34
ATOM     31  N   UNL     1      34.248 -13.433 -23.246  0.00  0.00    -0.170 NA
ATOM     32  N   UNL     1      33.648 -12.868 -24.306  0.00  0.00    -0.157 N 
ATOM     33  N   UNL     1      33.146 -13.669 -25.260  0.00  0.00    -0.162 NA
ATOM     34  C   UNL     1      34.122 -14.729 -23.545  0.00  0.00    +0.077 C 
ATOM     35  C   UNL     1      33.452 -14.873 -24.768  0.00  0.00    +0.133 C 
ATOM     36  H   UNL     1      33.577 -11.889 -24.382  0.00  0.00    +0.197 HD
ENDBRANCH  30  34
ENDBRANCH  27  30
ENDBRANCH  26  27
ENDBRANCH  21  26
ENDBRANCH   5  20
TORSDOF 8
ENDMDL
MODEL 8
REMARK VINA RESULT:     -10.7      2.546      3.817
REMARK  Name = 11224409
REMARK  8 active torsions:
REMARK  status: ('A' for Active; 'I' for Inactive)
REMARK    1  A    between atoms: C_2  and  N_10
REMARK    2  A    between atoms: C_5  and  C_20
REMARK    3  A    between atoms: C_11  and  C_14
REMARK    4  A    between atoms: C_14  and  N_16
REMARK    5  A    between atoms: C_21  and  C_26
REMARK    6  A    between atoms: C_26  and  N_27
REMARK    7  A    between atoms: N_27  and  C_30
REMARK    8  A    between atoms: C_30  and  C_34
REMARK                            x       y       z     vdW  Elec       q    Type
REMARK                         _______ _______ _______ _____ _____    ______ ____
ROOT
ATOM      1  F   UNL     1      32.878 -21.428 -19.635  0.00  0.00    -0.204 F 
ATOM      2  C   UNL     1      35.223 -22.553 -17.097  0.00  0.00    +0.059 C 
ATOM      3  C   UNL     1      34.040 -22.386 -17.817  0.00  0.00    +0.045 C 
ATOM      4  C   UNL     1      36.390 -21.912 -17.515  0.00  0.00    +0.015 C 
ATOM      5  C   UNL     1      35.189 -20.938 -19.372  0.00  0.00    +0.028 C 
ATOM      6  C   UNL     1      34.023 -21.578 -18.954  0.00  0.00    +0.141 C 
ATOM      7  C   UNL     1      36.373 -21.105 -18.653  0.00  0.00    +0.004 C 
ENDROOT
BRANCH   2  10
ATOM      8  O   UNL     1      34.608 -24.742 -14.253  0.00  0.00    -0.434 OA
ATOM      9  O   UNL     1      32.999 -24.106 -15.721  0.00  0.00    -0.226 OA
ATOM     10  N   UNL     1      35.240 -23.377 -15.936  0.00  0.00    -0.221 N 
ATOM     11  C   UNL     1      36.040 -24.686 -14.203  0.00  0.00    +0.210 C 
ATOM     12  C   UNL     1      36.401 -23.521 -15.100  0.00  0.00    +0.147 C 
ATOM     13  C   UNL     1      34.170 -24.067 -15.371  0.00  0.00    +0.409 C 
BRANCH  11  14
ATOM     14  C   UNL     1      36.600 -26.015 -14.690  0.00  0.00    +0.135 C 
BRANCH  14  16
ATOM     15  O   UNL     1      38.750 -26.172 -12.744  0.00  0.00    -0.275 OA
ATOM     16  N   UNL     1      38.009 -25.923 -14.939  0.00  0.00    -0.301 N 
ATOM     17  C   UNL     1      38.974 -26.009 -13.940  0.00  0.00    +0.223 C 
ATOM     18  C   UNL     1      40.375 -25.906 -14.480  0.00  0.00    +0.095 C 
ATOM     19  H   UNL     1      38.309 -25.791 -15.867  0.00  0.00    +0.150 HD
ENDBRANCH  14  16
ENDBRANCH  11  14
ENDBRANCH   2  10
BRANCH   5  20
ATOM     20  C   UNL     1      35.177 -20.099 -20.551  0.00  0.00    +0.002 C 
ATOM     21  C   UNL     1      35.151 -18.480 -22.822  0.00  0.00    -0.044 C 
ATOM     22  C   UNL     1      34.052 -20.071 -21.375  0.00  0.00    -0.000 C 
ATOM     23  C   UNL     1      36.289 -19.316 -20.863  0.00  0.00    -0.000 C 
ATOM     24  C   UNL     1      34.039 -19.261 -22.510  0.00  0.00    -0.006 C 
ATOM     25  C   UNL     1      36.277 -18.508 -21.998  0.00  0.00    -0.006 C 
BRANCH  21  26
ATOM     26  C   UNL     1      35.137 -17.614 -24.036  0.00  0.00    -0.054 C 
BRANCH  26  27
ATOM     27  N   UNL     1      35.460 -16.219 -23.731  0.00  0.00    +0.390 N 
ATOM     28  H   UNL     1      35.717 -15.738 -24.593  0.00  0.00    -0.083 HD
ATOM     29  H   UNL     1      36.237 -16.199 -23.070  0.00  0.00    -0.083 HD
BRANCH  27  30
ATOM     30  C   UNL     1      34.319 -15.547 -23.131  0.00  0.00    -0.031 C 
BRANCH  30  34
ATOM     31  N   UNL     1      34.217 -13.077 -23.266  0.00  0.00    -0.170 NA
ATOM     32  N   UNL     1      33.787 -12.241 -24.223  0.00  0.00    -0.157 N 
ATOM     33  N   UNL     1      33.300 -12.764 -25.361  0.00  0.00    -0.162 NA
ATOM     34  C   UNL     1      33.988 -14.261 -23.842  0.00  0.00    +0.077 C 
ATOM     35  C   UNL     1      33.430 -14.071 -25.114  0.00  0.00    +0.133 C 
ATOM     36  H   UNL     1      33.825 -11.266 -24.094  0.00  0.00    +0.197 HD
ENDBRANCH  30  34
ENDBRANCH  27  30
ENDBRANCH  26  27
ENDBRANCH  21  26
ENDBRANCH   5  20
TORSDOF 8
ENDMDL
MODEL 9
REMARK VINA RESULT:     -10.7      3.831     10.661
REMARK  Name = 11224409
REMARK  8 active torsions:
REMARK  status: ('A' for Active; 'I' for Inactive)
REMARK    1  A    between atoms: C_2  and  N_10
REMARK    2  A    between atoms: C_5  and  C_20
REMARK    3  A    between atoms: C_11  and  C_14
REMARK    4  A    between atoms: C_14  and  N_16
REMARK    5  A    between atoms: C_21  and  C_26
REMARK    6  A    between atoms: C_26  and  N_27
REMARK    7  A    between atoms: N_27  and  C_30
REMARK    8  A    between atoms: C_30  and  C_34
REMARK                            x       y       z     vdW  Elec       q    Type
REMARK                         _______ _______ _______ _____ _____    ______ ____
ROOT
ATOM      1  F   UNL     1      32.390 -20.872 -19.831  0.00  0.00    -0.204 F 
ATOM      2  C   UNL     1      34.666 -19.088 -22.032  0.00  0.00    +0.059 C 
ATOM      3  C   UNL     1      33.485 -19.584 -21.479  0.00  0.00    +0.045 C 
ATOM      4  C   UNL     1      35.895 -19.411 -21.456  0.00  0.00    +0.015 C 
ATOM      5  C   UNL     1      34.762 -20.725 -19.775  0.00  0.00    +0.028 C 
ATOM      6  C   UNL     1      33.534 -20.403 -20.351  0.00  0.00    +0.141 C 
ATOM      7  C   UNL     1      35.943 -20.229 -20.327  0.00  0.00    +0.004 C 
ENDROOT
BRANCH   2  10
ATOM      8  O   UNL     1      34.110 -17.414 -25.217  0.00  0.00    -0.434 OA
ATOM      9  O   UNL     1      33.126 -19.375 -24.640  0.00  0.00    -0.226 OA
ATOM     10  N   UNL     1      34.616 -18.253 -23.184  0.00  0.00    -0.221 N 
ATOM     11  C   UNL     1      34.847 -16.390 -24.538  0.00  0.00    +0.210 C 
ATOM     12  C   UNL     1      35.454 -17.094 -23.343  0.00  0.00    +0.147 C 
ATOM     13  C   UNL     1      33.871 -18.451 -24.344  0.00  0.00    +0.409 C 
BRANCH  11  14
ATOM     14  C   UNL     1      33.891 -15.270 -24.153  0.00  0.00    +0.135 C 
BRANCH  14  16
ATOM     15  O   UNL     1      33.095 -12.870 -22.724  0.00  0.00    -0.275 OA
ATOM     16  N   UNL     1      33.878 -15.065 -22.734  0.00  0.00    -0.301 N 
ATOM     17  C   UNL     1      33.479 -13.876 -22.132  0.00  0.00    +0.223 C 
ATOM     18  C   UNL     1      33.538 -13.940 -20.629  0.00  0.00    +0.095 C 
ATOM     19  H   UNL     1      34.167 -15.807 -22.154  0.00  0.00    +0.150 HD
ENDBRANCH  14  16
ENDBRANCH  11  14
ENDBRANCH   2  10
BRANCH   5  20
ATOM     20  C   UNL     1      34.817 -21.575 -18.605  0.00  0.00    +0.002 C 
ATOM     21  C   UNL     1      34.924 -23.213 -16.350  0.00  0.00    -0.044 C 
ATOM     22  C   UNL     1      33.683 -22.276 -18.198  0.00  0.00    -0.000 C 
ATOM     23  C   UNL     1      36.006 -21.693 -17.884  0.00  0.00    -0.000 C 
ATOM     24  C   UNL     1      33.736 -23.096 -17.071  0.00  0.00    -0.006 C 
ATOM     25  C   UNL     1      36.059 -22.512 -16.756  0.00  0.00    -0.006 C 
BRANCH  21  26
ATOM     26  C   UNL     1      34.981 -24.091 -15.145  0.00  0.00    -0.054 C 
BRANCH  26  27
ATOM     27  N   UNL     1      34.376 -23.463 -13.969  0.00  0.00    +0.390 N 
ATOM     28  H   UNL     1      33.879 -22.620 -14.257  0.00  0.00    -0.083 HD
ATOM     29  H   UNL     1      35.115 -23.228 -13.306  0.00  0.00    -0.083 HD
BRANCH  27  30
ATOM     30  C   UNL     1      33.442 -24.372 -13.324  0.00  0.00    -0.031 C 
BRANCH  30  34
ATOM     31  N   UNL     1      31.656 -22.870 -14.149  0.00  0.00    -0.170 NA
ATOM     32  N   UNL     1      30.347 -23.060 -14.375  0.00  0.00    -0.157 N 
ATOM     33  N   UNL     1      29.824 -24.273 -14.131  0.00  0.00    -0.162 NA
ATOM     34  C   UNL     1      32.017 -24.081 -13.716  0.00  0.00    +0.077 C 
ATOM     35  C   UNL     1      30.904 -24.933 -13.705  0.00  0.00    +0.133 C 
ATOM     36  H   UNL     1      29.782 -22.327 -14.711  0.00  0.00    +0.197 HD
ENDBRANCH  30  34
ENDBRANCH  27  30
ENDBRANCH  26  27
ENDBRANCH  21  26
ENDBRANCH   5  20
TORSDOF 8
ENDMDL
