MODEL 1
REMARK VINA RESULT:     -12.0      0.000      0.000
REMARK  Name = 24821094
REMARK  5 active torsions:
REMARK  status: ('A' for Active; 'I' for Inactive)
REMARK    1  A    between atoms: N_1  and  C_12
REMARK    2  A    between atoms: C_7  and  C_20
REMARK    3  A    between atoms: C_17  and  C_18
REMARK    4  A    between atoms: C_25  and  O_26
REMARK    5  A    between atoms: O_26  and  C_27
REMARK                            x       y       z     vdW  Elec       q    Type
REMARK                         _______ _______ _______ _____ _____    ______ ____
ROOT
ATOM      1  N   UNL     1      33.887 -14.641 -22.186  0.00  0.00    -0.198 N 
ATOM      2  N   UNL     1      34.368 -15.543 -21.310  0.00  0.00    -0.181 NA
ATOM      3  N   UNL     1      33.400 -14.430 -24.547  0.00  0.00    -0.231 NA
ATOM      4  N   UNL     1      33.932 -16.476 -25.764  0.00  0.00    -0.234 NA
ATOM      5  C   UNL     1      33.832 -15.100 -23.468  0.00  0.00    +0.137 C 
ATOM      6  C   UNL     1      34.310 -16.399 -23.429  0.00  0.00    +0.150 C 
ATOM      7  C   UNL     1      34.623 -16.611 -22.074  0.00  0.00    +0.090 C 
ATOM      8  C   UNL     1      34.352 -17.092 -24.634  0.00  0.00    +0.112 C 
ATOM      9  C   UNL     1      33.488 -15.202 -25.653  0.00  0.00    +0.252 C 
ATOM     10  N   UNL     1      34.820 -18.418 -24.697  0.00  0.00    -0.346 N 
ATOM     11  H   UNL     1      34.842 -18.891 -25.560  0.00  0.00    +0.143 HD
ATOM     12  H   UNL     1      35.126 -18.872 -23.878  0.00  0.00    +0.143 HD
ENDROOT
BRANCH   1  15
ATOM     13  O   UNL     1      32.814  -8.723 -22.228  0.00  0.00    -0.270 OA
ATOM     14  N   UNL     1      32.620 -11.038 -22.313  0.00  0.00    -0.274 N 
ATOM     15  C   UNL     1      33.475 -13.267 -21.692  0.00  0.00    +0.117 C 
ATOM     16  C   UNL     1      32.400 -13.352 -20.592  0.00  0.00    +0.025 C 
ATOM     17  C   UNL     1      32.997 -12.359 -22.839  0.00  0.00    +0.115 C 
ATOM     18  C   UNL     1      31.975 -11.956 -20.127  0.00  0.00    +0.023 C 
ATOM     19  C   UNL     1      31.557 -11.080 -21.306  0.00  0.00    +0.094 C 
ATOM     20  C   UNL     1      33.162  -9.812 -22.686  0.00  0.00    +0.249 C 
BRANCH  20  21
ATOM     21  C   UNL     1      34.237  -9.814 -23.698  0.00  0.00    +0.058 C 
ATOM     22  C   UNL     1      35.071  -8.775 -23.755  0.00  0.00    +0.005 C 
ENDBRANCH  20  21
ENDBRANCH   1  15
BRANCH   7  23
ATOM     23  C   UNL     1      35.161 -17.808 -21.476  0.00  0.00    +0.016 C 
ATOM     24  C   UNL     1      36.528 -17.903 -21.218  0.00  0.00    +0.004 C 
ATOM     25  C   UNL     1      34.315 -18.868 -21.153  0.00  0.00    +0.004 C 
ATOM     26  C   UNL     1      37.049 -19.060 -20.639  0.00  0.00    +0.038 C 
ATOM     27  C   UNL     1      34.835 -20.025 -20.573  0.00  0.00    +0.038 C 
ATOM     28  C   UNL     1      36.203 -20.121 -20.316  0.00  0.00    +0.145 C 
BRANCH  28  29
ATOM     29  O   UNL     1      36.711 -21.251 -19.754  0.00  0.00    -0.453 OA
BRANCH  29  30
ATOM     30  C   UNL     1      36.079 -21.751 -18.628  0.00  0.00    +0.145 C 
ATOM     31  C   UNL     1      36.752 -21.779 -17.406  0.00  0.00    +0.037 C 
ATOM     32  C   UNL     1      34.771 -22.227 -18.715  0.00  0.00    +0.037 C 
ATOM     33  C   UNL     1      36.115 -22.284 -16.271  0.00  0.00    +0.003 C 
ATOM     34  C   UNL     1      34.134 -22.730 -17.581  0.00  0.00    +0.003 C 
ATOM     35  C   UNL     1      34.807 -22.759 -16.359  0.00  0.00    +0.000 C 
ENDBRANCH  29  30
ENDBRANCH  28  29
ENDBRANCH   7  23
TORSDOF 5
ENDMDL
MODEL 2
REMARK VINA RESULT:     -11.5      1.422      2.251
REMARK  Name = 24821094
REMARK  5 active torsions:
REMARK  status: ('A' for Active; 'I' for Inactive)
REMARK    1  A    between atoms: N_1  and  C_12
REMARK    2  A    between atoms: C_7  and  C_20
REMARK    3  A    between atoms: C_17  and  C_18
REMARK    4  A    between atoms: C_25  and  O_26
REMARK    5  A    between atoms: O_26  and  C_27
REMARK                            x       y       z     vdW  Elec       q    Type
REMARK                         _______ _______ _______ _____ _____    ______ ____
ROOT
ATOM      1  N   UNL     1      33.506 -12.941 -22.773  0.00  0.00    -0.198 N 
ATOM      2  N   UNL     1      33.943 -13.936 -21.979  0.00  0.00    -0.181 NA
ATOM      3  N   UNL     1      33.104 -12.481 -25.115  0.00  0.00    -0.231 NA
ATOM      4  N   UNL     1      33.648 -14.401 -26.517  0.00  0.00    -0.234 NA
ATOM      5  C   UNL     1      33.488 -13.266 -24.096  0.00  0.00    +0.137 C 
ATOM      6  C   UNL     1      33.946 -14.569 -24.175  0.00  0.00    +0.150 C 
ATOM      7  C   UNL     1      34.209 -14.925 -22.839  0.00  0.00    +0.090 C 
ATOM      8  C   UNL     1      34.020 -15.137 -25.443  0.00  0.00    +0.112 C 
ATOM      9  C   UNL     1      33.219 -13.137 -26.291  0.00  0.00    +0.252 C 
ATOM     10  N   UNL     1      34.471 -16.457 -25.626  0.00  0.00    -0.346 N 
ATOM     11  H   UNL     1      34.515 -16.840 -26.532  0.00  0.00    +0.143 HD
ATOM     12  H   UNL     1      34.741 -16.998 -24.849  0.00  0.00    +0.143 HD
ENDROOT
BRANCH   1  15
ATOM     13  O   UNL     1      33.003  -6.998 -21.993  0.00  0.00    -0.270 OA
ATOM     14  N   UNL     1      32.639  -9.226 -22.549  0.00  0.00    -0.274 N 
ATOM     15  C   UNL     1      33.097 -11.617 -22.155  0.00  0.00    +0.117 C 
ATOM     16  C   UNL     1      31.760 -11.728 -21.395  0.00  0.00    +0.025 C 
ATOM     17  C   UNL     1      33.028 -10.488 -23.197  0.00  0.00    +0.115 C 
ATOM     18  C   UNL     1      31.349 -10.377 -20.804  0.00  0.00    +0.023 C 
ATOM     19  C   UNL     1      31.344  -9.281 -21.867  0.00  0.00    +0.094 C 
ATOM     20  C   UNL     1      33.367  -8.039 -22.541  0.00  0.00    +0.249 C 
BRANCH  20  21
ATOM     21  C   UNL     1      34.671  -8.028 -23.234  0.00  0.00    +0.058 C 
ATOM     22  C   UNL     1      35.093  -6.893 -23.794  0.00  0.00    +0.005 C 
ENDBRANCH  20  21
ENDBRANCH   1  15
BRANCH   7  23
ATOM     23  C   UNL     1      34.708 -16.186 -22.350  0.00  0.00    +0.016 C 
ATOM     24  C   UNL     1      34.999 -17.215 -23.245  0.00  0.00    +0.004 C 
ATOM     25  C   UNL     1      34.903 -16.375 -20.982  0.00  0.00    +0.004 C 
ATOM     26  C   UNL     1      35.483 -18.434 -22.772  0.00  0.00    +0.038 C 
ATOM     27  C   UNL     1      35.388 -17.595 -20.508  0.00  0.00    +0.038 C 
ATOM     28  C   UNL     1      35.677 -18.624 -21.404  0.00  0.00    +0.145 C 
BRANCH  28  29
ATOM     29  O   UNL     1      36.147 -19.815 -20.942  0.00  0.00    -0.453 OA
BRANCH  29  30
ATOM     30  C   UNL     1      35.306 -20.574 -20.145  0.00  0.00    +0.145 C 
ATOM     31  C   UNL     1      33.923 -20.479 -20.303  0.00  0.00    +0.037 C 
ATOM     32  C   UNL     1      35.841 -21.433 -19.184  0.00  0.00    +0.037 C 
ATOM     33  C   UNL     1      33.075 -21.243 -19.500  0.00  0.00    +0.003 C 
ATOM     34  C   UNL     1      34.994 -22.196 -18.382  0.00  0.00    +0.003 C 
ATOM     35  C   UNL     1      33.611 -22.101 -18.540  0.00  0.00    +0.000 C 
ENDBRANCH  29  30
ENDBRANCH  28  29
ENDBRANCH   7  23
TORSDOF 5
ENDMDL
MODEL 3
REMARK VINA RESULT:     -11.3      2.920      5.658
REMARK  Name = 24821094
REMARK  5 active torsions:
REMARK  status: ('A' for Active; 'I' for Inactive)
REMARK    1  A    between atoms: N_1  and  C_12
REMARK    2  A    between atoms: C_7  and  C_20
REMARK    3  A    between atoms: C_17  and  C_18
REMARK    4  A    between atoms: C_25  and  O_26
REMARK    5  A    between atoms: O_26  and  C_27
REMARK                            x       y       z     vdW  Elec       q    Type
REMARK                         _______ _______ _______ _____ _____    ______ ____
ROOT
ATOM      1  N   UNL     1      33.124 -10.243 -22.863  0.00  0.00    -0.198 N 
ATOM      2  N   UNL     1      33.693 -11.327 -23.421  0.00  0.00    -0.181 NA
ATOM      3  N   UNL     1      31.723  -9.650 -20.980  0.00  0.00    -0.231 NA
ATOM      4  N   UNL     1      31.132 -11.604 -19.645  0.00  0.00    -0.234 NA
ATOM      5  C   UNL     1      32.398 -10.523 -21.744  0.00  0.00    +0.137 C 
ATOM      6  C   UNL     1      32.500 -11.890 -21.555  0.00  0.00    +0.150 C 
ATOM      7  C   UNL     1      33.309 -12.327 -22.620  0.00  0.00    +0.090 C 
ATOM      8  C   UNL     1      31.833 -12.428 -20.459  0.00  0.00    +0.112 C 
ATOM      9  C   UNL     1      31.119 -10.285 -19.951  0.00  0.00    +0.252 C 
ATOM     10  N   UNL     1      31.878 -13.807 -20.182  0.00  0.00    -0.346 N 
ATOM     11  H   UNL     1      31.400 -14.167 -19.399  0.00  0.00    +0.143 HD
ATOM     12  H   UNL     1      32.388 -14.411 -20.768  0.00  0.00    +0.143 HD
ENDROOT
BRANCH   1  15
ATOM     13  O   UNL     1      32.450  -4.363 -23.936  0.00  0.00    -0.270 OA
ATOM     14  N   UNL     1      33.194  -6.437 -23.193  0.00  0.00    -0.274 N 
ATOM     15  C   UNL     1      33.330  -8.881 -23.497  0.00  0.00    +0.117 C 
ATOM     16  C   UNL     1      34.761  -8.714 -24.044  0.00  0.00    +0.025 C 
ATOM     17  C   UNL     1      32.990  -7.734 -22.529  0.00  0.00    +0.115 C 
ATOM     18  C   UNL     1      34.959  -7.324 -24.653  0.00  0.00    +0.023 C 
ATOM     19  C   UNL     1      34.561  -6.223 -23.673  0.00  0.00    +0.094 C 
ATOM     20  C   UNL     1      32.239  -5.443 -23.382  0.00  0.00    +0.249 C 
BRANCH  20  21
ATOM     21  C   UNL     1      30.871  -5.702 -22.890  0.00  0.00    +0.058 C 
ATOM     22  C   UNL     1      30.474  -5.123 -21.755  0.00  0.00    +0.005 C 
ENDBRANCH  20  21
ENDBRANCH   1  15
BRANCH   7  23
ATOM     23  C   UNL     1      33.733 -13.676 -22.903  0.00  0.00    +0.016 C 
ATOM     24  C   UNL     1      33.399 -14.271 -24.119  0.00  0.00    +0.004 C 
ATOM     25  C   UNL     1      34.480 -14.384 -21.961  0.00  0.00    +0.004 C 
ATOM     26  C   UNL     1      33.810 -15.575 -24.393  0.00  0.00    +0.038 C 
ATOM     27  C   UNL     1      34.892 -15.689 -22.236  0.00  0.00    +0.038 C 
ATOM     28  C   UNL     1      34.556 -16.284 -23.451  0.00  0.00    +0.145 C 
BRANCH  28  29
ATOM     29  O   UNL     1      34.954 -17.558 -23.718  0.00  0.00    -0.453 OA
BRANCH  29  30
ATOM     30  C   UNL     1      35.225 -18.386 -22.642  0.00  0.00    +0.145 C 
ATOM     31  C   UNL     1      34.212 -19.178 -22.099  0.00  0.00    +0.037 C 
ATOM     32  C   UNL     1      36.509 -18.430 -22.099  0.00  0.00    +0.037 C 
ATOM     33  C   UNL     1      34.484 -20.012 -21.014  0.00  0.00    +0.003 C 
ATOM     34  C   UNL     1      36.782 -19.264 -21.016  0.00  0.00    +0.003 C 
ATOM     35  C   UNL     1      35.769 -20.054 -20.473  0.00  0.00    +0.000 C 
ENDBRANCH  29  30
ENDBRANCH  28  29
ENDBRANCH   7  23
TORSDOF 5
ENDMDL
MODEL 4
REMARK VINA RESULT:     -11.0      5.033     11.682
REMARK  Name = 24821094
REMARK  5 active torsions:
REMARK  status: ('A' for Active; 'I' for Inactive)
REMARK    1  A    between atoms: N_1  and  C_12
REMARK    2  A    between atoms: C_7  and  C_20
REMARK    3  A    between atoms: C_17  and  C_18
REMARK    4  A    between atoms: C_25  and  O_26
REMARK    5  A    between atoms: O_26  and  C_27
REMARK                            x       y       z     vdW  Elec       q    Type
REMARK                         _______ _______ _______ _____ _____    ______ ____
ROOT
ATOM      1  N   UNL     1      36.015 -22.921 -16.176  0.00  0.00    -0.198 N 
ATOM      2  N   UNL     1      36.497 -22.187 -17.195  0.00  0.00    -0.181 NA
ATOM      3  N   UNL     1      33.909 -23.773 -15.340  0.00  0.00    -0.231 NA
ATOM      4  N   UNL     1      32.042 -23.117 -16.765  0.00  0.00    -0.234 NA
ATOM      5  C   UNL     1      34.664 -23.092 -16.216  0.00  0.00    +0.137 C 
ATOM      6  C   UNL     1      34.228 -22.420 -17.345  0.00  0.00    +0.150 C 
ATOM      7  C   UNL     1      35.403 -21.885 -17.904  0.00  0.00    +0.090 C 
ATOM      8  C   UNL     1      32.863 -22.447 -17.609  0.00  0.00    +0.112 C 
ATOM      9  C   UNL     1      32.607 -23.729 -15.698  0.00  0.00    +0.252 C 
ATOM     10  N   UNL     1      32.323 -21.796 -18.733  0.00  0.00    -0.346 N 
ATOM     11  H   UNL     1      31.354 -21.828 -18.902  0.00  0.00    +0.143 HD
ATOM     12  H   UNL     1      32.915 -21.309 -19.352  0.00  0.00    +0.143 HD
ENDROOT
BRANCH   1  15
ATOM     13  O   UNL     1      37.957 -25.825 -11.279  0.00  0.00    -0.270 OA
ATOM     14  N   UNL     1      37.389 -25.222 -13.452  0.00  0.00    -0.274 N 
ATOM     15  C   UNL     1      36.970 -23.463 -15.129  0.00  0.00    +0.117 C 
ATOM     16  C   UNL     1      38.378 -23.707 -15.708  0.00  0.00    +0.025 C 
ATOM     17  C   UNL     1      36.436 -24.744 -14.464  0.00  0.00    +0.115 C 
ATOM     18  C   UNL     1      39.319 -24.281 -14.646  0.00  0.00    +0.023 C 
ATOM     19  C   UNL     1      38.721 -25.520 -13.982  0.00  0.00    +0.094 C 
ATOM     20  C   UNL     1      37.133 -25.413 -12.097  0.00  0.00    +0.249 C 
BRANCH  20  21
ATOM     21  C   UNL     1      35.780 -25.094 -11.601  0.00  0.00    +0.058 C 
ATOM     22  C   UNL     1      35.655 -24.369 -10.488  0.00  0.00    +0.005 C 
ENDBRANCH  20  21
ENDBRANCH   1  15
BRANCH   7  23
ATOM     23  C   UNL     1      35.522 -21.089 -19.100  0.00  0.00    +0.016 C 
ATOM     24  C   UNL     1      34.397 -20.845 -19.889  0.00  0.00    +0.004 C 
ATOM     25  C   UNL     1      36.759 -20.561 -19.468  0.00  0.00    +0.004 C 
ATOM     26  C   UNL     1      34.512 -20.075 -21.046  0.00  0.00    +0.038 C 
ATOM     27  C   UNL     1      36.873 -19.790 -20.625  0.00  0.00    +0.038 C 
ATOM     28  C   UNL     1      35.749 -19.547 -21.414  0.00  0.00    +0.145 C 
BRANCH  28  29
ATOM     29  O   UNL     1      35.861 -18.798 -22.545  0.00  0.00    -0.453 OA
BRANCH  29  30
ATOM     30  C   UNL     1      35.328 -17.520 -22.526  0.00  0.00    +0.145 C 
ATOM     31  C   UNL     1      35.158 -16.854 -21.312  0.00  0.00    +0.037 C 
ATOM     32  C   UNL     1      34.962 -16.898 -23.720  0.00  0.00    +0.037 C 
ATOM     33  C   UNL     1      34.621 -15.566 -21.293  0.00  0.00    +0.003 C 
ATOM     34  C   UNL     1      34.425 -15.612 -23.701  0.00  0.00    +0.003 C 
ATOM     35  C   UNL     1      34.254 -14.946 -22.487  0.00  0.00    +0.000 C 
ENDBRANCH  29  30
ENDBRANCH  28  29
ENDBRANCH   7  23
TORSDOF 5
ENDMDL
MODEL 5
REMARK VINA RESULT:     -10.9      3.812     12.111
REMARK  Name = 24821094
REMARK  5 active torsions:
REMARK  status: ('A' for Active; 'I' for Inactive)
REMARK    1  A    between atoms: N_1  and  C_12
REMARK    2  A    between atoms: C_7  and  C_20
REMARK    3  A    between atoms: C_17  and  C_18
REMARK    4  A    between atoms: C_25  and  O_26
REMARK    5  A    between atoms: O_26  and  C_27
REMARK                            x       y       z     vdW  Elec       q    Type
REMARK                         _______ _______ _______ _____ _____    ______ ____
ROOT
ATOM      1  N   UNL     1      33.107 -11.785 -23.269  0.00  0.00    -0.198 N 
ATOM      2  N   UNL     1      33.064 -10.492 -23.638  0.00  0.00    -0.181 NA
ATOM      3  N   UNL     1      32.573 -13.188 -21.371  0.00  0.00    -0.231 NA
ATOM      4  N   UNL     1      31.669 -11.890 -19.515  0.00  0.00    -0.234 NA
ATOM      5  C   UNL     1      32.650 -12.008 -22.005  0.00  0.00    +0.137 C 
ATOM      6  C   UNL     1      32.280 -10.770 -21.509  0.00  0.00    +0.150 C 
ATOM      7  C   UNL     1      32.560  -9.879 -22.561  0.00  0.00    +0.090 C 
ATOM      8  C   UNL     1      31.774 -10.734 -20.214  0.00  0.00    +0.112 C 
ATOM      9  C   UNL     1      32.070 -13.029 -20.127  0.00  0.00    +0.252 C 
ATOM     10  N   UNL     1      31.370  -9.524 -19.622  0.00  0.00    -0.346 N 
ATOM     11  H   UNL     1      31.013  -9.521 -18.704  0.00  0.00    +0.143 HD
ATOM     12  H   UNL     1      31.442  -8.681 -20.125  0.00  0.00    +0.143 HD
ENDROOT
BRANCH   1  15
ATOM     13  O   UNL     1      34.925 -17.107 -25.402  0.00  0.00    -0.270 OA
ATOM     14  N   UNL     1      33.696 -15.210 -24.859  0.00  0.00    -0.274 N 
ATOM     15  C   UNL     1      33.633 -12.822 -24.244  0.00  0.00    +0.117 C 
ATOM     16  C   UNL     1      33.270 -12.476 -25.701  0.00  0.00    +0.025 C 
ATOM     17  C   UNL     1      33.151 -14.241 -23.895  0.00  0.00    +0.115 C 
ATOM     18  C   UNL     1      33.783 -13.548 -26.666  0.00  0.00    +0.023 C 
ATOM     19  C   UNL     1      33.320 -14.942 -26.249  0.00  0.00    +0.094 C 
ATOM     20  C   UNL     1      34.494 -16.312 -24.566  0.00  0.00    +0.249 C 
BRANCH  20  21
ATOM     21  C   UNL     1      34.856 -16.542 -23.154  0.00  0.00    +0.058 C 
ATOM     22  C   UNL     1      34.992 -17.797 -22.720  0.00  0.00    +0.005 C 
ENDBRANCH  20  21
ENDBRANCH   1  15
BRANCH   7  23
ATOM     23  C   UNL     1      32.361  -8.451 -22.576  0.00  0.00    +0.016 C 
ATOM     24  C   UNL     1      31.111  -7.925 -22.905  0.00  0.00    +0.004 C 
ATOM     25  C   UNL     1      33.416  -7.596 -22.261  0.00  0.00    +0.004 C 
ATOM     26  C   UNL     1      30.919  -6.544 -22.920  0.00  0.00    +0.038 C 
ATOM     27  C   UNL     1      33.223  -6.214 -22.274  0.00  0.00    +0.038 C 
ATOM     28  C   UNL     1      31.974  -5.689 -22.604  0.00  0.00    +0.145 C 
BRANCH  28  29
ATOM     29  O   UNL     1      31.786  -4.341 -22.621  0.00  0.00    -0.453 OA
BRANCH  29  30
ATOM     30  C   UNL     1      31.624  -3.728 -23.852  0.00  0.00    +0.145 C 
ATOM     31  C   UNL     1      30.533  -2.888 -24.074  0.00  0.00    +0.037 C 
ATOM     32  C   UNL     1      32.550  -3.953 -24.872  0.00  0.00    +0.037 C 
ATOM     33  C   UNL     1      30.368  -2.271 -25.315  0.00  0.00    +0.003 C 
ATOM     34  C   UNL     1      32.386  -3.337 -26.112  0.00  0.00    +0.003 C 
ATOM     35  C   UNL     1      31.294  -2.497 -26.333  0.00  0.00    +0.000 C 
ENDBRANCH  29  30
ENDBRANCH  28  29
ENDBRANCH   7  23
TORSDOF 5
ENDMDL
MODEL 6
REMARK VINA RESULT:     -10.8      5.430     11.865
REMARK  Name = 24821094
REMARK  5 active torsions:
REMARK  status: ('A' for Active; 'I' for Inactive)
REMARK    1  A    between atoms: N_1  and  C_12
REMARK    2  A    between atoms: C_7  and  C_20
REMARK    3  A    between atoms: C_17  and  C_18
REMARK    4  A    between atoms: C_25  and  O_26
REMARK    5  A    between atoms: O_26  and  C_27
REMARK                            x       y       z     vdW  Elec       q    Type
REMARK                         _______ _______ _______ _____ _____    ______ ____
ROOT
ATOM      1  N   UNL     1      34.627 -23.750 -15.090  0.00  0.00    -0.198 N 
ATOM      2  N   UNL     1      35.317 -23.199 -16.105  0.00  0.00    -0.181 NA
ATOM      3  N   UNL     1      32.340 -24.068 -14.363  0.00  0.00    -0.231 NA
ATOM      4  N   UNL     1      30.749 -23.099 -15.938  0.00  0.00    -0.234 NA
ATOM      5  C   UNL     1      33.276 -23.621 -15.214  0.00  0.00    +0.137 C 
ATOM      6  C   UNL     1      33.066 -22.935 -16.398  0.00  0.00    +0.150 C 
ATOM      7  C   UNL     1      34.360 -22.704 -16.898  0.00  0.00    +0.090 C 
ATOM      8  C   UNL     1      31.746 -22.676 -16.752  0.00  0.00    +0.112 C 
ATOM      9  C   UNL     1      31.103 -23.760 -14.809  0.00  0.00    +0.252 C 
ATOM     10  N   UNL     1      31.430 -21.986 -17.937  0.00  0.00    -0.346 N 
ATOM     11  H   UNL     1      30.488 -21.814 -18.169  0.00  0.00    +0.143 HD
ATOM     12  H   UNL     1      32.149 -21.677 -18.534  0.00  0.00    +0.143 HD
ENDROOT
BRANCH   1  15
ATOM     13  O   UNL     1      39.162 -26.258 -12.037  0.00  0.00    -0.270 OA
ATOM     14  N   UNL     1      37.563 -24.795 -12.879  0.00  0.00    -0.274 N 
ATOM     15  C   UNL     1      35.376 -24.429 -13.959  0.00  0.00    +0.117 C 
ATOM     16  C   UNL     1      34.777 -24.079 -12.583  0.00  0.00    +0.025 C 
ATOM     17  C   UNL     1      36.880 -24.107 -13.986  0.00  0.00    +0.115 C 
ATOM     18  C   UNL     1      35.564 -24.748 -11.453  0.00  0.00    +0.023 C 
ATOM     19  C   UNL     1      37.056 -24.438 -11.553  0.00  0.00    +0.094 C 
ATOM     20  C   UNL     1      38.608 -25.708 -12.990  0.00  0.00    +0.249 C 
BRANCH  20  21
ATOM     21  C   UNL     1      39.085 -26.046 -14.346  0.00  0.00    +0.058 C 
ATOM     22  C   UNL     1      40.272 -25.585 -14.745  0.00  0.00    +0.005 C 
ENDBRANCH  20  21
ENDBRANCH   1  15
BRANCH   7  23
ATOM     23  C   UNL     1      34.720 -22.023 -18.117  0.00  0.00    +0.016 C 
ATOM     24  C   UNL     1      36.061 -21.767 -18.401  0.00  0.00    +0.004 C 
ATOM     25  C   UNL     1      33.729 -21.621 -19.011  0.00  0.00    +0.004 C 
ATOM     26  C   UNL     1      36.410 -21.108 -19.580  0.00  0.00    +0.038 C 
ATOM     27  C   UNL     1      34.078 -20.963 -20.191  0.00  0.00    +0.038 C 
ATOM     28  C   UNL     1      35.419 -20.706 -20.475  0.00  0.00    +0.145 C 
BRANCH  28  29
ATOM     29  O   UNL     1      35.759 -20.061 -21.624  0.00  0.00    -0.453 OA
BRANCH  29  30
ATOM     30  C   UNL     1      35.402 -18.729 -21.744  0.00  0.00    +0.145 C 
ATOM     31  C   UNL     1      35.353 -17.915 -20.612  0.00  0.00    +0.037 C 
ATOM     32  C   UNL     1      35.089 -18.200 -22.997  0.00  0.00    +0.037 C 
ATOM     33  C   UNL     1      34.993 -16.572 -20.733  0.00  0.00    +0.003 C 
ATOM     34  C   UNL     1      34.728 -16.859 -23.118  0.00  0.00    +0.003 C 
ATOM     35  C   UNL     1      34.680 -16.045 -21.986  0.00  0.00    +0.000 C 
ENDBRANCH  29  30
ENDBRANCH  28  29
ENDBRANCH   7  23
TORSDOF 5
ENDMDL
MODEL 7
REMARK VINA RESULT:     -10.4      6.756     12.319
REMARK  Name = 24821094
REMARK  5 active torsions:
REMARK  status: ('A' for Active; 'I' for Inactive)
REMARK    1  A    between atoms: N_1  and  C_12
REMARK    2  A    between atoms: C_7  and  C_20
REMARK    3  A    between atoms: C_17  and  C_18
REMARK    4  A    between atoms: C_25  and  O_26
REMARK    5  A    between atoms: O_26  and  C_27
REMARK                            x       y       z     vdW  Elec       q    Type
REMARK                         _______ _______ _______ _____ _____    ______ ____
ROOT
ATOM      1  N   UNL     1      34.165 -24.164 -14.290  0.00  0.00    -0.198 N 
ATOM      2  N   UNL     1      34.583 -23.548 -15.411  0.00  0.00    -0.181 NA
ATOM      3  N   UNL     1      32.109 -24.780 -13.172  0.00  0.00    -0.231 NA
ATOM      4  N   UNL     1      30.147 -24.086 -14.444  0.00  0.00    -0.234 NA
ATOM      5  C   UNL     1      32.808 -24.229 -14.175  0.00  0.00    +0.137 C 
ATOM      6  C   UNL     1      32.300 -23.611 -15.304  0.00  0.00    +0.150 C 
ATOM      7  C   UNL     1      33.442 -23.214 -16.025  0.00  0.00    +0.090 C 
ATOM      8  C   UNL     1      30.916 -23.549 -15.421  0.00  0.00    +0.112 C 
ATOM      9  C   UNL     1      30.781 -24.660 -13.395  0.00  0.00    +0.252 C 
ATOM     10  N   UNL     1      30.303 -22.942 -16.533  0.00  0.00    -0.346 N 
ATOM     11  H   UNL     1      29.321 -22.909 -16.597  0.00  0.00    +0.143 HD
ATOM     12  H   UNL     1      30.856 -22.551 -17.248  0.00  0.00    +0.143 HD
ENDROOT
BRANCH   1  15
ATOM     13  O   UNL     1      39.445 -26.059 -12.120  0.00  0.00    -0.270 OA
ATOM     14  N   UNL     1      37.572 -24.801 -12.681  0.00  0.00    -0.274 N 
ATOM     15  C   UNL     1      35.188 -24.701 -13.307  0.00  0.00    +0.117 C 
ATOM     16  C   UNL     1      34.842 -24.321 -11.854  0.00  0.00    +0.025 C 
ATOM     17  C   UNL     1      36.617 -24.247 -13.654  0.00  0.00    +0.115 C 
ATOM     18  C   UNL     1      35.901 -24.845 -10.881  0.00  0.00    +0.023 C 
ATOM     19  C   UNL     1      37.305 -24.409 -11.296  0.00  0.00    +0.094 C 
ATOM     20  C   UNL     1      38.661 -25.621 -12.963  0.00  0.00    +0.249 C 
BRANCH  20  21
ATOM     21  C   UNL     1      38.891 -25.999 -14.372  0.00  0.00    +0.058 C 
ATOM     22  C   UNL     1      39.975 -25.534 -14.995  0.00  0.00    +0.005 C 
ENDBRANCH  20  21
ENDBRANCH   1  15
BRANCH   7  23
ATOM     23  C   UNL     1      33.484 -22.521 -17.289  0.00  0.00    +0.016 C 
ATOM     24  C   UNL     1      34.687 -22.418 -17.987  0.00  0.00    +0.004 C 
ATOM     25  C   UNL     1      32.322 -21.956 -17.814  0.00  0.00    +0.004 C 
ATOM     26  C   UNL     1      34.728 -21.749 -19.210  0.00  0.00    +0.038 C 
ATOM     27  C   UNL     1      32.363 -21.287 -19.037  0.00  0.00    +0.038 C 
ATOM     28  C   UNL     1      33.566 -21.183 -19.735  0.00  0.00    +0.145 C 
BRANCH  28  29
ATOM     29  O   UNL     1      33.607 -20.527 -20.927  0.00  0.00    -0.453 OA
BRANCH  29  30
ATOM     30  C   UNL     1      34.745 -19.796 -21.221  0.00  0.00    +0.145 C 
ATOM     31  C   UNL     1      34.772 -18.970 -22.344  0.00  0.00    +0.037 C 
ATOM     32  C   UNL     1      35.865 -19.885 -20.394  0.00  0.00    +0.037 C 
ATOM     33  C   UNL     1      35.919 -18.232 -22.641  0.00  0.00    +0.003 C 
ATOM     34  C   UNL     1      37.011 -19.148 -20.690  0.00  0.00    +0.003 C 
ATOM     35  C   UNL     1      37.038 -18.323 -21.814  0.00  0.00    +0.000 C 
ENDBRANCH  29  30
ENDBRANCH  28  29
ENDBRANCH   7  23
TORSDOF 5
ENDMDL
MODEL 8
REMARK VINA RESULT:     -10.3      6.139     11.352
REMARK  Name = 24821094
REMARK  5 active torsions:
REMARK  status: ('A' for Active; 'I' for Inactive)
REMARK    1  A    between atoms: N_1  and  C_12
REMARK    2  A    between atoms: C_7  and  C_20
REMARK    3  A    between atoms: C_17  and  C_18
REMARK    4  A    between atoms: C_25  and  O_26
REMARK    5  A    between atoms: O_26  and  C_27
REMARK                            x       y       z     vdW  Elec       q    Type
REMARK                         _______ _______ _______ _____ _____    ______ ____
ROOT
ATOM      1  N   UNL     1      33.505 -23.498 -15.096  0.00  0.00    -0.198 N 
ATOM      2  N   UNL     1      33.612 -22.815 -16.250  0.00  0.00    -0.181 NA
ATOM      3  N   UNL     1      34.911 -24.520 -13.412  0.00  0.00    -0.231 NA
ATOM      4  N   UNL     1      37.279 -24.253 -13.930  0.00  0.00    -0.234 NA
ATOM      5  C   UNL     1      34.706 -23.842 -14.551  0.00  0.00    +0.137 C 
ATOM      6  C   UNL     1      35.670 -23.347 -15.411  0.00  0.00    +0.150 C 
ATOM      7  C   UNL     1      34.934 -22.726 -16.437  0.00  0.00    +0.090 C 
ATOM      8  C   UNL     1      36.999 -23.573 -15.067  0.00  0.00    +0.112 C 
ATOM      9  C   UNL     1      36.233 -24.679 -13.183  0.00  0.00    +0.252 C 
ATOM     10  N   UNL     1      38.052 -23.109 -15.877  0.00  0.00    -0.346 N 
ATOM     11  H   UNL     1      38.986 -23.279 -15.615  0.00  0.00    +0.143 HD
ATOM     12  H   UNL     1      37.856 -22.613 -16.704  0.00  0.00    +0.143 HD
ENDROOT
BRANCH   1  15
ATOM     13  O   UNL     1      27.523 -24.065 -14.831  0.00  0.00    -0.270 OA
ATOM     14  N   UNL     1      29.805 -24.451 -15.052  0.00  0.00    -0.274 N 
ATOM     15  C   UNL     1      32.129 -23.807 -14.536  0.00  0.00    +0.117 C 
ATOM     16  C   UNL     1      32.181 -24.919 -13.470  0.00  0.00    +0.025 C 
ATOM     17  C   UNL     1      31.123 -24.171 -15.642  0.00  0.00    +0.115 C 
ATOM     18  C   UNL     1      30.781 -25.239 -12.939  0.00  0.00    +0.023 C 
ATOM     19  C   UNL     1      29.809 -25.544 -14.077  0.00  0.00    +0.094 C 
ATOM     20  C   UNL     1      28.611 -23.796 -15.340  0.00  0.00    +0.249 C 
BRANCH  20  21
ATOM     21  C   UNL     1      28.652 -22.695 -16.323  0.00  0.00    +0.058 C 
ATOM     22  C   UNL     1      27.509 -22.277 -16.870  0.00  0.00    +0.005 C 
ENDBRANCH  20  21
ENDBRANCH   1  15
BRANCH   7  23
ATOM     23  C   UNL     1      35.450 -22.045 -17.598  0.00  0.00    +0.016 C 
ATOM     24  C   UNL     1      34.718 -22.040 -18.785  0.00  0.00    +0.004 C 
ATOM     25  C   UNL     1      36.680 -21.391 -17.534  0.00  0.00    +0.004 C 
ATOM     26  C   UNL     1      35.217 -21.381 -19.908  0.00  0.00    +0.038 C 
ATOM     27  C   UNL     1      37.179 -20.731 -18.658  0.00  0.00    +0.038 C 
ATOM     28  C   UNL     1      36.446 -20.727 -19.845  0.00  0.00    +0.145 C 
BRANCH  28  29
ATOM     29  O   UNL     1      36.935 -20.086 -20.942  0.00  0.00    -0.453 OA
BRANCH  29  30
ATOM     30  C   UNL     1      36.106 -19.179 -21.580  0.00  0.00    +0.145 C 
ATOM     31  C   UNL     1      35.923 -17.904 -21.044  0.00  0.00    +0.037 C 
ATOM     32  C   UNL     1      35.452 -19.539 -22.759  0.00  0.00    +0.037 C 
ATOM     33  C   UNL     1      35.087 -16.990 -21.687  0.00  0.00    +0.003 C 
ATOM     34  C   UNL     1      34.617 -18.626 -23.402  0.00  0.00    +0.003 C 
ATOM     35  C   UNL     1      34.434 -17.352 -22.865  0.00  0.00    +0.000 C 
ENDBRANCH  29  30
ENDBRANCH  28  29
ENDBRANCH   7  23
TORSDOF 5
ENDMDL
MODEL 9
REMARK VINA RESULT:     -10.3      5.146     12.398
REMARK  Name = 24821094
REMARK  5 active torsions:
REMARK  status: ('A' for Active; 'I' for Inactive)
REMARK    1  A    between atoms: N_1  and  C_12
REMARK    2  A    between atoms: C_7  and  C_20
REMARK    3  A    between atoms: C_17  and  C_18
REMARK    4  A    between atoms: C_25  and  O_26
REMARK    5  A    between atoms: O_26  and  C_27
REMARK                            x       y       z     vdW  Elec       q    Type
REMARK                         _______ _______ _______ _____ _____    ______ ____
ROOT
ATOM      1  N   UNL     1      32.732 -10.389 -22.226  0.00  0.00    -0.198 N 
ATOM      2  N   UNL     1      33.159  -9.605 -23.234  0.00  0.00    -0.181 NA
ATOM      3  N   UNL     1      31.860 -10.204 -19.976  0.00  0.00    -0.231 NA
ATOM      4  N   UNL     1      31.680  -7.876 -19.268  0.00  0.00    -0.234 NA
ATOM      5  C   UNL     1      32.331  -9.694 -21.125  0.00  0.00    +0.137 C 
ATOM      6  C   UNL     1      32.507  -8.357 -21.434  0.00  0.00    +0.150 C 
ATOM      7  C   UNL     1      33.019  -8.368 -22.744  0.00  0.00    +0.090 C 
ATOM      8  C   UNL     1      32.162  -7.432 -20.453  0.00  0.00    +0.112 C 
ATOM      9  C   UNL     1      31.561  -9.215 -19.105  0.00  0.00    +0.252 C 
ATOM     10  N   UNL     1      32.303  -6.049 -20.672  0.00  0.00    -0.346 N 
ATOM     11  H   UNL     1      32.052  -5.411 -19.965  0.00  0.00    +0.143 HD
ATOM     12  H   UNL     1      32.651  -5.719 -21.532  0.00  0.00    +0.143 HD
ENDROOT
BRANCH   1  15
ATOM     13  O   UNL     1      33.292 -15.758 -24.881  0.00  0.00    -0.270 OA
ATOM     14  N   UNL     1      33.648 -13.810 -23.661  0.00  0.00    -0.274 N 
ATOM     15  C   UNL     1      32.738 -11.897 -22.400  0.00  0.00    +0.117 C 
ATOM     16  C   UNL     1      33.084 -12.623 -21.085  0.00  0.00    +0.025 C 
ATOM     17  C   UNL     1      33.686 -12.347 -23.525  0.00  0.00    +0.115 C 
ATOM     18  C   UNL     1      33.115 -14.141 -21.286  0.00  0.00    +0.023 C 
ATOM     19  C   UNL     1      34.029 -14.532 -22.445  0.00  0.00    +0.094 C 
ATOM     20  C   UNL     1      33.303 -14.529 -24.803  0.00  0.00    +0.249 C 
BRANCH  20  21
ATOM     21  C   UNL     1      32.918 -13.764 -26.006  0.00  0.00    +0.058 C 
ATOM     22  C   UNL     1      33.863 -13.428 -26.886  0.00  0.00    +0.005 C 
ENDBRANCH  20  21
ENDBRANCH   1  15
BRANCH   7  23
ATOM     23  C   UNL     1      33.382  -7.232 -23.553  0.00  0.00    +0.016 C 
ATOM     24  C   UNL     1      34.724  -6.980 -23.839  0.00  0.00    +0.004 C 
ATOM     25  C   UNL     1      32.392  -6.385 -24.052  0.00  0.00    +0.004 C 
ATOM     26  C   UNL     1      35.075  -5.881 -24.622  0.00  0.00    +0.038 C 
ATOM     27  C   UNL     1      32.744  -5.286 -24.836  0.00  0.00    +0.038 C 
ATOM     28  C   UNL     1      34.085  -5.035 -25.121  0.00  0.00    +0.145 C 
BRANCH  28  29
ATOM     29  O   UNL     1      34.429  -3.960 -25.883  0.00  0.00    -0.453 OA
BRANCH  29  30
ATOM     30  C   UNL     1      34.895  -4.202 -27.164  0.00  0.00    +0.145 C 
ATOM     31  C   UNL     1      34.003  -4.237 -28.236  0.00  0.00    +0.037 C 
ATOM     32  C   UNL     1      36.257  -4.411 -27.383  0.00  0.00    +0.037 C 
ATOM     33  C   UNL     1      34.473  -4.481 -29.527  0.00  0.00    +0.003 C 
ATOM     34  C   UNL     1      36.727  -4.655 -28.673  0.00  0.00    +0.003 C 
ATOM     35  C   UNL     1      35.835  -4.691 -29.745  0.00  0.00    +0.000 C 
ENDBRANCH  29  30
ENDBRANCH  28  29
ENDBRANCH   7  23
TORSDOF 5
ENDMDL
