MODEL 1
REMARK VINA RESULT:     -11.8      0.000      0.000
REMARK  Name = 6918388
REMARK  5 active torsions:
REMARK  status: ('A' for Active; 'I' for Inactive)
REMARK    1  A    between atoms: N_1  and  C_4
REMARK    2  A    between atoms: N_1  and  C_15
REMARK    3  A    between atoms: C_4  and  C_6
REMARK    4  A    between atoms: C_15  and  C_17
REMARK    5  A    between atoms: C_19  and  C_23
REMARK                            x       y       z     vdW  Elec       q    Type
REMARK                         _______ _______ _______ _____ _____    ______ ____
ROOT
ATOM      1  N   UNL     1      35.351 -16.478 -23.124  0.00  0.00    +0.389 N 
ATOM      2  H   UNL     1      35.681 -16.142 -24.028  0.00  0.00    -0.084 HD
ATOM      3  H   UNL     1      36.139 -16.703 -22.517  0.00  0.00    -0.084 HD
ENDROOT
BRANCH   1   4
ATOM      4  C   UNL     1      34.560 -17.684 -23.323  0.00  0.00    -0.037 C 
BRANCH   4   6
ATOM      5  O   UNL     1      34.028 -19.286 -21.641  0.00  0.00    -0.482 OA
ATOM      6  C   UNL     1      35.099 -18.835 -22.483  0.00  0.00    +0.145 C 
ATOM      7  C   UNL     1      36.304 -18.388 -21.657  0.00  0.00    +0.046 C 
ATOM      8  C   UNL     1      36.844 -19.578 -20.875  0.00  0.00    +0.033 C 
ATOM      9  C   UNL     1      35.719 -20.334 -20.226  0.00  0.00    +0.012 C 
ATOM     10  C   UNL     1      34.395 -20.156 -20.647  0.00  0.00    +0.134 C 
ATOM     11  C   UNL     1      35.993 -21.251 -19.203  0.00  0.00    -0.001 C 
ATOM     12  C   UNL     1      33.358 -20.856 -20.025  0.00  0.00    +0.037 C 
ATOM     13  C   UNL     1      34.958 -21.959 -18.592  0.00  0.00    -0.000 C 
ATOM     14  C   UNL     1      33.641 -21.758 -19.000  0.00  0.00    +0.003 C 
ENDBRANCH   4   6
ENDBRANCH   1   4
BRANCH   1  15
ATOM     15  C   UNL     1      34.559 -15.434 -22.487  0.00  0.00    -0.053 C 
BRANCH  15  17
ATOM     16  N   UNL     1      33.332 -13.783 -25.644  0.00  0.00    -0.243 NA
ATOM     17  C   UNL     1      34.155 -14.361 -23.463  0.00  0.00    -0.025 C 
ATOM     18  C   UNL     1      34.228 -13.029 -23.107  0.00  0.00    -0.003 C 
ATOM     19  C   UNL     1      33.849 -12.061 -24.028  0.00  0.00    +0.019 C 
ATOM     20  C   UNL     1      33.710 -14.696 -24.722  0.00  0.00    +0.092 C 
ATOM     21  C   UNL     1      33.411 -12.486 -25.273  0.00  0.00    +0.099 C 
BRANCH  19  23
ATOM     22  F   UNL     1      34.080  -6.635 -22.762  0.00  0.00    -0.204 F 
ATOM     23  C   UNL     1      33.907 -10.656 -23.701  0.00  0.00    +0.002 C 
ATOM     24  C   UNL     1      34.988  -9.882 -24.130  0.00  0.00    +0.002 C 
ATOM     25  C   UNL     1      32.886 -10.066 -22.954  0.00  0.00    +0.002 C 
ATOM     26  C   UNL     1      35.046  -8.525 -23.812  0.00  0.00    +0.030 C 
ATOM     27  C   UNL     1      32.945  -8.709 -22.636  0.00  0.00    +0.030 C 
ATOM     28  C   UNL     1      34.025  -7.939 -23.066  0.00  0.00    +0.140 C 
ENDBRANCH  19  23
ENDBRANCH  15  17
ENDBRANCH   1  15
TORSDOF 5
ENDMDL
MODEL 2
REMARK VINA RESULT:     -11.7      3.930      9.649
REMARK  Name = 6918388
REMARK  5 active torsions:
REMARK  status: ('A' for Active; 'I' for Inactive)
REMARK    1  A    between atoms: N_1  and  C_4
REMARK    2  A    between atoms: N_1  and  C_15
REMARK    3  A    between atoms: C_4  and  C_6
REMARK    4  A    between atoms: C_15  and  C_17
REMARK    5  A    between atoms: C_19  and  C_23
REMARK                            x       y       z     vdW  Elec       q    Type
REMARK                         _______ _______ _______ _____ _____    ______ ____
ROOT
ATOM      1  N   UNL     1      33.407 -13.363 -21.934  0.00  0.00    +0.389 N 
ATOM      2  H   UNL     1      33.475 -14.220 -21.386  0.00  0.00    -0.084 HD
ATOM      3  H   UNL     1      33.838 -12.585 -21.435  0.00  0.00    -0.084 HD
ENDROOT
BRANCH   1   4
ATOM      4  C   UNL     1      32.003 -13.050 -22.158  0.00  0.00    -0.037 C 
BRANCH   4   6
ATOM      5  O   UNL     1      32.325 -10.689 -22.173  0.00  0.00    -0.482 OA
ATOM      6  C   UNL     1      31.623 -11.736 -21.488  0.00  0.00    +0.145 C 
ATOM      7  C   UNL     1      31.977 -11.762 -20.002  0.00  0.00    +0.046 C 
ATOM      8  C   UNL     1      31.533 -10.454 -19.359  0.00  0.00    +0.033 C 
ATOM      9  C   UNL     1      31.936  -9.286 -20.214  0.00  0.00    +0.012 C 
ATOM     10  C   UNL     1      32.293  -9.466 -21.556  0.00  0.00    +0.134 C 
ATOM     11  C   UNL     1      31.930  -7.992 -19.676  0.00  0.00    -0.001 C 
ATOM     12  C   UNL     1      32.678  -8.371 -22.335  0.00  0.00    +0.037 C 
ATOM     13  C   UNL     1      32.303  -6.899 -20.459  0.00  0.00    -0.000 C 
ATOM     14  C   UNL     1      32.680  -7.090 -21.786  0.00  0.00    +0.003 C 
ENDBRANCH   4   6
ENDBRANCH   1   4
BRANCH   1  15
ATOM     15  C   UNL     1      34.108 -13.548 -23.198  0.00  0.00    -0.053 C 
BRANCH  15  17
ATOM     16  N   UNL     1      33.976 -16.722 -25.224  0.00  0.00    -0.243 NA
ATOM     17  C   UNL     1      34.228 -15.003 -23.566  0.00  0.00    -0.025 C 
ATOM     18  C   UNL     1      34.676 -15.923 -22.639  0.00  0.00    -0.003 C 
ATOM     19  C   UNL     1      34.777 -17.259 -23.007  0.00  0.00    +0.019 C 
ATOM     20  C   UNL     1      33.892 -15.432 -24.829  0.00  0.00    +0.092 C 
ATOM     21  C   UNL     1      34.418 -17.605 -24.301  0.00  0.00    +0.099 C 
BRANCH  19  23
ATOM     22  F   UNL     1      36.565 -21.113 -19.395  0.00  0.00    -0.204 F 
ATOM     23  C   UNL     1      35.242 -18.258 -22.073  0.00  0.00    +0.002 C 
ATOM     24  C   UNL     1      34.359 -19.224 -21.586  0.00  0.00    +0.002 C 
ATOM     25  C   UNL     1      36.572 -18.259 -21.651  0.00  0.00    +0.002 C 
ATOM     26  C   UNL     1      34.806 -20.188 -20.682  0.00  0.00    +0.030 C 
ATOM     27  C   UNL     1      37.019 -19.223 -20.747  0.00  0.00    +0.030 C 
ATOM     28  C   UNL     1      36.136 -20.187 -20.263  0.00  0.00    +0.140 C 
ENDBRANCH  19  23
ENDBRANCH  15  17
ENDBRANCH   1  15
TORSDOF 5
ENDMDL
MODEL 3
REMARK VINA RESULT:     -11.5      5.336     11.483
REMARK  Name = 6918388
REMARK  5 active torsions:
REMARK  status: ('A' for Active; 'I' for Inactive)
REMARK    1  A    between atoms: N_1  and  C_4
REMARK    2  A    between atoms: N_1  and  C_15
REMARK    3  A    between atoms: C_4  and  C_6
REMARK    4  A    between atoms: C_15  and  C_17
REMARK    5  A    between atoms: C_19  and  C_23
REMARK                            x       y       z     vdW  Elec       q    Type
REMARK                         _______ _______ _______ _____ _____    ______ ____
ROOT
ATOM      1  N   UNL     1      35.242 -19.881 -20.450  0.00  0.00    +0.389 N 
ATOM      2  H   UNL     1      34.576 -20.170 -21.166  0.00  0.00    -0.084 HD
ATOM      3  H   UNL     1      34.782 -19.304 -19.747  0.00  0.00    -0.084 HD
ENDROOT
BRANCH   1   4
ATOM      4  C   UNL     1      36.301 -19.099 -21.071  0.00  0.00    -0.037 C 
BRANCH   4   6
ATOM      5  O   UNL     1      35.425 -17.103 -22.036  0.00  0.00    -0.482 OA
ATOM      6  C   UNL     1      35.814 -18.447 -22.359  0.00  0.00    +0.145 C 
ATOM      7  C   UNL     1      34.650 -19.232 -22.960  0.00  0.00    +0.046 C 
ATOM      8  C   UNL     1      34.229 -18.579 -24.271  0.00  0.00    +0.033 C 
ATOM      9  C   UNL     1      34.133 -17.089 -24.107  0.00  0.00    +0.012 C 
ATOM     10  C   UNL     1      34.737 -16.443 -23.021  0.00  0.00    +0.134 C 
ATOM     11  C   UNL     1      33.454 -16.324 -25.065  0.00  0.00    -0.001 C 
ATOM     12  C   UNL     1      34.627 -15.058 -22.875  0.00  0.00    +0.037 C 
ATOM     13  C   UNL     1      33.357 -14.939 -24.925  0.00  0.00    -0.000 C 
ATOM     14  C   UNL     1      33.940 -14.308 -23.828  0.00  0.00    +0.003 C 
ENDBRANCH   4   6
ENDBRANCH   1   4
BRANCH   1  15
ATOM     15  C   UNL     1      35.783 -21.065 -19.796  0.00  0.00    -0.053 C 
BRANCH  15  17
ATOM     16  N   UNL     1      32.503 -22.292 -18.408  0.00  0.00    -0.243 NA
ATOM     17  C   UNL     1      34.784 -21.698 -18.865  0.00  0.00    -0.025 C 
ATOM     18  C   UNL     1      35.197 -22.245 -17.666  0.00  0.00    -0.003 C 
ATOM     19  C   UNL     1      34.252 -22.824 -16.826  0.00  0.00    +0.019 C 
ATOM     20  C   UNL     1      33.450 -21.739 -19.198  0.00  0.00    +0.092 C 
ATOM     21  C   UNL     1      32.929 -22.822 -17.240  0.00  0.00    +0.099 C 
BRANCH  19  23
ATOM     22  F   UNL     1      35.737 -25.086 -11.951  0.00  0.00    -0.204 F 
ATOM     23  C   UNL     1      34.636 -23.408 -15.563  0.00  0.00    +0.002 C 
ATOM     24  C   UNL     1      35.987 -23.578 -15.252  0.00  0.00    +0.002 C 
ATOM     25  C   UNL     1      33.659 -23.808 -14.650  0.00  0.00    +0.002 C 
ATOM     26  C   UNL     1      36.358 -24.145 -14.032  0.00  0.00    +0.030 C 
ATOM     27  C   UNL     1      34.030 -24.375 -13.430  0.00  0.00    +0.030 C 
ATOM     28  C   UNL     1      35.380 -24.543 -13.122  0.00  0.00    +0.140 C 
ENDBRANCH  19  23
ENDBRANCH  15  17
ENDBRANCH   1  15
TORSDOF 5
ENDMDL
MODEL 4
REMARK VINA RESULT:     -11.5      5.328      8.553
REMARK  Name = 6918388
REMARK  5 active torsions:
REMARK  status: ('A' for Active; 'I' for Inactive)
REMARK    1  A    between atoms: N_1  and  C_4
REMARK    2  A    between atoms: N_1  and  C_15
REMARK    3  A    between atoms: C_4  and  C_6
REMARK    4  A    between atoms: C_15  and  C_17
REMARK    5  A    between atoms: C_19  and  C_23
REMARK                            x       y       z     vdW  Elec       q    Type
REMARK                         _______ _______ _______ _____ _____    ______ ____
ROOT
ATOM      1  N   UNL     1      36.750 -21.173 -17.398  0.00  0.00    +0.389 N 
ATOM      2  H   UNL     1      37.326 -20.337 -17.484  0.00  0.00    -0.084 HD
ATOM      3  H   UNL     1      35.832 -20.938 -17.021  0.00  0.00    -0.084 HD
ENDROOT
BRANCH   1   4
ATOM      4  C   UNL     1      37.398 -22.108 -16.490  0.00  0.00    -0.037 C 
BRANCH   4   6
ATOM      5  O   UNL     1      37.386 -22.851 -14.226  0.00  0.00    -0.482 OA
ATOM      6  C   UNL     1      36.523 -22.385 -15.275  0.00  0.00    +0.145 C 
ATOM      7  C   UNL     1      35.444 -23.415 -15.604  0.00  0.00    +0.046 C 
ATOM      8  C   UNL     1      34.561 -23.623 -14.381  0.00  0.00    +0.033 C 
ATOM      9  C   UNL     1      35.401 -23.776 -13.145  0.00  0.00    +0.012 C 
ATOM     10  C   UNL     1      36.744 -23.376 -13.135  0.00  0.00    +0.134 C 
ATOM     11  C   UNL     1      34.835 -24.299 -11.975  0.00  0.00    -0.001 C 
ATOM     12  C   UNL     1      37.518 -23.537 -11.982  0.00  0.00    +0.037 C 
ATOM     13  C   UNL     1      35.606 -24.447 -10.822  0.00  0.00    -0.000 C 
ATOM     14  C   UNL     1      36.947 -24.070 -10.827  0.00  0.00    +0.003 C 
ENDBRANCH   4   6
ENDBRANCH   1   4
BRANCH   1  15
ATOM     15  C   UNL     1      36.570 -21.765 -18.717  0.00  0.00    -0.053 C 
BRANCH  15  17
ATOM     16  N   UNL     1      32.978 -21.131 -19.659  0.00  0.00    -0.243 NA
ATOM     17  C   UNL     1      35.367 -21.203 -19.426  0.00  0.00    -0.025 C 
ATOM     18  C   UNL     1      35.523 -20.288 -20.448  0.00  0.00    -0.003 C 
ATOM     19  C   UNL     1      34.394 -19.786 -21.084  0.00  0.00    +0.019 C 
ATOM     20  C   UNL     1      34.099 -21.596 -19.064  0.00  0.00    +0.092 C 
ATOM     21  C   UNL     1      33.155 -20.235 -20.656  0.00  0.00    +0.099 C 
BRANCH  19  23
ATOM     22  F   UNL     1      34.828 -16.076 -25.225  0.00  0.00    -0.204 F 
ATOM     23  C   UNL     1      34.507 -18.826 -22.157  0.00  0.00    +0.002 C 
ATOM     24  C   UNL     1      35.120 -17.592 -21.931  0.00  0.00    +0.002 C 
ATOM     25  C   UNL     1      34.003 -19.127 -23.423  0.00  0.00    +0.002 C 
ATOM     26  C   UNL     1      35.228 -16.664 -22.966  0.00  0.00    +0.030 C 
ATOM     27  C   UNL     1      34.111 -18.199 -24.459  0.00  0.00    +0.030 C 
ATOM     28  C   UNL     1      34.723 -16.968 -24.230  0.00  0.00    +0.140 C 
ENDBRANCH  19  23
ENDBRANCH  15  17
ENDBRANCH   1  15
TORSDOF 5
ENDMDL
MODEL 5
REMARK VINA RESULT:     -11.5      3.728     10.007
REMARK  Name = 6918388
REMARK  5 active torsions:
REMARK  status: ('A' for Active; 'I' for Inactive)
REMARK    1  A    between atoms: N_1  and  C_4
REMARK    2  A    between atoms: N_1  and  C_15
REMARK    3  A    between atoms: C_4  and  C_6
REMARK    4  A    between atoms: C_15  and  C_17
REMARK    5  A    between atoms: C_19  and  C_23
REMARK                            x       y       z     vdW  Elec       q    Type
REMARK                         _______ _______ _______ _____ _____    ______ ____
ROOT
ATOM      1  N   UNL     1      33.308 -13.570 -23.431  0.00  0.00    +0.389 N 
ATOM      2  H   UNL     1      32.680 -14.266 -23.833  0.00  0.00    -0.084 HD
ATOM      3  H   UNL     1      32.873 -13.120 -22.626  0.00  0.00    -0.084 HD
ENDROOT
BRANCH   1   4
ATOM      4  C   UNL     1      33.596 -12.553 -24.433  0.00  0.00    -0.037 C 
BRANCH   4   6
ATOM      5  O   UNL     1      32.846 -10.582 -23.324  0.00  0.00    -0.482 OA
ATOM      6  C   UNL     1      34.033 -11.250 -23.776  0.00  0.00    +0.145 C 
ATOM      7  C   UNL     1      34.817 -10.382 -24.760  0.00  0.00    +0.046 C 
ATOM      8  C   UNL     1      35.280  -9.116 -24.050  0.00  0.00    +0.033 C 
ATOM      9  C   UNL     1      34.157  -8.524 -23.246  0.00  0.00    +0.012 C 
ATOM     10  C   UNL     1      33.025  -9.283 -22.923  0.00  0.00    +0.134 C 
ATOM     11  C   UNL     1      34.249  -7.204 -22.786  0.00  0.00    -0.001 C 
ATOM     12  C   UNL     1      31.983  -8.715 -22.187  0.00  0.00    +0.037 C 
ATOM     13  C   UNL     1      33.212  -6.642 -22.039  0.00  0.00    -0.000 C 
ATOM     14  C   UNL     1      32.079  -7.396 -21.744  0.00  0.00    +0.003 C 
ENDBRANCH   4   6
ENDBRANCH   1   4
BRANCH   1  15
ATOM     15  C   UNL     1      34.530 -14.229 -22.990  0.00  0.00    -0.053 C 
BRANCH  15  17
ATOM     16  N   UNL     1      34.070 -17.491 -24.818  0.00  0.00    -0.243 NA
ATOM     17  C   UNL     1      34.503 -15.708 -23.269  0.00  0.00    -0.025 C 
ATOM     18  C   UNL     1      34.866 -16.610 -22.288  0.00  0.00    -0.003 C 
ATOM     19  C   UNL     1      34.832 -17.969 -22.574  0.00  0.00    +0.019 C 
ATOM     20  C   UNL     1      34.116 -16.177 -24.503  0.00  0.00    +0.092 C 
ATOM     21  C   UNL     1      34.430 -18.355 -23.843  0.00  0.00    +0.099 C 
BRANCH  19  23
ATOM     22  F   UNL     1      36.269 -21.759 -18.744  0.00  0.00    -0.204 F 
ATOM     23  C   UNL     1      35.203 -18.950 -21.581  0.00  0.00    +0.002 C 
ATOM     24  C   UNL     1      36.524 -19.028 -21.134  0.00  0.00    +0.002 C 
ATOM     25  C   UNL     1      34.245 -19.825 -21.067  0.00  0.00    +0.002 C 
ATOM     26  C   UNL     1      36.883 -19.977 -20.176  0.00  0.00    +0.030 C 
ATOM     27  C   UNL     1      34.604 -20.773 -20.109  0.00  0.00    +0.030 C 
ATOM     28  C   UNL     1      35.924 -20.849 -19.664  0.00  0.00    +0.140 C 
ENDBRANCH  19  23
ENDBRANCH  15  17
ENDBRANCH   1  15
TORSDOF 5
ENDMDL
MODEL 6
REMARK VINA RESULT:     -11.5      4.893      8.206
REMARK  Name = 6918388
REMARK  5 active torsions:
REMARK  status: ('A' for Active; 'I' for Inactive)
REMARK    1  A    between atoms: N_1  and  C_4
REMARK    2  A    between atoms: N_1  and  C_15
REMARK    3  A    between atoms: C_4  and  C_6
REMARK    4  A    between atoms: C_15  and  C_17
REMARK    5  A    between atoms: C_19  and  C_23
REMARK                            x       y       z     vdW  Elec       q    Type
REMARK                         _______ _______ _______ _____ _____    ______ ____
ROOT
ATOM      1  N   UNL     1      34.046 -22.681 -18.175  0.00  0.00    +0.389 N 
ATOM      2  H   UNL     1      34.454 -23.479 -18.659  0.00  0.00    -0.084 HD
ATOM      3  H   UNL     1      34.762 -22.175 -17.653  0.00  0.00    -0.084 HD
ENDROOT
BRANCH   1   4
ATOM      4  C   UNL     1      33.037 -23.155 -17.239  0.00  0.00    -0.037 C 
BRANCH   4   6
ATOM      5  O   UNL     1      34.758 -24.060 -15.861  0.00  0.00    -0.482 OA
ATOM      6  C   UNL     1      33.594 -23.221 -15.823  0.00  0.00    +0.145 C 
ATOM      7  C   UNL     1      32.549 -23.765 -14.851  0.00  0.00    +0.046 C 
ATOM      8  C   UNL     1      33.127 -23.764 -13.442  0.00  0.00    +0.033 C 
ATOM      9  C   UNL     1      34.521 -24.324 -13.446  0.00  0.00    +0.012 C 
ATOM     10  C   UNL     1      35.251 -24.428 -14.636  0.00  0.00    +0.134 C 
ATOM     11  C   UNL     1      35.116 -24.724 -12.242  0.00  0.00    -0.001 C 
ATOM     12  C   UNL     1      36.542 -24.963 -14.626  0.00  0.00    +0.037 C 
ATOM     13  C   UNL     1      36.410 -25.245 -12.232  0.00  0.00    -0.000 C 
ATOM     14  C   UNL     1      37.120 -25.369 -13.425  0.00  0.00    +0.003 C 
ENDBRANCH   4   6
ENDBRANCH   1   4
BRANCH   1  15
ATOM     15  C   UNL     1      33.462 -21.776 -19.157  0.00  0.00    -0.053 C 
BRANCH  15  17
ATOM     16  N   UNL     1      36.778 -20.129 -19.855  0.00  0.00    -0.243 NA
ATOM     17  C   UNL     1      34.500 -20.887 -19.788  0.00  0.00    -0.025 C 
ATOM     18  C   UNL     1      34.160 -20.048 -20.831  0.00  0.00    -0.003 C 
ATOM     19  C   UNL     1      35.140 -19.239 -21.395  0.00  0.00    +0.019 C 
ATOM     20  C   UNL     1      35.799 -20.900 -19.333  0.00  0.00    +0.092 C 
ATOM     21  C   UNL     1      36.423 -19.316 -20.875  0.00  0.00    +0.099 C 
BRANCH  19  23
ATOM     22  F   UNL     1      33.956 -15.796 -25.618  0.00  0.00    -0.204 F 
ATOM     23  C   UNL     1      34.833 -18.347 -22.487  0.00  0.00    +0.002 C 
ATOM     24  C   UNL     1      34.182 -18.831 -23.624  0.00  0.00    +0.002 C 
ATOM     25  C   UNL     1      35.187 -16.999 -22.413  0.00  0.00    +0.002 C 
ATOM     26  C   UNL     1      33.886 -17.969 -24.681  0.00  0.00    +0.030 C 
ATOM     27  C   UNL     1      34.891 -16.137 -23.469  0.00  0.00    +0.030 C 
ATOM     28  C   UNL     1      34.241 -16.623 -24.603  0.00  0.00    +0.140 C 
ENDBRANCH  19  23
ENDBRANCH  15  17
ENDBRANCH   1  15
TORSDOF 5
ENDMDL
MODEL 7
REMARK VINA RESULT:     -11.3      5.418      8.462
REMARK  Name = 6918388
REMARK  5 active torsions:
REMARK  status: ('A' for Active; 'I' for Inactive)
REMARK    1  A    between atoms: N_1  and  C_4
REMARK    2  A    between atoms: N_1  and  C_15
REMARK    3  A    between atoms: C_4  and  C_6
REMARK    4  A    between atoms: C_15  and  C_17
REMARK    5  A    between atoms: C_19  and  C_23
REMARK                            x       y       z     vdW  Elec       q    Type
REMARK                         _______ _______ _______ _____ _____    ______ ____
ROOT
ATOM      1  N   UNL     1      36.391 -21.657 -16.702  0.00  0.00    +0.389 N 
ATOM      2  H   UNL     1      36.905 -20.794 -16.528  0.00  0.00    -0.084 HD
ATOM      3  H   UNL     1      35.404 -21.536 -16.475  0.00  0.00    -0.084 HD
ENDROOT
BRANCH   1   4
ATOM      4  C   UNL     1      36.935 -22.714 -15.861  0.00  0.00    -0.037 C 
BRANCH   4   6
ATOM      5  O   UNL     1      34.575 -23.016 -15.721  0.00  0.00    -0.482 OA
ATOM      6  C   UNL     1      35.820 -23.547 -15.242  0.00  0.00    +0.145 C 
ATOM      7  C   UNL     1      35.892 -23.503 -13.717  0.00  0.00    +0.046 C 
ATOM      8  C   UNL     1      34.795 -24.390 -13.139  0.00  0.00    +0.033 C 
ATOM      9  C   UNL     1      33.492 -24.140 -13.844  0.00  0.00    +0.012 C 
ATOM     10  C   UNL     1      33.458 -23.486 -15.082  0.00  0.00    +0.134 C 
ATOM     11  C   UNL     1      32.293 -24.586 -13.273  0.00  0.00    -0.001 C 
ATOM     12  C   UNL     1      32.237 -23.249 -15.719  0.00  0.00    +0.037 C 
ATOM     13  C   UNL     1      31.076 -24.360 -13.917  0.00  0.00    -0.000 C 
ATOM     14  C   UNL     1      31.049 -23.688 -15.137  0.00  0.00    +0.003 C 
ENDBRANCH   4   6
ENDBRANCH   1   4
BRANCH   1  15
ATOM     15  C   UNL     1      36.503 -22.003 -18.113  0.00  0.00    -0.053 C 
BRANCH  15  17
ATOM     16  N   UNL     1      32.981 -21.514 -19.357  0.00  0.00    -0.243 NA
ATOM     17  C   UNL     1      35.341 -21.480 -18.913  0.00  0.00    -0.025 C 
ATOM     18  C   UNL     1      35.541 -20.531 -19.897  0.00  0.00    -0.003 C 
ATOM     19  C   UNL     1      34.448 -20.066 -20.619  0.00  0.00    +0.019 C 
ATOM     20  C   UNL     1      34.067 -21.942 -18.675  0.00  0.00    +0.092 C 
ATOM     21  C   UNL     1      33.200 -20.585 -20.314  0.00  0.00    +0.099 C 
BRANCH  19  23
ATOM     22  F   UNL     1      35.060 -16.231 -24.620  0.00  0.00    -0.204 F 
ATOM     23  C   UNL     1      34.608 -19.074 -21.656  0.00  0.00    +0.002 C 
ATOM     24  C   UNL     1      35.188 -17.839 -21.360  0.00  0.00    +0.002 C 
ATOM     25  C   UNL     1      34.180 -19.344 -22.957  0.00  0.00    +0.002 C 
ATOM     26  C   UNL     1      35.340 -16.879 -22.361  0.00  0.00    +0.030 C 
ATOM     27  C   UNL     1      34.333 -18.384 -23.958  0.00  0.00    +0.030 C 
ATOM     28  C   UNL     1      34.913 -17.152 -23.659  0.00  0.00    +0.140 C 
ENDBRANCH  19  23
ENDBRANCH  15  17
ENDBRANCH   1  15
TORSDOF 5
ENDMDL
MODEL 8
REMARK VINA RESULT:     -11.3      5.377     11.410
REMARK  Name = 6918388
REMARK  5 active torsions:
REMARK  status: ('A' for Active; 'I' for Inactive)
REMARK    1  A    between atoms: N_1  and  C_4
REMARK    2  A    between atoms: N_1  and  C_15
REMARK    3  A    between atoms: C_4  and  C_6
REMARK    4  A    between atoms: C_15  and  C_17
REMARK    5  A    between atoms: C_19  and  C_23
REMARK                            x       y       z     vdW  Elec       q    Type
REMARK                         _______ _______ _______ _____ _____    ______ ____
ROOT
ATOM      1  N   UNL     1      35.257 -20.202 -20.049  0.00  0.00    +0.389 N 
ATOM      2  H   UNL     1      34.469 -20.206 -20.696  0.00  0.00    -0.084 HD
ATOM      3  H   UNL     1      34.983 -19.796 -19.155  0.00  0.00    -0.084 HD
ENDROOT
BRANCH   1   4
ATOM      4  C   UNL     1      36.333 -19.400 -20.613  0.00  0.00    -0.037 C 
BRANCH   4   6
ATOM      5  O   UNL     1      35.505 -17.435 -21.678  0.00  0.00    -0.482 OA
ATOM      6  C   UNL     1      35.916 -18.784 -21.943  0.00  0.00    +0.145 C 
ATOM      7  C   UNL     1      34.789 -19.591 -22.586  0.00  0.00    +0.046 C 
ATOM      8  C   UNL     1      34.440 -18.975 -23.934  0.00  0.00    +0.033 C 
ATOM      9  C   UNL     1      34.330 -17.482 -23.817  0.00  0.00    +0.012 C 
ATOM     10  C   UNL     1      34.871 -16.805 -22.716  0.00  0.00    +0.134 C 
ATOM     11  C   UNL     1      33.703 -16.746 -24.831  0.00  0.00    -0.001 C 
ATOM     12  C   UNL     1      34.749 -15.416 -22.614  0.00  0.00    +0.037 C 
ATOM     13  C   UNL     1      33.594 -15.358 -24.733  0.00  0.00    -0.000 C 
ATOM     14  C   UNL     1      34.113 -14.695 -23.623  0.00  0.00    +0.003 C 
ENDBRANCH   4   6
ENDBRANCH   1   4
BRANCH   1  15
ATOM     15  C   UNL     1      35.693 -21.573 -19.821  0.00  0.00    -0.053 C 
BRANCH  15  17
ATOM     16  N   UNL     1      36.873 -22.073 -16.278  0.00  0.00    -0.243 NA
ATOM     17  C   UNL     1      35.682 -21.931 -18.359  0.00  0.00    -0.025 C 
ATOM     18  C   UNL     1      34.535 -22.423 -17.769  0.00  0.00    -0.003 C 
ATOM     19  C   UNL     1      34.554 -22.743 -16.417  0.00  0.00    +0.019 C 
ATOM     20  C   UNL     1      36.815 -21.772 -17.594  0.00  0.00    +0.092 C 
ATOM     21  C   UNL     1      35.738 -22.552 -15.721  0.00  0.00    +0.099 C 
BRANCH  19  23
ATOM     22  F   UNL     1      30.013 -24.734 -13.865  0.00  0.00    -0.204 F 
ATOM     23  C   UNL     1      33.379 -23.260 -15.756  0.00  0.00    +0.002 C 
ATOM     24  C   UNL     1      32.123 -23.124 -16.353  0.00  0.00    +0.002 C 
ATOM     25  C   UNL     1      33.492 -23.895 -14.518  0.00  0.00    +0.002 C 
ATOM     26  C   UNL     1      30.987 -23.622 -15.714  0.00  0.00    +0.030 C 
ATOM     27  C   UNL     1      32.356 -24.392 -13.879  0.00  0.00    +0.030 C 
ATOM     28  C   UNL     1      31.104 -24.256 -14.478  0.00  0.00    +0.140 C 
ENDBRANCH  19  23
ENDBRANCH  15  17
ENDBRANCH   1  15
TORSDOF 5
ENDMDL
MODEL 9
REMARK VINA RESULT:     -11.1      3.582      5.687
REMARK  Name = 6918388
REMARK  5 active torsions:
REMARK  status: ('A' for Active; 'I' for Inactive)
REMARK    1  A    between atoms: N_1  and  C_4
REMARK    2  A    between atoms: N_1  and  C_15
REMARK    3  A    between atoms: C_4  and  C_6
REMARK    4  A    between atoms: C_15  and  C_17
REMARK    5  A    between atoms: C_19  and  C_23
REMARK                            x       y       z     vdW  Elec       q    Type
REMARK                         _______ _______ _______ _____ _____    ______ ____
ROOT
ATOM      1  N   UNL     1      31.558 -12.068 -21.073  0.00  0.00    +0.389 N 
ATOM      2  H   UNL     1      32.214 -12.067 -20.294  0.00  0.00    -0.084 HD
ATOM      3  H   UNL     1      30.965 -12.898 -21.039  0.00  0.00    -0.084 HD
ENDROOT
BRANCH   1   4
ATOM      4  C   UNL     1      32.302 -12.082 -22.325  0.00  0.00    -0.037 C 
BRANCH   4   6
ATOM      5  O   UNL     1      33.085 -14.047 -23.423  0.00  0.00    -0.482 OA
ATOM      6  C   UNL     1      33.363 -13.175 -22.317  0.00  0.00    +0.145 C 
ATOM      7  C   UNL     1      33.349 -13.937 -20.993  0.00  0.00    +0.046 C 
ATOM      8  C   UNL     1      34.457 -14.982 -21.006  0.00  0.00    +0.033 C 
ATOM      9  C   UNL     1      34.459 -15.729 -22.309  0.00  0.00    +0.012 C 
ATOM     10  C   UNL     1      33.792 -15.221 -23.431  0.00  0.00    +0.134 C 
ATOM     11  C   UNL     1      35.158 -16.938 -22.420  0.00  0.00    -0.001 C 
ATOM     12  C   UNL     1      33.791 -15.934 -24.633  0.00  0.00    +0.037 C 
ATOM     13  C   UNL     1      35.167 -17.642 -23.625  0.00  0.00    -0.000 C 
ATOM     14  C   UNL     1      34.480 -17.141 -24.729  0.00  0.00    +0.003 C 
ENDBRANCH   4   6
ENDBRANCH   1   4
BRANCH   1  15
ATOM     15  C   UNL     1      30.709 -10.888 -20.984  0.00  0.00    -0.053 C 
BRANCH  15  17
ATOM     16  N   UNL     1      32.504  -8.073 -19.238  0.00  0.00    -0.243 NA
ATOM     17  C   UNL     1      31.512  -9.633 -20.771  0.00  0.00    -0.025 C 
ATOM     18  C   UNL     1      31.980  -8.912 -21.852  0.00  0.00    -0.003 C 
ATOM     19  C   UNL     1      32.720  -7.758 -21.625  0.00  0.00    +0.019 C 
ATOM     20  C   UNL     1      31.789  -9.190 -19.498  0.00  0.00    +0.092 C 
ATOM     21  C   UNL     1      32.953  -7.384 -20.311  0.00  0.00    +0.099 C 
BRANCH  19  23
ATOM     22  F   UNL     1      34.687  -4.723 -25.870  0.00  0.00    -0.204 F 
ATOM     23  C   UNL     1      33.231  -6.971 -22.724  0.00  0.00    +0.002 C 
ATOM     24  C   UNL     1      32.379  -6.117 -23.428  0.00  0.00    +0.002 C 
ATOM     25  C   UNL     1      34.575  -7.064 -23.087  0.00  0.00    +0.002 C 
ATOM     26  C   UNL     1      32.871  -5.358 -24.490  0.00  0.00    +0.030 C 
ATOM     27  C   UNL     1      35.067  -6.305 -24.149  0.00  0.00    +0.030 C 
ATOM     28  C   UNL     1      34.215  -5.452 -24.850  0.00  0.00    +0.140 C 
ENDBRANCH  19  23
ENDBRANCH  15  17
ENDBRANCH   1  15
TORSDOF 5
ENDMDL
