MODEL 1
REMARK VINA RESULT:     -12.3      0.000      0.000
REMARK  Name = 3151
REMARK  5 active torsions:
REMARK  status: ('A' for Active; 'I' for Inactive)
REMARK    1  A    between atoms: N_1  and  C_20
REMARK    2  A    between atoms: C_2  and  N_10
REMARK    3  A    between atoms: C_20  and  C_21
REMARK    4  A    between atoms: C_21  and  C_22
REMARK    5  A    between atoms: C_22  and  N_24
REMARK                            x       y       z     vdW  Elec       q    Type
REMARK                         _______ _______ _______ _____ _____    ______ ____
ROOT
ATOM      1  N   UNL     1      34.760 -16.700 -24.169  0.00  0.00    +0.387 N 
ATOM      2  C   UNL     1      34.639 -18.526 -21.887  0.00  0.00    +0.086 C 
ATOM      3  C   UNL     1      35.203 -17.110 -21.769  0.00  0.00    -0.000 C 
ATOM      4  C   UNL     1      34.760 -19.025 -23.327  0.00  0.00    -0.000 C 
ATOM      5  C   UNL     1      34.578 -16.176 -22.807  0.00  0.00    -0.075 C 
ATOM      6  C   UNL     1      34.148 -18.028 -24.313  0.00  0.00    -0.075 C 
ATOM      7  H   UNL     1      35.760 -16.793 -24.339  0.00  0.00    -0.080 HD
ENDROOT
BRANCH   2  10
ATOM      8 CL   UNL     1      33.445 -23.562 -17.273  0.00  0.00    -0.082 Cl
ATOM      9  O   UNL     1      37.593 -18.850 -21.253  0.00  0.00    -0.247 OA
ATOM     10  N   UNL     1      35.302 -19.420 -20.970  0.00  0.00    -0.282 N 
ATOM     11  N   UNL     1      36.862 -20.527 -19.754  0.00  0.00    -0.305 N 
ATOM     12  C   UNL     1      34.640 -20.355 -20.163  0.00  0.00    +0.079 A 
ATOM     13  C   UNL     1      36.701 -19.506 -20.734  0.00  0.00    +0.328 A 
ATOM     14  C   UNL     1      35.605 -21.031 -19.418  0.00  0.00    +0.077 A 
ATOM     15  C   UNL     1      33.298 -20.646 -20.038  0.00  0.00    +0.020 C 
ATOM     16  C   UNL     1      35.283 -22.023 -18.519  0.00  0.00    +0.030 C 
ATOM     17  C   UNL     1      32.945 -21.650 -19.130  0.00  0.00    +0.013 C 
ATOM     18  C   UNL     1      33.927 -22.331 -18.380  0.00  0.00    +0.059 C 
ATOM     19  H   UNL     1      37.720 -20.827 -19.376  0.00  0.00    +0.170 HD
ENDBRANCH   2  10
BRANCH   1  20
ATOM     20  C   UNL     1      34.200 -15.770 -25.152  0.00  0.00    -0.075 C 
BRANCH  20  21
ATOM     21  C   UNL     1      33.454 -14.612 -24.484  0.00  0.00    +0.002 C 
BRANCH  21  22
ATOM     22  C   UNL     1      34.318 -13.751 -23.565  0.00  0.00    +0.108 C 
BRANCH  22  24
ATOM     23  O   UNL     1      34.624 -11.155 -25.075  0.00  0.00    -0.247 OA
ATOM     24  N   UNL     1      33.730 -12.466 -23.301  0.00  0.00    -0.280 N 
ATOM     25  N   UNL     1      33.160 -10.270 -23.442  0.00  0.00    -0.305 N 
ATOM     26  C   UNL     1      32.862 -12.165 -22.239  0.00  0.00    +0.079 A 
ATOM     27  C   UNL     1      33.933 -11.285 -24.074  0.00  0.00    +0.328 A 
ATOM     28  C   UNL     1      32.516 -10.818 -22.331  0.00  0.00    +0.076 A 
ATOM     29  C   UNL     1      32.370 -12.967 -21.230  0.00  0.00    +0.019 C 
ATOM     30  C   UNL     1      31.671 -10.208 -21.432  0.00  0.00    +0.019 C 
ATOM     31  C   UNL     1      31.509 -12.370 -20.303  0.00  0.00    +0.002 C 
ATOM     32  C   UNL     1      31.163 -11.006 -20.403  0.00  0.00    +0.002 C 
ATOM     33  H   UNL     1      33.090  -9.333 -23.740  0.00  0.00    +0.170 HD
ENDBRANCH  22  24
ENDBRANCH  21  22
ENDBRANCH  20  21
ENDBRANCH   1  20
TORSDOF 5
ENDMDL
MODEL 2
REMARK VINA RESULT:     -12.2      3.676      9.571
REMARK  Name = 3151
REMARK  5 active torsions:
REMARK  status: ('A' for Active; 'I' for Inactive)
REMARK    1  A    between atoms: N_1  and  C_20
REMARK    2  A    between atoms: C_2  and  N_10
REMARK    3  A    between atoms: C_20  and  C_21
REMARK    4  A    between atoms: C_21  and  C_22
REMARK    5  A    between atoms: C_22  and  N_24
REMARK                            x       y       z     vdW  Elec       q    Type
REMARK                         _______ _______ _______ _____ _____    ______ ____
ROOT
ATOM      1  N   UNL     1      34.007 -16.098 -23.954  0.00  0.00    +0.387 N 
ATOM      2  C   UNL     1      34.027 -13.195 -23.595  0.00  0.00    +0.086 C 
ATOM      3  C   UNL     1      34.423 -14.158 -22.476  0.00  0.00    -0.000 C 
ATOM      4  C   UNL     1      33.089 -13.889 -24.582  0.00  0.00    -0.000 C 
ATOM      5  C   UNL     1      34.972 -15.469 -23.041  0.00  0.00    -0.075 C 
ATOM      6  C   UNL     1      33.683 -15.209 -25.078  0.00  0.00    -0.075 C 
ATOM      7  H   UNL     1      33.148 -16.273 -23.434  0.00  0.00    -0.080 HD
ENDROOT
BRANCH   2  10
ATOM      8 CL   UNL     1      34.509  -6.278 -23.633  0.00  0.00    -0.082 Cl
ATOM      9  O   UNL     1      31.670 -12.872 -21.706  0.00  0.00    -0.247 OA
ATOM     10  N   UNL     1      33.423 -12.002 -23.056  0.00  0.00    -0.282 N 
ATOM     11  N   UNL     1      32.093 -10.555 -21.927  0.00  0.00    -0.305 N 
ATOM     12  C   UNL     1      33.859 -10.701 -23.337  0.00  0.00    +0.079 A 
ATOM     13  C   UNL     1      32.313 -11.941 -22.171  0.00  0.00    +0.328 A 
ATOM     14  C   UNL     1      33.037  -9.817 -22.640  0.00  0.00    +0.077 A 
ATOM     15  C   UNL     1      34.890 -10.249 -24.135  0.00  0.00    +0.020 C 
ATOM     16  C   UNL     1      33.201  -8.451 -22.702  0.00  0.00    +0.030 C 
ATOM     17  C   UNL     1      35.077  -8.866 -24.213  0.00  0.00    +0.013 C 
ATOM     18  C   UNL     1      34.241  -7.977 -23.505  0.00  0.00    +0.059 C 
ATOM     19  H   UNL     1      31.389 -10.180 -21.350  0.00  0.00    +0.170 HD
ENDBRANCH   2  10
BRANCH   1  20
ATOM     20  C   UNL     1      34.526 -17.375 -24.446  0.00  0.00    -0.075 C 
BRANCH  20  21
ATOM     21  C   UNL     1      34.521 -18.452 -23.358  0.00  0.00    +0.002 C 
BRANCH  21  22
ATOM     22  C   UNL     1      34.931 -17.953 -21.974  0.00  0.00    +0.108 C 
BRANCH  22  24
ATOM     23  O   UNL     1      37.764 -18.646 -21.195  0.00  0.00    -0.247 OA
ATOM     24  N   UNL     1      35.414 -19.010 -21.128  0.00  0.00    -0.280 N 
ATOM     25  N   UNL     1      36.777 -20.398 -19.952  0.00  0.00    -0.305 N 
ATOM     26  C   UNL     1      34.616 -19.964 -20.474  0.00  0.00    +0.079 A 
ATOM     27  C   UNL     1      36.781 -19.264 -20.813  0.00  0.00    +0.328 A 
ATOM     28  C   UNL     1      35.458 -20.811 -19.755  0.00  0.00    +0.076 A 
ATOM     29  C   UNL     1      33.247 -20.133 -20.466  0.00  0.00    +0.019 C 
ATOM     30  C   UNL     1      34.982 -21.859 -19.001  0.00  0.00    +0.019 C 
ATOM     31  C   UNL     1      32.739 -21.192 -19.707  0.00  0.00    +0.002 C 
ATOM     32  C   UNL     1      33.597 -22.045 -18.981  0.00  0.00    +0.002 C 
ATOM     33  H   UNL     1      37.574 -20.822 -19.559  0.00  0.00    +0.170 HD
ENDBRANCH  22  24
ENDBRANCH  21  22
ENDBRANCH  20  21
ENDBRANCH   1  20
TORSDOF 5
ENDMDL
MODEL 3
REMARK VINA RESULT:     -12.2      3.936      7.050
REMARK  Name = 3151
REMARK  5 active torsions:
REMARK  status: ('A' for Active; 'I' for Inactive)
REMARK    1  A    between atoms: N_1  and  C_20
REMARK    2  A    between atoms: C_2  and  N_10
REMARK    3  A    between atoms: C_20  and  C_21
REMARK    4  A    between atoms: C_21  and  C_22
REMARK    5  A    between atoms: C_22  and  N_24
REMARK                            x       y       z     vdW  Elec       q    Type
REMARK                         _______ _______ _______ _____ _____    ______ ____
ROOT
ATOM      1  N   UNL     1      31.804 -10.217 -22.298  0.00  0.00    +0.387 N 
ATOM      2  C   UNL     1      33.410 -12.586 -22.903  0.00  0.00    +0.086 C 
ATOM      3  C   UNL     1      33.458 -11.326 -23.767  0.00  0.00    -0.000 C 
ATOM      4  C   UNL     1      32.073 -12.672 -22.168  0.00  0.00    -0.000 C 
ATOM      5  C   UNL     1      33.115 -10.080 -22.949  0.00  0.00    -0.075 C 
ATOM      6  C   UNL     1      31.776 -11.382 -21.402  0.00  0.00    -0.075 C 
ATOM      7  H   UNL     1      31.105 -10.363 -23.025  0.00  0.00    -0.080 HD
ENDROOT
BRANCH   2  10
ATOM      8 CL   UNL     1      35.733 -19.109 -22.549  0.00  0.00    -0.082 Cl
ATOM      9  O   UNL     1      32.929 -13.076 -25.863  0.00  0.00    -0.247 OA
ATOM     10  N   UNL     1      33.641 -13.764 -23.701  0.00  0.00    -0.282 N 
ATOM     11  N   UNL     1      33.772 -15.240 -25.417  0.00  0.00    -0.305 N 
ATOM     12  C   UNL     1      34.164 -14.965 -23.203  0.00  0.00    +0.079 A 
ATOM     13  C   UNL     1      33.385 -13.909 -25.092  0.00  0.00    +0.328 A 
ATOM     14  C   UNL     1      34.241 -15.867 -24.263  0.00  0.00    +0.077 A 
ATOM     15  C   UNL     1      34.562 -15.313 -21.929  0.00  0.00    +0.020 C 
ATOM     16  C   UNL     1      34.717 -17.150 -24.107  0.00  0.00    +0.030 C 
ATOM     17  C   UNL     1      35.050 -16.611 -21.746  0.00  0.00    +0.013 C 
ATOM     18  C   UNL     1      35.126 -17.519 -22.823  0.00  0.00    +0.059 C 
ATOM     19  H   UNL     1      33.716 -15.650 -26.310  0.00  0.00    +0.170 HD
ENDBRANCH   2  10
BRANCH   1  20
ATOM     20  C   UNL     1      31.469  -8.998 -21.561  0.00  0.00    -0.075 C 
BRANCH  20  21
ATOM     21  C   UNL     1      32.633  -8.517 -20.691  0.00  0.00    +0.002 C 
BRANCH  21  22
ATOM     22  C   UNL     1      32.659  -7.010 -20.446  0.00  0.00    +0.108 C 
BRANCH  22  24
ATOM     23  O   UNL     1      30.222  -5.335 -21.056  0.00  0.00    -0.247 OA
ATOM     24  N   UNL     1      32.342  -6.254 -21.627  0.00  0.00    -0.280 N 
ATOM     25  N   UNL     1      31.279  -4.921 -23.130  0.00  0.00    -0.305 N 
ATOM     26  C   UNL     1      33.147  -6.150 -22.774  0.00  0.00    +0.079 A 
ATOM     27  C   UNL     1      31.158  -5.487 -21.830  0.00  0.00    +0.328 A 
ATOM     28  C   UNL     1      32.490  -5.332 -23.691  0.00  0.00    +0.076 A 
ATOM     29  C   UNL     1      34.378  -6.707 -23.057  0.00  0.00    +0.019 C 
ATOM     30  C   UNL     1      33.020  -5.030 -24.924  0.00  0.00    +0.019 C 
ATOM     31  C   UNL     1      34.937  -6.414 -24.305  0.00  0.00    +0.002 C 
ATOM     32  C   UNL     1      34.267  -5.584 -25.228  0.00  0.00    +0.002 C 
ATOM     33  H   UNL     1      30.617  -4.336 -23.565  0.00  0.00    +0.170 HD
ENDBRANCH  22  24
ENDBRANCH  21  22
ENDBRANCH  20  21
ENDBRANCH   1  20
TORSDOF 5
ENDMDL
MODEL 4
REMARK VINA RESULT:     -12.0      4.101     10.101
REMARK  Name = 3151
REMARK  5 active torsions:
REMARK  status: ('A' for Active; 'I' for Inactive)
REMARK    1  A    between atoms: N_1  and  C_20
REMARK    2  A    between atoms: C_2  and  N_10
REMARK    3  A    between atoms: C_20  and  C_21
REMARK    4  A    between atoms: C_21  and  C_22
REMARK    5  A    between atoms: C_22  and  N_24
REMARK                            x       y       z     vdW  Elec       q    Type
REMARK                         _______ _______ _______ _____ _____    ______ ____
ROOT
ATOM      1  N   UNL     1      35.437 -21.047 -20.145  0.00  0.00    +0.387 N 
ATOM      2  C   UNL     1      34.852 -18.483 -21.425  0.00  0.00    +0.086 C 
ATOM      3  C   UNL     1      33.805 -19.589 -21.300  0.00  0.00    -0.000 C 
ATOM      4  C   UNL     1      36.259 -19.081 -21.401  0.00  0.00    -0.000 C 
ATOM      5  C   UNL     1      34.082 -20.480 -20.087  0.00  0.00    -0.075 C 
ATOM      6  C   UNL     1      36.455 -19.988 -20.184  0.00  0.00    -0.075 C 
ATOM      7  H   UNL     1      35.515 -21.590 -21.004  0.00  0.00    -0.080 HD
ENDROOT
BRANCH   2  10
ATOM      8 CL   UNL     1      33.938 -11.995 -23.695  0.00  0.00    -0.082 Cl
ATOM      9  O   UNL     1      34.617 -19.371 -24.322  0.00  0.00    -0.247 OA
ATOM     10  N   UNL     1      34.639 -17.708 -22.622  0.00  0.00    -0.282 N 
ATOM     11  N   UNL     1      34.331 -17.067 -24.775  0.00  0.00    -0.305 N 
ATOM     12  C   UNL     1      34.495 -16.315 -22.644  0.00  0.00    +0.079 A 
ATOM     13  C   UNL     1      34.541 -18.209 -23.949  0.00  0.00    +0.328 A 
ATOM     14  C   UNL     1      34.306 -15.928 -23.970  0.00  0.00    +0.077 A 
ATOM     15  C   UNL     1      34.517 -15.391 -21.620  0.00  0.00    +0.020 C 
ATOM     16  C   UNL     1      34.131 -14.613 -24.338  0.00  0.00    +0.030 C 
ATOM     17  C   UNL     1      34.340 -14.048 -21.969  0.00  0.00    +0.013 C 
ATOM     18  C   UNL     1      34.150 -13.664 -23.313  0.00  0.00    +0.059 C 
ATOM     19  H   UNL     1      34.223 -17.081 -25.753  0.00  0.00    +0.170 HD
ENDBRANCH   2  10
BRANCH   1  20
ATOM     20  C   UNL     1      35.668 -21.936 -19.005  0.00  0.00    -0.075 C 
BRANCH  20  21
ATOM     21  C   UNL     1      34.480 -21.947 -18.039  0.00  0.00    +0.002 C 
BRANCH  21  22
ATOM     22  C   UNL     1      34.007 -23.341 -17.635  0.00  0.00    +0.108 C 
BRANCH  22  24
ATOM     23  O   UNL     1      35.972 -23.841 -15.399  0.00  0.00    -0.247 OA
ATOM     24  N   UNL     1      33.773 -23.456 -16.221  0.00  0.00    -0.280 N 
ATOM     25  N   UNL     1      34.080 -23.730 -13.986  0.00  0.00    -0.305 N 
ATOM     26  C   UNL     1      32.524 -23.352 -15.587  0.00  0.00    +0.079 A 
ATOM     27  C   UNL     1      34.770 -23.695 -15.230  0.00  0.00    +0.328 A 
ATOM     28  C   UNL     1      32.719 -23.521 -14.218  0.00  0.00    +0.076 A 
ATOM     29  C   UNL     1      31.268 -23.126 -16.114  0.00  0.00    +0.019 C 
ATOM     30  C   UNL     1      31.684 -23.474 -13.312  0.00  0.00    +0.019 C 
ATOM     31  C   UNL     1      30.199 -23.074 -15.213  0.00  0.00    +0.002 C 
ATOM     32  C   UNL     1      30.404 -23.246 -13.827  0.00  0.00    +0.002 C 
ATOM     33  H   UNL     1      34.494 -23.879 -13.105  0.00  0.00    +0.170 HD
ENDBRANCH  22  24
ENDBRANCH  21  22
ENDBRANCH  20  21
ENDBRANCH   1  20
TORSDOF 5
ENDMDL
MODEL 5
REMARK VINA RESULT:     -12.0      2.871      4.434
REMARK  Name = 3151
REMARK  5 active torsions:
REMARK  status: ('A' for Active; 'I' for Inactive)
REMARK    1  A    between atoms: N_1  and  C_20
REMARK    2  A    between atoms: C_2  and  N_10
REMARK    3  A    between atoms: C_20  and  C_21
REMARK    4  A    between atoms: C_21  and  C_22
REMARK    5  A    between atoms: C_22  and  N_24
REMARK                            x       y       z     vdW  Elec       q    Type
REMARK                         _______ _______ _______ _____ _____    ______ ____
ROOT
ATOM      1  N   UNL     1      35.661 -19.272 -20.732  0.00  0.00    +0.387 N 
ATOM      2  C   UNL     1      35.011 -21.656 -19.166  0.00  0.00    +0.086 C 
ATOM      3  C   UNL     1      33.932 -20.725 -19.720  0.00  0.00    -0.000 C 
ATOM      4  C   UNL     1      36.325 -20.896 -18.989  0.00  0.00    -0.000 C 
ATOM      5  C   UNL     1      34.413 -20.009 -20.983  0.00  0.00    -0.075 C 
ATOM      6  C   UNL     1      36.727 -20.174 -20.277  0.00  0.00    -0.075 C 
ATOM      7  H   UNL     1      35.483 -18.596 -19.991  0.00  0.00    -0.080 HD
ENDROOT
BRANCH   2  10
ATOM      8 CL   UNL     1      37.300 -23.579 -12.910  0.00  0.00    -0.082 Cl
ATOM      9  O   UNL     1      32.275 -22.665 -18.311  0.00  0.00    -0.247 OA
ATOM     10  N   UNL     1      34.585 -22.253 -17.925  0.00  0.00    -0.282 N 
ATOM     11  N   UNL     1      33.354 -23.208 -16.278  0.00  0.00    -0.305 N 
ATOM     12  C   UNL     1      35.428 -22.482 -16.830  0.00  0.00    +0.079 A 
ATOM     13  C   UNL     1      33.274 -22.700 -17.606  0.00  0.00    +0.328 A 
ATOM     14  C   UNL     1      34.665 -23.069 -15.821  0.00  0.00    +0.077 A 
ATOM     15  C   UNL     1      36.772 -22.220 -16.658  0.00  0.00    +0.020 C 
ATOM     16  C   UNL     1      35.199 -23.421 -14.602  0.00  0.00    +0.030 C 
ATOM     17  C   UNL     1      37.337 -22.571 -15.428  0.00  0.00    +0.013 C 
ATOM     18  C   UNL     1      36.559 -23.165 -14.411  0.00  0.00    +0.059 C 
ATOM     19  H   UNL     1      32.607 -23.593 -15.766  0.00  0.00    +0.170 HD
ENDBRANCH   2  10
BRANCH   1  20
ATOM     20  C   UNL     1      36.080 -18.553 -21.936  0.00  0.00    -0.075 C 
BRANCH  20  21
ATOM     21  C   UNL     1      34.913 -17.811 -22.594  0.00  0.00    +0.002 C 
BRANCH  21  22
ATOM     22  C   UNL     1      35.332 -16.725 -23.583  0.00  0.00    +0.108 C 
BRANCH  22  24
ATOM     23  O   UNL     1      33.836 -15.703 -25.998  0.00  0.00    -0.247 OA
ATOM     24  N   UNL     1      34.367 -15.664 -23.679  0.00  0.00    -0.280 N 
ATOM     25  N   UNL     1      32.850 -14.176 -24.485  0.00  0.00    -0.305 N 
ATOM     26  C   UNL     1      33.919 -14.866 -22.613  0.00  0.00    +0.079 A 
ATOM     27  C   UNL     1      33.706 -15.246 -24.871  0.00  0.00    +0.328 A 
ATOM     28  C   UNL     1      32.990 -13.957 -23.114  0.00  0.00    +0.076 A 
ATOM     29  C   UNL     1      34.261 -14.884 -21.276  0.00  0.00    +0.019 C 
ATOM     30  C   UNL     1      32.360 -13.028 -22.317  0.00  0.00    +0.019 C 
ATOM     31  C   UNL     1      33.634 -13.949 -20.445  0.00  0.00    +0.002 C 
ATOM     32  C   UNL     1      32.694 -13.032 -20.960  0.00  0.00    +0.002 C 
ATOM     33  H   UNL     1      32.256 -13.671 -25.088  0.00  0.00    +0.170 HD
ENDBRANCH  22  24
ENDBRANCH  21  22
ENDBRANCH  20  21
ENDBRANCH   1  20
TORSDOF 5
ENDMDL
MODEL 6
REMARK VINA RESULT:     -11.7      2.534      8.789
REMARK  Name = 3151
REMARK  5 active torsions:
REMARK  status: ('A' for Active; 'I' for Inactive)
REMARK    1  A    between atoms: N_1  and  C_20
REMARK    2  A    between atoms: C_2  and  N_10
REMARK    3  A    between atoms: C_20  and  C_21
REMARK    4  A    between atoms: C_21  and  C_22
REMARK    5  A    between atoms: C_22  and  N_24
REMARK                            x       y       z     vdW  Elec       q    Type
REMARK                         _______ _______ _______ _____ _____    ______ ____
ROOT
ATOM      1  N   UNL     1      33.788 -16.752 -24.033  0.00  0.00    +0.387 N 
ATOM      2  C   UNL     1      34.190 -13.856 -24.142  0.00  0.00    +0.086 C 
ATOM      3  C   UNL     1      34.596 -14.691 -22.928  0.00  0.00    -0.000 C 
ATOM      4  C   UNL     1      33.069 -14.555 -24.913  0.00  0.00    -0.000 C 
ATOM      5  C   UNL     1      34.918 -16.132 -23.328  0.00  0.00    -0.075 C 
ATOM      6  C   UNL     1      33.443 -16.000 -25.248  0.00  0.00    -0.075 C 
ATOM      7  H   UNL     1      32.980 -16.733 -23.412  0.00  0.00    -0.080 HD
ENDROOT
BRANCH   2  10
ATOM      8 CL   UNL     1      30.711 -10.379 -19.255  0.00  0.00    -0.082 Cl
ATOM      9  O   UNL     1      34.740 -11.170 -25.451  0.00  0.00    -0.247 OA
ATOM     10  N   UNL     1      33.796 -12.528 -23.743  0.00  0.00    -0.282 N 
ATOM     11  N   UNL     1      33.497 -10.283 -23.645  0.00  0.00    -0.305 N 
ATOM     12  C   UNL     1      33.038 -12.240 -22.601  0.00  0.00    +0.079 A 
ATOM     13  C   UNL     1      34.099 -11.315 -24.420  0.00  0.00    +0.328 A 
ATOM     14  C   UNL     1      32.858 -10.859 -22.547  0.00  0.00    +0.077 A 
ATOM     15  C   UNL     1      32.512 -13.074 -21.636  0.00  0.00    +0.020 C 
ATOM     16  C   UNL     1      32.151 -10.245 -21.537  0.00  0.00    +0.030 C 
ATOM     17  C   UNL     1      31.788 -12.474 -20.600  0.00  0.00    +0.013 C 
ATOM     18  C   UNL     1      31.610 -11.075 -20.551  0.00  0.00    +0.059 C 
ATOM     19  H   UNL     1      33.528  -9.321 -23.851  0.00  0.00    +0.170 HD
ENDBRANCH   2  10
BRANCH   1  20
ATOM     20  C   UNL     1      34.094 -18.144 -24.364  0.00  0.00    -0.075 C 
BRANCH  20  21
ATOM     21  C   UNL     1      35.009 -18.792 -23.321  0.00  0.00    +0.002 C 
BRANCH  21  22
ATOM     22  C   UNL     1      34.572 -18.572 -21.874  0.00  0.00    +0.108 C 
BRANCH  22  24
ATOM     23  O   UNL     1      37.519 -18.674 -21.228  0.00  0.00    -0.247 OA
ATOM     24  N   UNL     1      35.276 -19.419 -20.951  0.00  0.00    -0.280 N 
ATOM     25  N   UNL     1      36.921 -20.401 -19.727  0.00  0.00    -0.305 N 
ATOM     26  C   UNL     1      34.694 -20.406 -20.137  0.00  0.00    +0.079 A 
ATOM     27  C   UNL     1      36.681 -19.398 -20.709  0.00  0.00    +0.328 A 
ATOM     28  C   UNL     1      35.708 -21.003 -19.391  0.00  0.00    +0.076 A 
ATOM     29  C   UNL     1      33.378 -20.802 -20.013  0.00  0.00    +0.019 C 
ATOM     30  C   UNL     1      35.464 -22.015 -18.490  0.00  0.00    +0.019 C 
ATOM     31  C   UNL     1      33.105 -21.829 -19.104  0.00  0.00    +0.002 C 
ATOM     32  C   UNL     1      34.136 -22.429 -18.350  0.00  0.00    +0.002 C 
ATOM     33  H   UNL     1      37.800 -20.632 -19.347  0.00  0.00    +0.170 HD
ENDBRANCH  22  24
ENDBRANCH  21  22
ENDBRANCH  20  21
ENDBRANCH   1  20
TORSDOF 5
ENDMDL
MODEL 7
REMARK VINA RESULT:     -11.6      2.989      4.904
REMARK  Name = 3151
REMARK  5 active torsions:
REMARK  status: ('A' for Active; 'I' for Inactive)
REMARK    1  A    between atoms: N_1  and  C_20
REMARK    2  A    between atoms: C_2  and  N_10
REMARK    3  A    between atoms: C_20  and  C_21
REMARK    4  A    between atoms: C_21  and  C_22
REMARK    5  A    between atoms: C_22  and  N_24
REMARK                            x       y       z     vdW  Elec       q    Type
REMARK                         _______ _______ _______ _____ _____    ______ ____
ROOT
ATOM      1  N   UNL     1      35.272 -20.251 -20.235  0.00  0.00    +0.387 N 
ATOM      2  C   UNL     1      34.963 -22.332 -18.203  0.00  0.00    +0.086 C 
ATOM      3  C   UNL     1      33.789 -21.478 -18.680  0.00  0.00    -0.000 C 
ATOM      4  C   UNL     1      36.281 -21.585 -18.414  0.00  0.00    -0.000 C 
ATOM      5  C   UNL     1      34.006 -20.987 -20.113  0.00  0.00    -0.075 C 
ATOM      6  C   UNL     1      36.415 -21.093 -19.856  0.00  0.00    -0.075 C 
ATOM      7  H   UNL     1      35.239 -19.459 -19.595  0.00  0.00    -0.080 HD
ENDROOT
BRANCH   2  10
ATOM      8 CL   UNL     1      30.175 -24.199 -13.549  0.00  0.00    -0.082 Cl
ATOM      9  O   UNL     1      37.017 -22.612 -15.982  0.00  0.00    -0.247 OA
ATOM     10  N   UNL     1      34.795 -22.710 -16.822  0.00  0.00    -0.282 N 
ATOM     11  N   UNL     1      35.163 -23.216 -14.643  0.00  0.00    -0.305 N 
ATOM     12  C   UNL     1      33.564 -23.033 -16.237  0.00  0.00    +0.079 A 
ATOM     13  C   UNL     1      35.819 -22.817 -15.843  0.00  0.00    +0.328 A 
ATOM     14  C   UNL     1      33.797 -23.343 -14.899  0.00  0.00    +0.077 A 
ATOM     15  C   UNL     1      32.294 -23.074 -16.776  0.00  0.00    +0.020 C 
ATOM     16  C   UNL     1      32.786 -23.706 -14.037  0.00  0.00    +0.030 C 
ATOM     17  C   UNL     1      31.250 -23.440 -15.920  0.00  0.00    +0.013 C 
ATOM     18  C   UNL     1      31.494 -23.752 -14.567  0.00  0.00    +0.059 C 
ATOM     19  H   UNL     1      35.602 -23.377 -13.777  0.00  0.00    +0.170 HD
ENDBRANCH   2  10
BRANCH   1  20
ATOM     20  C   UNL     1      35.440 -19.746 -21.599  0.00  0.00    -0.075 C 
BRANCH  20  21
ATOM     21  C   UNL     1      34.737 -18.401 -21.801  0.00  0.00    +0.002 C 
BRANCH  21  22
ATOM     22  C   UNL     1      35.551 -17.374 -22.585  0.00  0.00    +0.108 C 
BRANCH  22  24
ATOM     23  O   UNL     1      34.627 -16.992 -25.433  0.00  0.00    -0.247 OA
ATOM     24  N   UNL     1      34.732 -16.335 -23.149  0.00  0.00    -0.280 N 
ATOM     25  N   UNL     1      33.546 -15.058 -24.607  0.00  0.00    -0.305 N 
ATOM     26  C   UNL     1      34.184 -15.251 -22.443  0.00  0.00    +0.079 A 
ATOM     27  C   UNL     1      34.343 -16.234 -24.516  0.00  0.00    +0.328 A 
ATOM     28  C   UNL     1      33.458 -14.473 -23.343  0.00  0.00    +0.076 A 
ATOM     29  C   UNL     1      34.275 -14.913 -21.108  0.00  0.00    +0.019 C 
ATOM     30  C   UNL     1      32.793 -13.330 -22.962  0.00  0.00    +0.019 C 
ATOM     31  C   UNL     1      33.607 -13.755 -20.697  0.00  0.00    +0.002 C 
ATOM     32  C   UNL     1      32.874 -12.972 -21.613  0.00  0.00    +0.002 C 
ATOM     33  H   UNL     1      33.125 -14.713 -25.428  0.00  0.00    +0.170 HD
ENDBRANCH  22  24
ENDBRANCH  21  22
ENDBRANCH  20  21
ENDBRANCH   1  20
TORSDOF 5
ENDMDL
MODEL 8
REMARK VINA RESULT:     -11.5      4.042     10.161
REMARK  Name = 3151
REMARK  5 active torsions:
REMARK  status: ('A' for Active; 'I' for Inactive)
REMARK    1  A    between atoms: N_1  and  C_20
REMARK    2  A    between atoms: C_2  and  N_10
REMARK    3  A    between atoms: C_20  and  C_21
REMARK    4  A    between atoms: C_21  and  C_22
REMARK    5  A    between atoms: C_22  and  N_24
REMARK                            x       y       z     vdW  Elec       q    Type
REMARK                         _______ _______ _______ _____ _____    ______ ____
ROOT
ATOM      1  N   UNL     1      35.953 -20.557 -20.557  0.00  0.00    +0.387 N 
ATOM      2  C   UNL     1      34.922 -18.087 -21.735  0.00  0.00    +0.086 C 
ATOM      3  C   UNL     1      34.075 -19.354 -21.628  0.00  0.00    -0.000 C 
ATOM      4  C   UNL     1      36.408 -18.444 -21.759  0.00  0.00    -0.000 C 
ATOM      5  C   UNL     1      34.526 -20.224 -20.453  0.00  0.00    -0.075 C 
ATOM      6  C   UNL     1      36.781 -19.344 -20.579  0.00  0.00    -0.075 C 
ATOM      7  H   UNL     1      36.098 -21.053 -21.435  0.00  0.00    -0.080 HD
ENDROOT
BRANCH   2  10
ATOM      8 CL   UNL     1      33.652 -11.623 -23.902  0.00  0.00    -0.082 Cl
ATOM      9  O   UNL     1      34.347 -18.993 -24.578  0.00  0.00    -0.247 OA
ATOM     10  N   UNL     1      34.554 -17.321 -22.900  0.00  0.00    -0.282 N 
ATOM     11  N   UNL     1      33.978 -16.696 -25.002  0.00  0.00    -0.305 N 
ATOM     12  C   UNL     1      34.390 -15.929 -22.910  0.00  0.00    +0.079 A 
ATOM     13  C   UNL     1      34.302 -17.830 -24.203  0.00  0.00    +0.328 A 
ATOM     14  C   UNL     1      34.036 -15.553 -24.204  0.00  0.00    +0.077 A 
ATOM     15  C   UNL     1      34.524 -15.000 -21.900  0.00  0.00    +0.020 C 
ATOM     16  C   UNL     1      33.801 -14.241 -24.553  0.00  0.00    +0.030 C 
ATOM     17  C   UNL     1      34.289 -13.661 -22.230  0.00  0.00    +0.013 C 
ATOM     18  C   UNL     1      33.932 -13.287 -23.542  0.00  0.00    +0.059 C 
ATOM     19  H   UNL     1      33.752 -16.716 -25.959  0.00  0.00    +0.170 HD
ENDBRANCH   2  10
BRANCH   1  20
ATOM     20  C   UNL     1      36.356 -21.430 -19.453  0.00  0.00    -0.075 C 
BRANCH  20  21
ATOM     21  C   UNL     1      35.203 -21.688 -18.478  0.00  0.00    +0.002 C 
BRANCH  21  22
ATOM     22  C   UNL     1      35.604 -22.441 -17.211  0.00  0.00    +0.108 C 
BRANCH  22  24
ATOM     23  O   UNL     1      32.732 -22.740 -18.091  0.00  0.00    -0.247 OA
ATOM     24  N   UNL     1      34.468 -22.923 -16.474  0.00  0.00    -0.280 N 
ATOM     25  N   UNL     1      32.360 -23.549 -15.900  0.00  0.00    -0.305 N 
ATOM     26  C   UNL     1      34.485 -23.365 -15.141  0.00  0.00    +0.079 A 
ATOM     27  C   UNL     1      33.137 -23.030 -16.973  0.00  0.00    +0.328 A 
ATOM     28  C   UNL     1      33.190 -23.748 -14.796  0.00  0.00    +0.076 A 
ATOM     29  C   UNL     1      35.526 -23.452 -14.239  0.00  0.00    +0.019 C 
ATOM     30  C   UNL     1      32.870 -24.232 -13.548  0.00  0.00    +0.019 C 
ATOM     31  C   UNL     1      35.226 -23.942 -12.964  0.00  0.00    +0.002 C 
ATOM     32  C   UNL     1      33.912 -24.328 -12.622  0.00  0.00    +0.002 C 
ATOM     33  H   UNL     1      31.393 -23.738 -15.931  0.00  0.00    +0.170 HD
ENDBRANCH  22  24
ENDBRANCH  21  22
ENDBRANCH  20  21
ENDBRANCH   1  20
TORSDOF 5
ENDMDL
MODEL 9
REMARK VINA RESULT:     -11.5      3.549      6.079
REMARK  Name = 3151
REMARK  5 active torsions:
REMARK  status: ('A' for Active; 'I' for Inactive)
REMARK    1  A    between atoms: N_1  and  C_20
REMARK    2  A    between atoms: C_2  and  N_10
REMARK    3  A    between atoms: C_20  and  C_21
REMARK    4  A    between atoms: C_21  and  C_22
REMARK    5  A    between atoms: C_22  and  N_24
REMARK                            x       y       z     vdW  Elec       q    Type
REMARK                         _______ _______ _______ _____ _____    ______ ____
ROOT
ATOM      1  N   UNL     1      34.684 -20.541 -19.767  0.00  0.00    +0.387 N 
ATOM      2  C   UNL     1      34.355 -22.683 -17.802  0.00  0.00    +0.086 C 
ATOM      3  C   UNL     1      33.175 -21.854 -18.310  0.00  0.00    -0.000 C 
ATOM      4  C   UNL     1      35.655 -21.889 -17.935  0.00  0.00    -0.000 C 
ATOM      5  C   UNL     1      33.439 -21.321 -19.719  0.00  0.00    -0.075 C 
ATOM      6  C   UNL     1      35.836 -21.355 -19.357  0.00  0.00    -0.075 C 
ATOM      7  H   UNL     1      34.596 -19.767 -19.110  0.00  0.00    -0.080 HD
ENDROOT
BRANCH   2  10
ATOM      8 CL   UNL     1      37.677 -24.058 -11.873  0.00  0.00    -0.082 Cl
ATOM      9  O   UNL     1      31.779 -23.371 -16.345  0.00  0.00    -0.247 OA
ATOM     10  N   UNL     1      34.139 -23.100 -16.439  0.00  0.00    -0.282 N 
ATOM     11  N   UNL     1      33.192 -23.763 -14.489  0.00  0.00    -0.305 N 
ATOM     12  C   UNL     1      35.161 -23.269 -15.495  0.00  0.00    +0.079 A 
ATOM     13  C   UNL     1      32.890 -23.404 -15.834  0.00  0.00    +0.328 A 
ATOM     14  C   UNL     1      34.572 -23.676 -14.299  0.00  0.00    +0.077 A 
ATOM     15  C   UNL     1      36.525 -23.095 -15.603  0.00  0.00    +0.020 C 
ATOM     16  C   UNL     1      35.306 -23.929 -13.162  0.00  0.00    +0.030 C 
ATOM     17  C   UNL     1      37.293 -23.348 -14.462  0.00  0.00    +0.013 C 
ATOM     18  C   UNL     1      36.690 -23.760 -13.255  0.00  0.00    +0.059 C 
ATOM     19  H   UNL     1      32.535 -24.028 -13.806  0.00  0.00    +0.170 HD
ENDBRANCH   2  10
BRANCH   1  20
ATOM     20  C   UNL     1      34.894 -19.996 -21.109  0.00  0.00    -0.075 C 
BRANCH  20  21
ATOM     21  C   UNL     1      34.934 -18.465 -21.105  0.00  0.00    +0.002 C 
BRANCH  21  22
ATOM     22  C   UNL     1      35.694 -17.851 -22.279  0.00  0.00    +0.108 C 
BRANCH  22  24
ATOM     23  O   UNL     1      34.275 -19.284 -24.525  0.00  0.00    -0.247 OA
ATOM     24  N   UNL     1      34.817 -17.324 -23.289  0.00  0.00    -0.280 N 
ATOM     25  N   UNL     1      33.421 -17.148 -25.073  0.00  0.00    -0.305 N 
ATOM     26  C   UNL     1      34.439 -15.978 -23.424  0.00  0.00    +0.079 A 
ATOM     27  C   UNL     1      34.187 -18.081 -24.319  0.00  0.00    +0.328 A 
ATOM     28  C   UNL     1      33.584 -15.877 -24.519  0.00  0.00    +0.076 A 
ATOM     29  C   UNL     1      34.784 -14.871 -22.675  0.00  0.00    +0.019 C 
ATOM     30  C   UNL     1      33.034 -14.681 -24.920  0.00  0.00    +0.019 C 
ATOM     31  C   UNL     1      34.237 -13.644 -23.063  0.00  0.00    +0.002 C 
ATOM     32  C   UNL     1      33.371 -13.549 -24.172  0.00  0.00    +0.002 C 
ATOM     33  H   UNL     1      32.867 -17.363 -25.859  0.00  0.00    +0.170 HD
ENDBRANCH  22  24
ENDBRANCH  21  22
ENDBRANCH  20  21
ENDBRANCH   1  20
TORSDOF 5
ENDMDL
