MODEL 1
REMARK VINA RESULT:     -11.5      0.000      0.000
REMARK  Name = 10361208
REMARK  3 active torsions:
REMARK  status: ('A' for Active; 'I' for Inactive)
REMARK    1  A    between atoms: N_1  and  C_12
REMARK    2  A    between atoms: C_10  and  C_18
REMARK    3  A    between atoms: C_21  and  C_27
REMARK                            x       y       z     vdW  Elec       q    Type
REMARK                         _______ _______ _______ _____ _____    ______ ____
ROOT
ATOM      1  N   UNL     1      35.068 -24.576 -13.676  0.00  0.00    -0.318 N 
ATOM      2  N   UNL     1      34.080 -23.550 -15.479  0.00  0.00    -0.147 NA
ATOM      3  N   UNL     1      32.903 -23.232 -16.073  0.00  0.00    -0.190 N 
ATOM      4  N   UNL     1      30.755 -23.045 -16.486  0.00  0.00    -0.127 NA
ATOM      5  N   UNL     1      31.452 -22.432 -17.507  0.00  0.00    -0.127 NA
ATOM      6  C   UNL     1      33.965 -24.210 -14.350  0.00  0.00    +0.149 C 
ATOM      7  C   UNL     1      32.629 -24.583 -13.765  0.00  0.00    +0.039 C 
ATOM      8  C   UNL     1      31.635 -23.521 -15.630  0.00  0.00    +0.187 A 
ATOM      9  C   UNL     1      31.517 -24.229 -14.420  0.00  0.00    +0.044 C 
ATOM     10  C   UNL     1      32.734 -22.555 -17.245  0.00  0.00    +0.187 A 
ATOM     11  H   UNL     1      34.961 -25.085 -12.839  0.00  0.00    +0.148 HD
ENDROOT
BRANCH   1  12
ATOM     12  C   UNL     1      36.409 -24.256 -14.127  0.00  0.00    +0.070 C 
ATOM     13  C   UNL     1      37.193 -23.573 -13.003  0.00  0.00    +0.020 C 
ATOM     14  C   UNL     1      37.115 -25.525 -14.616  0.00  0.00    +0.020 C 
ATOM     15  C   UNL     1      37.557 -24.531 -11.868  0.00  0.00    +0.002 C 
ATOM     16  C   UNL     1      37.480 -26.476 -13.476  0.00  0.00    +0.002 C 
ATOM     17  C   UNL     1      38.281 -25.769 -12.387  0.00  0.00    +0.000 C 
ENDBRANCH   1  12
BRANCH  10  18
ATOM     18  C   UNL     1      33.820 -22.056 -18.053  0.00  0.00    +0.038 C 
ATOM     19  C   UNL     1      33.556 -21.233 -19.147  0.00  0.00    +0.007 C 
ATOM     20  C   UNL     1      35.135 -22.400 -17.740  0.00  0.00    +0.003 C 
ATOM     21  C   UNL     1      34.607 -20.752 -19.928  0.00  0.00    +0.072 C 
ATOM     22  C   UNL     1      36.187 -21.920 -18.521  0.00  0.00    +0.000 C 
ATOM     23  C   UNL     1      35.922 -21.096 -19.615  0.00  0.00    +0.004 C 
BRANCH  21  27
ATOM     24  F   UNL     1      34.607 -18.553 -20.869  0.00  0.00    -0.166 F 
ATOM     25  F   UNL     1      35.039 -20.199 -22.214  0.00  0.00    -0.166 F 
ATOM     26  F   UNL     1      33.015 -19.904 -21.477  0.00  0.00    -0.166 F 
ATOM     27  C   UNL     1      34.326 -19.870 -21.097  0.00  0.00    +0.419 C 
ENDBRANCH  21  27
ENDBRANCH  10  18
TORSDOF 3
ENDMDL
MODEL 2
REMARK VINA RESULT:     -11.3      3.251      5.221
REMARK  Name = 10361208
REMARK  3 active torsions:
REMARK  status: ('A' for Active; 'I' for Inactive)
REMARK    1  A    between atoms: N_1  and  C_12
REMARK    2  A    between atoms: C_10  and  C_18
REMARK    3  A    between atoms: C_21  and  C_27
REMARK                            x       y       z     vdW  Elec       q    Type
REMARK                         _______ _______ _______ _____ _____    ______ ____
ROOT
ATOM      1  N   UNL     1      36.860 -22.942 -14.234  0.00  0.00    -0.318 N 
ATOM      2  N   UNL     1      34.928 -22.908 -15.477  0.00  0.00    -0.147 NA
ATOM      3  N   UNL     1      34.391 -22.643 -16.694  0.00  0.00    -0.190 N 
ATOM      4  N   UNL     1      34.174 -22.062 -18.800  0.00  0.00    -0.127 NA
ATOM      5  N   UNL     1      32.932 -22.418 -18.314  0.00  0.00    -0.127 NA
ATOM      6  C   UNL     1      36.224 -22.711 -15.393  0.00  0.00    +0.149 C 
ATOM      7  C   UNL     1      37.044 -22.230 -16.561  0.00  0.00    +0.039 C 
ATOM      8  C   UNL     1      35.042 -22.202 -17.821  0.00  0.00    +0.187 A 
ATOM      9  C   UNL     1      36.430 -21.993 -17.725  0.00  0.00    +0.044 C 
ATOM     10  C   UNL     1      33.081 -22.760 -17.054  0.00  0.00    +0.187 A 
ATOM     11  H   UNL     1      37.829 -22.773 -14.187  0.00  0.00    +0.148 HD
ENDROOT
BRANCH   1  12
ATOM     12  C   UNL     1      36.181 -23.428 -13.047  0.00  0.00    +0.070 C 
ATOM     13  C   UNL     1      35.798 -24.900 -13.226  0.00  0.00    +0.020 C 
ATOM     14  C   UNL     1      37.067 -23.223 -11.814  0.00  0.00    +0.020 C 
ATOM     15  C   UNL     1      37.009 -25.834 -13.195  0.00  0.00    +0.002 C 
ATOM     16  C   UNL     1      38.273 -24.163 -11.789  0.00  0.00    +0.002 C 
ATOM     17  C   UNL     1      37.853 -25.622 -11.943  0.00  0.00    +0.000 C 
ENDBRANCH   1  12
BRANCH  10  18
ATOM     18  C   UNL     1      32.035 -23.201 -16.162  0.00  0.00    +0.038 C 
ATOM     19  C   UNL     1      30.698 -23.065 -16.533  0.00  0.00    +0.007 C 
ATOM     20  C   UNL     1      32.364 -23.762 -14.929  0.00  0.00    +0.003 C 
ATOM     21  C   UNL     1      29.688 -23.491 -15.671  0.00  0.00    +0.072 C 
ATOM     22  C   UNL     1      31.354 -24.187 -14.065  0.00  0.00    +0.000 C 
ATOM     23  C   UNL     1      30.016 -24.052 -14.437  0.00  0.00    +0.004 C 
BRANCH  21  27
ATOM     24  F   UNL     1      27.419 -23.116 -15.014  0.00  0.00    -0.166 F 
ATOM     25  F   UNL     1      28.031 -22.320 -16.937  0.00  0.00    -0.166 F 
ATOM     26  F   UNL     1      27.770 -24.464 -16.685  0.00  0.00    -0.166 F 
ATOM     27  C   UNL     1      28.257 -23.348 -16.067  0.00  0.00    +0.419 C 
ENDBRANCH  21  27
ENDBRANCH  10  18
TORSDOF 3
ENDMDL
MODEL 3
REMARK VINA RESULT:     -10.5      3.813      5.644
REMARK  Name = 10361208
REMARK  3 active torsions:
REMARK  status: ('A' for Active; 'I' for Inactive)
REMARK    1  A    between atoms: N_1  and  C_12
REMARK    2  A    between atoms: C_10  and  C_18
REMARK    3  A    between atoms: C_21  and  C_27
REMARK                            x       y       z     vdW  Elec       q    Type
REMARK                         _______ _______ _______ _____ _____    ______ ____
ROOT
ATOM      1  N   UNL     1      36.710 -22.982 -14.588  0.00  0.00    -0.318 N 
ATOM      2  N   UNL     1      34.789 -22.795 -15.834  0.00  0.00    -0.147 NA
ATOM      3  N   UNL     1      34.275 -22.472 -17.047  0.00  0.00    -0.190 N 
ATOM      4  N   UNL     1      34.104 -21.840 -19.142  0.00  0.00    -0.127 NA
ATOM      5  N   UNL     1      32.839 -22.119 -18.666  0.00  0.00    -0.127 NA
ATOM      6  C   UNL     1      36.094 -22.688 -15.744  0.00  0.00    +0.149 C 
ATOM      7  C   UNL     1      36.949 -22.242 -16.901  0.00  0.00    +0.039 C 
ATOM      8  C   UNL     1      34.958 -22.056 -18.164  0.00  0.00    +0.187 A 
ATOM      9  C   UNL     1      36.356 -21.943 -18.062  0.00  0.00    +0.044 C 
ATOM     10  C   UNL     1      32.961 -22.494 -17.412  0.00  0.00    +0.187 A 
ATOM     11  H   UNL     1      37.688 -22.880 -14.536  0.00  0.00    +0.148 HD
ENDROOT
BRANCH   1  12
ATOM     12  C   UNL     1      35.996 -23.443 -13.411  0.00  0.00    +0.070 C 
ATOM     13  C   UNL     1      35.619 -24.919 -13.570  0.00  0.00    +0.020 C 
ATOM     14  C   UNL     1      36.845 -23.210 -12.157  0.00  0.00    +0.020 C 
ATOM     15  C   UNL     1      36.828 -25.851 -13.482  0.00  0.00    +0.002 C 
ATOM     16  C   UNL     1      38.049 -24.148 -12.075  0.00  0.00    +0.002 C 
ATOM     17  C   UNL     1      37.634 -25.610 -12.211  0.00  0.00    +0.000 C 
ENDBRANCH   1  12
BRANCH  10  18
ATOM     18  C   UNL     1      31.885 -22.879 -16.530  0.00  0.00    +0.038 C 
ATOM     19  C   UNL     1      32.168 -23.472 -15.300  0.00  0.00    +0.007 C 
ATOM     20  C   UNL     1      30.561 -22.660 -16.911  0.00  0.00    +0.003 C 
ATOM     21  C   UNL     1      31.128 -23.844 -14.449  0.00  0.00    +0.072 C 
ATOM     22  C   UNL     1      29.520 -23.033 -16.061  0.00  0.00    +0.000 C 
ATOM     23  C   UNL     1      29.804 -23.625 -14.829  0.00  0.00    +0.004 C 
BRANCH  21  27
ATOM     24  F   UNL     1      30.386 -24.433 -12.253  0.00  0.00    -0.166 F 
ATOM     25  F   UNL     1      31.765 -25.797 -13.223  0.00  0.00    -0.166 F 
ATOM     26  F   UNL     1      32.475 -23.877 -12.490  0.00  0.00    -0.166 F 
ATOM     27  C   UNL     1      31.430 -24.476 -13.132  0.00  0.00    +0.419 C 
ENDBRANCH  21  27
ENDBRANCH  10  18
TORSDOF 3
ENDMDL
MODEL 4
REMARK VINA RESULT:     -10.5      2.106      2.631
REMARK  Name = 10361208
REMARK  3 active torsions:
REMARK  status: ('A' for Active; 'I' for Inactive)
REMARK    1  A    between atoms: N_1  and  C_12
REMARK    2  A    between atoms: C_10  and  C_18
REMARK    3  A    between atoms: C_21  and  C_27
REMARK                            x       y       z     vdW  Elec       q    Type
REMARK                         _______ _______ _______ _____ _____    ______ ____
ROOT
ATOM      1  N   UNL     1      34.515 -24.956 -13.196  0.00  0.00    -0.318 N 
ATOM      2  N   UNL     1      33.412 -23.925 -14.928  0.00  0.00    -0.147 NA
ATOM      3  N   UNL     1      32.199 -23.612 -15.447  0.00  0.00    -0.190 N 
ATOM      4  N   UNL     1      30.029 -23.438 -15.728  0.00  0.00    -0.127 NA
ATOM      5  N   UNL     1      30.658 -22.813 -16.785  0.00  0.00    -0.127 NA
ATOM      6  C   UNL     1      33.371 -24.594 -13.799  0.00  0.00    +0.149 C 
ATOM      7  C   UNL     1      32.075 -24.980 -13.137  0.00  0.00    +0.039 C 
ATOM      8  C   UNL     1      30.962 -23.913 -14.931  0.00  0.00    +0.187 A 
ATOM      9  C   UNL     1      30.923 -24.630 -13.721  0.00  0.00    +0.044 C 
ATOM     10  C   UNL     1      31.954 -22.928 -16.602  0.00  0.00    +0.187 A 
ATOM     11  H   UNL     1      34.462 -25.471 -12.358  0.00  0.00    +0.148 HD
ENDROOT
BRANCH   1  12
ATOM     12  C   UNL     1      35.823 -24.623 -13.725  0.00  0.00    +0.070 C 
ATOM     13  C   UNL     1      36.311 -23.300 -13.127  0.00  0.00    +0.020 C 
ATOM     14  C   UNL     1      36.808 -25.763 -13.449  0.00  0.00    +0.020 C 
ATOM     15  C   UNL     1      36.688 -23.423 -11.649  0.00  0.00    +0.002 C 
ATOM     16  C   UNL     1      37.183 -25.877 -11.971  0.00  0.00    +0.002 C 
ATOM     17  C   UNL     1      37.688 -24.549 -11.415  0.00  0.00    +0.000 C 
ENDBRANCH   1  12
BRANCH  10  18
ATOM     18  C   UNL     1      32.986 -22.415 -17.471  0.00  0.00    +0.038 C 
ATOM     19  C   UNL     1      34.317 -22.424 -17.055  0.00  0.00    +0.007 C 
ATOM     20  C   UNL     1      32.650 -21.910 -18.726  0.00  0.00    +0.003 C 
ATOM     21  C   UNL     1      35.313 -21.929 -17.895  0.00  0.00    +0.072 C 
ATOM     22  C   UNL     1      33.647 -21.414 -19.567  0.00  0.00    +0.000 C 
ATOM     23  C   UNL     1      34.979 -21.423 -19.151  0.00  0.00    +0.004 C 
BRANCH  21  27
ATOM     24  F   UNL     1      37.155 -20.751 -16.924  0.00  0.00    -0.166 F 
ATOM     25  F   UNL     1      37.004 -22.871 -16.490  0.00  0.00    -0.166 F 
ATOM     26  F   UNL     1      37.602 -22.209 -18.474  0.00  0.00    -0.166 F 
ATOM     27  C   UNL     1      36.738 -21.939 -17.452  0.00  0.00    +0.419 C 
ENDBRANCH  21  27
ENDBRANCH  10  18
TORSDOF 3
ENDMDL
MODEL 5
REMARK VINA RESULT:     -10.4      4.330      7.277
REMARK  Name = 10361208
REMARK  3 active torsions:
REMARK  status: ('A' for Active; 'I' for Inactive)
REMARK    1  A    between atoms: N_1  and  C_12
REMARK    2  A    between atoms: C_10  and  C_18
REMARK    3  A    between atoms: C_21  and  C_27
REMARK                            x       y       z     vdW  Elec       q    Type
REMARK                         _______ _______ _______ _____ _____    ______ ____
ROOT
ATOM      1  N   UNL     1      31.526 -23.159 -16.708  0.00  0.00    -0.318 N 
ATOM      2  N   UNL     1      33.790 -23.006 -16.346  0.00  0.00    -0.147 NA
ATOM      3  N   UNL     1      34.976 -22.597 -16.861  0.00  0.00    -0.190 N 
ATOM      4  N   UNL     1      36.486 -21.752 -18.212  0.00  0.00    -0.127 NA
ATOM      5  N   UNL     1      37.120 -22.194 -17.069  0.00  0.00    -0.127 NA
ATOM      6  C   UNL     1      32.751 -22.792 -17.120  0.00  0.00    +0.149 C 
ATOM      7  C   UNL     1      32.872 -22.143 -18.472  0.00  0.00    +0.039 C 
ATOM      8  C   UNL     1      35.200 -21.997 -18.077  0.00  0.00    +0.187 A 
ATOM      9  C   UNL     1      34.083 -21.771 -18.902  0.00  0.00    +0.044 C 
ATOM     10  C   UNL     1      36.202 -22.697 -16.274  0.00  0.00    +0.187 A 
ATOM     11  H   UNL     1      30.762 -23.004 -17.310  0.00  0.00    +0.148 HD
ENDROOT
BRANCH   1  12
ATOM     12  C   UNL     1      31.280 -23.773 -15.417  0.00  0.00    +0.070 C 
ATOM     13  C   UNL     1      30.690 -22.743 -14.449  0.00  0.00    +0.020 C 
ATOM     14  C   UNL     1      30.359 -24.986 -15.579  0.00  0.00    +0.020 C 
ATOM     15  C   UNL     1      29.251 -22.361 -14.797  0.00  0.00    +0.002 C 
ATOM     16  C   UNL     1      28.921 -24.595 -15.923  0.00  0.00    +0.002 C 
ATOM     17  C   UNL     1      28.357 -23.589 -14.925  0.00  0.00    +0.000 C 
ENDBRANCH   1  12
BRANCH  10  18
ATOM     18  C   UNL     1      36.428 -23.273 -14.970  0.00  0.00    +0.038 C 
ATOM     19  C   UNL     1      37.499 -24.143 -14.766  0.00  0.00    +0.007 C 
ATOM     20  C   UNL     1      35.574 -22.958 -13.913  0.00  0.00    +0.003 C 
ATOM     21  C   UNL     1      37.715 -24.699 -13.506  0.00  0.00    +0.072 C 
ATOM     22  C   UNL     1      35.790 -23.515 -12.652  0.00  0.00    +0.000 C 
ATOM     23  C   UNL     1      36.861 -24.385 -12.449  0.00  0.00    +0.004 C 
BRANCH  21  27
ATOM     24  F   UNL     1      38.948 -26.620 -14.221  0.00  0.00    -0.166 F 
ATOM     25  F   UNL     1      40.079 -25.011 -13.308  0.00  0.00    -0.166 F 
ATOM     26  F   UNL     1      38.795 -26.266 -12.081  0.00  0.00    -0.166 F 
ATOM     27  C   UNL     1      38.861 -25.629 -13.286  0.00  0.00    +0.419 C 
ENDBRANCH  21  27
ENDBRANCH  10  18
TORSDOF 3
ENDMDL
MODEL 6
REMARK VINA RESULT:     -10.1      2.203      5.103
REMARK  Name = 10361208
REMARK  3 active torsions:
REMARK  status: ('A' for Active; 'I' for Inactive)
REMARK    1  A    between atoms: N_1  and  C_12
REMARK    2  A    between atoms: C_10  and  C_18
REMARK    3  A    between atoms: C_21  and  C_27
REMARK                            x       y       z     vdW  Elec       q    Type
REMARK                         _______ _______ _______ _____ _____    ______ ____
ROOT
ATOM      1  N   UNL     1      32.137 -24.562 -13.799  0.00  0.00    -0.318 N 
ATOM      2  N   UNL     1      34.160 -23.671 -14.425  0.00  0.00    -0.147 NA
ATOM      3  N   UNL     1      35.428 -23.397 -14.028  0.00  0.00    -0.190 N 
ATOM      4  N   UNL     1      37.247 -23.239 -12.810  0.00  0.00    -0.127 NA
ATOM      5  N   UNL     1      37.507 -22.705 -14.055  0.00  0.00    -0.127 NA
ATOM      6  C   UNL     1      33.411 -24.246 -13.514  0.00  0.00    +0.149 C 
ATOM      7  C   UNL     1      33.924 -24.576 -12.137  0.00  0.00    +0.039 C 
ATOM      8  C   UNL     1      35.998 -23.652 -12.804  0.00  0.00    +0.187 A 
ATOM      9  C   UNL     1      35.190 -24.269 -11.831  0.00  0.00    +0.044 C 
ATOM     10  C   UNL     1      36.409 -22.807 -14.770  0.00  0.00    +0.187 A 
ATOM     11  H   UNL     1      31.587 -24.978 -13.096  0.00  0.00    +0.148 HD
ENDROOT
BRANCH   1  12
ATOM     12  C   UNL     1      31.536 -24.314 -15.096  0.00  0.00    +0.070 C 
ATOM     13  C   UNL     1      30.432 -25.340 -15.368  0.00  0.00    +0.020 C 
ATOM     14  C   UNL     1      31.001 -22.880 -15.162  0.00  0.00    +0.020 C 
ATOM     15  C   UNL     1      29.193 -25.121 -14.498  0.00  0.00    +0.002 C 
ATOM     16  C   UNL     1      29.761 -22.670 -14.293  0.00  0.00    +0.002 C 
ATOM     17  C   UNL     1      28.673 -23.692 -14.608  0.00  0.00    +0.000 C 
ENDBRANCH   1  12
BRANCH  10  18
ATOM     18  C   UNL     1      36.237 -22.371 -16.135  0.00  0.00    +0.038 C 
ATOM     19  C   UNL     1      35.040 -22.626 -16.804  0.00  0.00    +0.007 C 
ATOM     20  C   UNL     1      37.270 -21.696 -16.785  0.00  0.00    +0.003 C 
ATOM     21  C   UNL     1      34.876 -22.205 -18.123  0.00  0.00    +0.072 C 
ATOM     22  C   UNL     1      37.106 -21.276 -18.105  0.00  0.00    +0.000 C 
ATOM     23  C   UNL     1      35.908 -21.531 -18.774  0.00  0.00    +0.004 C 
BRANCH  21  27
ATOM     24  F   UNL     1      32.506 -22.513 -18.017  0.00  0.00    -0.166 F 
ATOM     25  F   UNL     1      33.293 -21.542 -19.789  0.00  0.00    -0.166 F 
ATOM     26  F   UNL     1      33.603 -23.674 -19.493  0.00  0.00    -0.166 F 
ATOM     27  C   UNL     1      33.595 -22.476 -18.839  0.00  0.00    +0.419 C 
ENDBRANCH  21  27
ENDBRANCH  10  18
TORSDOF 3
ENDMDL
MODEL 7
REMARK VINA RESULT:      -9.9      1.710      4.352
REMARK  Name = 10361208
REMARK  3 active torsions:
REMARK  status: ('A' for Active; 'I' for Inactive)
REMARK    1  A    between atoms: N_1  and  C_12
REMARK    2  A    between atoms: C_10  and  C_18
REMARK    3  A    between atoms: C_21  and  C_27
REMARK                            x       y       z     vdW  Elec       q    Type
REMARK                         _______ _______ _______ _____ _____    ______ ____
ROOT
ATOM      1  N   UNL     1      33.477 -24.855 -14.005  0.00  0.00    -0.318 N 
ATOM      2  N   UNL     1      34.753 -23.642 -15.481  0.00  0.00    -0.147 NA
ATOM      3  N   UNL     1      35.998 -23.181 -15.759  0.00  0.00    -0.190 N 
ATOM      4  N   UNL     1      38.150 -22.764 -15.629  0.00  0.00    -0.127 NA
ATOM      5  N   UNL     1      37.658 -22.168 -16.772  0.00  0.00    -0.127 NA
ATOM      6  C   UNL     1      34.664 -24.349 -14.378  0.00  0.00    +0.149 C 
ATOM      7  C   UNL     1      35.853 -24.624 -13.496  0.00  0.00    +0.039 C 
ATOM      8  C   UNL     1      37.147 -23.370 -15.029  0.00  0.00    +0.187 A 
ATOM      9  C   UNL     1      37.044 -24.128 -13.848  0.00  0.00    +0.044 C 
ATOM     10  C   UNL     1      36.371 -22.426 -16.833  0.00  0.00    +0.187 A 
ATOM     11  H   UNL     1      33.428 -25.369 -13.166  0.00  0.00    +0.148 HD
ENDROOT
BRANCH   1  12
ATOM     12  C   UNL     1      32.266 -24.676 -14.783  0.00  0.00    +0.070 C 
ATOM     13  C   UNL     1      31.097 -25.402 -14.109  0.00  0.00    +0.020 C 
ATOM     14  C   UNL     1      31.973 -23.184 -14.965  0.00  0.00    +0.020 C 
ATOM     15  C   UNL     1      30.642 -24.718 -12.819  0.00  0.00    +0.002 C 
ATOM     16  C   UNL     1      31.515 -22.509 -13.671  0.00  0.00    +0.002 C 
ATOM     17  C   UNL     1      30.334 -23.241 -13.041  0.00  0.00    +0.000 C 
ENDBRANCH   1  12
BRANCH  10  18
ATOM     18  C   UNL     1      35.464 -21.993 -17.869  0.00  0.00    +0.038 C 
ATOM     19  C   UNL     1      35.897 -21.098 -18.847  0.00  0.00    +0.007 C 
ATOM     20  C   UNL     1      34.153 -22.469 -17.889  0.00  0.00    +0.003 C 
ATOM     21  C   UNL     1      35.019 -20.680 -19.846  0.00  0.00    +0.072 C 
ATOM     22  C   UNL     1      33.275 -22.050 -18.889  0.00  0.00    +0.000 C 
ATOM     23  C   UNL     1      33.708 -21.155 -19.868  0.00  0.00    +0.004 C 
BRANCH  21  27
ATOM     24  F   UNL     1      36.839 -19.590 -20.952  0.00  0.00    -0.166 F 
ATOM     25  F   UNL     1      35.103 -20.074 -22.159  0.00  0.00    -0.166 F 
ATOM     26  F   UNL     1      34.997 -18.462 -20.703  0.00  0.00    -0.166 F 
ATOM     27  C   UNL     1      35.481 -19.724 -20.894  0.00  0.00    +0.419 C 
ENDBRANCH  21  27
ENDBRANCH  10  18
TORSDOF 3
ENDMDL
MODEL 8
REMARK VINA RESULT:      -9.3      4.206      6.910
REMARK  Name = 10361208
REMARK  3 active torsions:
REMARK  status: ('A' for Active; 'I' for Inactive)
REMARK    1  A    between atoms: N_1  and  C_12
REMARK    2  A    between atoms: C_10  and  C_18
REMARK    3  A    between atoms: C_21  and  C_27
REMARK                            x       y       z     vdW  Elec       q    Type
REMARK                         _______ _______ _______ _____ _____    ______ ____
ROOT
ATOM      1  N   UNL     1      32.165 -23.886 -16.275  0.00  0.00    -0.318 N 
ATOM      2  N   UNL     1      34.402 -23.408 -16.066  0.00  0.00    -0.147 NA
ATOM      3  N   UNL     1      35.456 -22.748 -16.609  0.00  0.00    -0.190 N 
ATOM      4  N   UNL     1      36.682 -21.506 -17.941  0.00  0.00    -0.127 NA
ATOM      5  N   UNL     1      37.483 -21.975 -16.921  0.00  0.00    -0.127 NA
ATOM      6  C   UNL     1      33.273 -23.274 -16.723  0.00  0.00    +0.149 C 
ATOM      7  C   UNL     1      33.163 -22.453 -17.980  0.00  0.00    +0.039 C 
ATOM      8  C   UNL     1      35.468 -21.974 -17.745  0.00  0.00    +0.187 A 
ATOM      9  C   UNL     1      34.255 -21.836 -18.445  0.00  0.00    +0.044 C 
ATOM     10  C   UNL     1      36.735 -22.716 -16.135  0.00  0.00    +0.187 A 
ATOM     11  H   UNL     1      31.332 -23.786 -16.791  0.00  0.00    +0.148 HD
ENDROOT
BRANCH   1  12
ATOM     12  C   UNL     1      32.142 -24.686 -15.065  0.00  0.00    +0.070 C 
ATOM     13  C   UNL     1      32.565 -23.834 -13.864  0.00  0.00    +0.020 C 
ATOM     14  C   UNL     1      30.750 -25.292 -14.862  0.00  0.00    +0.020 C 
ATOM     15  C   UNL     1      31.510 -22.799 -13.472  0.00  0.00    +0.002 C 
ATOM     16  C   UNL     1      29.702 -24.251 -14.467  0.00  0.00    +0.002 C 
ATOM     17  C   UNL     1      30.145 -23.440 -13.253  0.00  0.00    +0.000 C 
ENDBRANCH   1  12
BRANCH  10  18
ATOM     18  C   UNL     1      37.171 -23.402 -14.942  0.00  0.00    +0.038 C 
ATOM     19  C   UNL     1      36.537 -23.157 -13.725  0.00  0.00    +0.007 C 
ATOM     20  C   UNL     1      38.227 -24.310 -15.009  0.00  0.00    +0.003 C 
ATOM     21  C   UNL     1      36.959 -23.820 -12.573  0.00  0.00    +0.072 C 
ATOM     22  C   UNL     1      38.650 -24.973 -13.857  0.00  0.00    +0.000 C 
ATOM     23  C   UNL     1      38.016 -24.728 -12.638  0.00  0.00    +0.004 C 
BRANCH  21  27
ATOM     24  F   UNL     1      36.429 -24.572 -10.365  0.00  0.00    -0.166 F 
ATOM     25  F   UNL     1      36.735 -22.441 -10.631  0.00  0.00    -0.166 F 
ATOM     26  F   UNL     1      34.934 -23.382 -11.405  0.00  0.00    -0.166 F 
ATOM     27  C   UNL     1      36.281 -23.560 -11.270  0.00  0.00    +0.419 C 
ENDBRANCH  21  27
ENDBRANCH  10  18
TORSDOF 3
ENDMDL
MODEL 9
REMARK VINA RESULT:      -8.9     10.938     14.223
REMARK  Name = 10361208
REMARK  3 active torsions:
REMARK  status: ('A' for Active; 'I' for Inactive)
REMARK    1  A    between atoms: N_1  and  C_12
REMARK    2  A    between atoms: C_10  and  C_18
REMARK    3  A    between atoms: C_21  and  C_27
REMARK                            x       y       z     vdW  Elec       q    Type
REMARK                         _______ _______ _______ _____ _____    ______ ____
ROOT
ATOM      1  N   UNL     1      32.075  -8.313 -22.031  0.00  0.00    -0.318 N 
ATOM      2  N   UNL     1      32.325 -10.596 -21.971  0.00  0.00    -0.147 NA
ATOM      3  N   UNL     1      32.228 -11.708 -21.200  0.00  0.00    -0.190 N 
ATOM      4  N   UNL     1      31.882 -13.041 -19.491  0.00  0.00    -0.127 NA
ATOM      5  N   UNL     1      32.287 -13.805 -20.565  0.00  0.00    -0.127 NA
ATOM      6  C   UNL     1      32.014  -9.475 -21.362  0.00  0.00    +0.149 C 
ATOM      7  C   UNL     1      31.583  -9.434 -19.920  0.00  0.00    +0.039 C 
ATOM      8  C   UNL     1      31.849 -11.784 -19.882  0.00  0.00    +0.187 A 
ATOM      9  C   UNL     1      31.516 -10.581 -19.234  0.00  0.00    +0.044 C 
ATOM     10  C   UNL     1      32.491 -12.992 -21.578  0.00  0.00    +0.187 A 
ATOM     11  H   UNL     1      31.853  -7.482 -21.551  0.00  0.00    +0.148 HD
ENDROOT
BRANCH   1  12
ATOM     12  C   UNL     1      32.455  -8.228 -23.429  0.00  0.00    +0.070 C 
ATOM     13  C   UNL     1      32.088  -6.851 -23.990  0.00  0.00    +0.020 C 
ATOM     14  C   UNL     1      33.951  -8.520 -23.585  0.00  0.00    +0.020 C 
ATOM     15  C   UNL     1      32.978  -5.733 -23.444  0.00  0.00    +0.002 C 
ATOM     16  C   UNL     1      34.833  -7.397 -23.041  0.00  0.00    +0.002 C 
ATOM     17  C   UNL     1      34.458  -6.045 -23.640  0.00  0.00    +0.000 C 
ENDBRANCH   1  12
BRANCH  10  18
ATOM     18  C   UNL     1      32.925 -13.371 -22.901  0.00  0.00    +0.038 C 
ATOM     19  C   UNL     1      33.190 -14.709 -23.192  0.00  0.00    +0.007 C 
ATOM     20  C   UNL     1      33.079 -12.399 -23.888  0.00  0.00    +0.003 C 
ATOM     21  C   UNL     1      33.609 -15.075 -24.470  0.00  0.00    +0.072 C 
ATOM     22  C   UNL     1      33.499 -12.763 -25.167  0.00  0.00    +0.000 C 
ATOM     23  C   UNL     1      33.764 -14.103 -25.458  0.00  0.00    +0.004 C 
BRANCH  21  27
ATOM     24  F   UNL     1      34.061 -17.285 -23.675  0.00  0.00    -0.166 F 
ATOM     25  F   UNL     1      32.901 -17.114 -25.500  0.00  0.00    -0.166 F 
ATOM     26  F   UNL     1      35.029 -16.666 -25.522  0.00  0.00    -0.166 F 
ATOM     27  C   UNL     1      33.891 -16.505 -24.784  0.00  0.00    +0.419 C 
ENDBRANCH  21  27
ENDBRANCH  10  18
TORSDOF 3
ENDMDL
