MODEL 1
REMARK VINA RESULT:     -11.4      0.000      0.000
REMARK  Name = 16045418
REMARK  6 active torsions:
REMARK  status: ('A' for Active; 'I' for Inactive)
REMARK    1  A    between atoms: C_2  and  O_8
REMARK    2  A    between atoms: C_4  and  O_23
REMARK    3  A    between atoms: O_8  and  C_9
REMARK    4  A    between atoms: C_9  and  C_14
REMARK    5  A    between atoms: O_23  and  C_25
REMARK    6  A    between atoms: C_28  and  C_32
REMARK                            x       y       z     vdW  Elec       q    Type
REMARK                         _______ _______ _______ _____ _____    ______ ____
ROOT
ATOM      1 CL   UNL     1      33.309 -15.221 -25.960  0.00  0.00    -0.079 Cl
ATOM      2  C   UNL     1      34.918 -18.007 -22.801  0.00  0.00    +0.142 C 
ATOM      3  C   UNL     1      35.179 -16.642 -22.706  0.00  0.00    +0.075 C 
ATOM      4  C   UNL     1      34.685 -15.773 -23.679  0.00  0.00    +0.159 C 
ATOM      5  C   UNL     1      34.167 -18.509 -23.860  0.00  0.00    +0.038 C 
ATOM      6  C   UNL     1      33.932 -16.271 -24.742  0.00  0.00    +0.092 C 
ATOM      7  C   UNL     1      33.673 -17.639 -24.833  0.00  0.00    +0.018 C 
ENDROOT
BRANCH   2   8
ATOM      8  O   UNL     1      35.403 -18.858 -21.847  0.00  0.00    -0.469 OA
BRANCH   8   9
ATOM      9  C   UNL     1      34.503 -19.860 -21.369  0.00  0.00    +0.249 C 
BRANCH   9  14
ATOM     10  N   UNL     1      36.404 -20.438 -19.881  0.00  0.00    -0.227 N 
ATOM     11  N   UNL     1      36.772 -21.119 -18.774  0.00  0.00    -0.115 NA
ATOM     12  N   UNL     1      35.442 -22.482 -17.272  0.00  0.00    -0.335 NA
ATOM     13  N   UNL     1      33.810 -23.721 -16.053  0.00  0.00    -0.332 N 
ATOM     14  C   UNL     1      35.076 -20.538 -20.196  0.00  0.00    +0.097 C 
ATOM     15  C   UNL     1      34.546 -21.340 -19.223  0.00  0.00    +0.090 C 
ATOM     16  C   UNL     1      35.631 -21.681 -18.359  0.00  0.00    +0.105 C 
ATOM     17  C   UNL     1      33.220 -21.730 -19.121  0.00  0.00    +0.016 C 
ATOM     18  C   UNL     1      33.047 -22.549 -18.001  0.00  0.00    +0.049 C 
ATOM     19  C   UNL     1      34.134 -22.877 -17.154  0.00  0.00    +0.189 C 
ATOM     20  H   UNL     1      37.041 -19.912 -20.418  0.00  0.00    +0.175 HD
ATOM     21  H   UNL     1      34.512 -23.994 -15.419  0.00  0.00    +0.145 HD
ATOM     22  H   UNL     1      32.885 -24.032 -15.927  0.00  0.00    +0.145 HD
ENDBRANCH   9  14
ENDBRANCH   8   9
ENDBRANCH   2   8
BRANCH   4  23
ATOM     23  O   UNL     1      34.952 -14.441 -23.565  0.00  0.00    -0.452 OA
BRANCH  23  25
ATOM     24 CL   UNL     1      31.848 -14.101 -19.548  0.00  0.00    -0.082 Cl
ATOM     25  C   UNL     1      34.073 -13.672 -22.823  0.00  0.00    +0.147 C 
ATOM     26  C   UNL     1      33.807 -12.374 -23.226  0.00  0.00    +0.048 C 
ATOM     27  C   UNL     1      33.481 -14.217 -21.698  0.00  0.00    +0.049 C 
ATOM     28  C   UNL     1      32.921 -11.599 -22.479  0.00  0.00    +0.072 C 
ATOM     29  C   UNL     1      32.594 -13.442 -20.952  0.00  0.00    +0.061 C 
ATOM     30  C   UNL     1      32.315 -12.132 -21.342  0.00  0.00    +0.022 C 
BRANCH  28  32
ATOM     31  N   UNL     1      32.403  -9.164 -23.206  0.00  0.00    -0.191 NA
ATOM     32  C   UNL     1      32.635 -10.257 -22.879  0.00  0.00    +0.101 C 
ENDBRANCH  28  32
ENDBRANCH  23  25
ENDBRANCH   4  23
TORSDOF 6
ENDMDL
MODEL 2
REMARK VINA RESULT:     -10.9      2.012      3.848
REMARK  Name = 16045418
REMARK  6 active torsions:
REMARK  status: ('A' for Active; 'I' for Inactive)
REMARK    1  A    between atoms: C_2  and  O_8
REMARK    2  A    between atoms: C_4  and  O_23
REMARK    3  A    between atoms: O_8  and  C_9
REMARK    4  A    between atoms: C_9  and  C_14
REMARK    5  A    between atoms: O_23  and  C_25
REMARK    6  A    between atoms: C_28  and  C_32
REMARK                            x       y       z     vdW  Elec       q    Type
REMARK                         _______ _______ _______ _____ _____    ______ ____
ROOT
ATOM      1 CL   UNL     1      32.122 -12.583 -19.953  0.00  0.00    -0.079 Cl
ATOM      2  C   UNL     1      34.595 -15.366 -22.494  0.00  0.00    +0.142 C 
ATOM      3  C   UNL     1      33.867 -14.349 -23.105  0.00  0.00    +0.075 C 
ATOM      4  C   UNL     1      33.099 -13.483 -22.326  0.00  0.00    +0.159 C 
ATOM      5  C   UNL     1      34.562 -15.525 -21.112  0.00  0.00    +0.038 C 
ATOM      6  C   UNL     1      33.063 -13.638 -20.940  0.00  0.00    +0.092 C 
ATOM      7  C   UNL     1      33.794 -14.659 -20.334  0.00  0.00    +0.018 C 
ENDROOT
BRANCH   2   8
ATOM      8  O   UNL     1      35.348 -16.216 -23.258  0.00  0.00    -0.469 OA
BRANCH   8   9
ATOM      9  C   UNL     1      34.931 -17.582 -23.291  0.00  0.00    +0.249 C 
BRANCH   9  14
ATOM     10  N   UNL     1      36.997 -18.216 -22.069  0.00  0.00    -0.227 N 
ATOM     11  N   UNL     1      37.506 -18.997 -21.093  0.00  0.00    -0.115 NA
ATOM     12  N   UNL     1      36.399 -20.598 -19.645  0.00  0.00    -0.335 NA
ATOM     13  N   UNL     1      34.958 -22.061 -18.435  0.00  0.00    -0.332 N 
ATOM     14  C   UNL     1      35.650 -18.356 -22.267  0.00  0.00    +0.097 C 
ATOM     15  C   UNL     1      35.259 -19.293 -21.352  0.00  0.00    +0.090 C 
ATOM     16  C   UNL     1      36.440 -19.668 -20.641  0.00  0.00    +0.105 C 
ATOM     17  C   UNL     1      33.969 -19.769 -21.171  0.00  0.00    +0.016 C 
ATOM     18  C   UNL     1      33.948 -20.720 -20.146  0.00  0.00    +0.049 C 
ATOM     19  C   UNL     1      35.130 -21.079 -19.452  0.00  0.00    +0.189 C 
ATOM     20  H   UNL     1      37.552 -17.597 -22.598  0.00  0.00    +0.175 HD
ATOM     21  H   UNL     1      35.732 -22.363 -17.907  0.00  0.00    +0.145 HD
ATOM     22  H   UNL     1      34.065 -22.438 -18.259  0.00  0.00    +0.145 HD
ENDBRANCH   9  14
ENDBRANCH   8   9
ENDBRANCH   2   8
BRANCH   4  23
ATOM     23  O   UNL     1      32.395 -12.494 -22.946  0.00  0.00    -0.452 OA
BRANCH  23  25
ATOM     24 CL   UNL     1      35.995  -9.936 -25.473  0.00  0.00    -0.082 Cl
ATOM     25  C   UNL     1      33.041 -11.291 -23.170  0.00  0.00    +0.147 C 
ATOM     26  C   UNL     1      32.646 -10.170 -22.460  0.00  0.00    +0.048 C 
ATOM     27  C   UNL     1      34.067 -11.237 -24.098  0.00  0.00    +0.049 C 
ATOM     28  C   UNL     1      33.298  -8.958 -22.686  0.00  0.00    +0.072 C 
ATOM     29  C   UNL     1      34.718 -10.025 -24.323  0.00  0.00    +0.061 C 
ATOM     30  C   UNL     1      34.334  -8.885 -23.617  0.00  0.00    +0.022 C 
BRANCH  28  32
ATOM     31  N   UNL     1      32.581  -6.838 -21.375  0.00  0.00    -0.191 NA
ATOM     32  C   UNL     1      32.903  -7.790 -21.963  0.00  0.00    +0.101 C 
ENDBRANCH  28  32
ENDBRANCH  23  25
ENDBRANCH   4  23
TORSDOF 6
ENDMDL
MODEL 3
REMARK VINA RESULT:     -10.6      1.809      2.413
REMARK  Name = 16045418
REMARK  6 active torsions:
REMARK  status: ('A' for Active; 'I' for Inactive)
REMARK    1  A    between atoms: C_2  and  O_8
REMARK    2  A    between atoms: C_4  and  O_23
REMARK    3  A    between atoms: O_8  and  C_9
REMARK    4  A    between atoms: C_9  and  C_14
REMARK    5  A    between atoms: O_23  and  C_25
REMARK    6  A    between atoms: C_28  and  C_32
REMARK                            x       y       z     vdW  Elec       q    Type
REMARK                         _______ _______ _______ _____ _____    ______ ____
ROOT
ATOM      1 CL   UNL     1      34.186 -17.531 -24.899  0.00  0.00    -0.079 Cl
ATOM      2  C   UNL     1      35.370 -19.327 -20.937  0.00  0.00    +0.142 C 
ATOM      3  C   UNL     1      35.757 -18.025 -21.240  0.00  0.00    +0.075 C 
ATOM      4  C   UNL     1      35.394 -17.461 -22.464  0.00  0.00    +0.159 C 
ATOM      5  C   UNL     1      34.624 -20.071 -21.847  0.00  0.00    +0.038 C 
ATOM      6  C   UNL     1      34.647 -18.202 -23.379  0.00  0.00    +0.092 C 
ATOM      7  C   UNL     1      34.262 -19.507 -23.071  0.00  0.00    +0.018 C 
ENDROOT
BRANCH   2   8
ATOM      8  O   UNL     1      35.726 -19.880 -19.738  0.00  0.00    -0.469 OA
BRANCH   8   9
ATOM      9  C   UNL     1      36.031 -21.275 -19.744  0.00  0.00    +0.249 C 
BRANCH   9  14
ATOM     10  N   UNL     1      36.860 -22.010 -17.522  0.00  0.00    -0.227 N 
ATOM     11  N   UNL     1      36.507 -22.546 -16.334  0.00  0.00    -0.115 NA
ATOM     12  N   UNL     1      34.330 -23.253 -15.533  0.00  0.00    -0.335 NA
ATOM     13  N   UNL     1      32.050 -23.823 -15.128  0.00  0.00    -0.332 N 
ATOM     14  C   UNL     1      35.826 -21.845 -18.403  0.00  0.00    +0.097 C 
ATOM     15  C   UNL     1      34.724 -22.306 -17.737  0.00  0.00    +0.090 C 
ATOM     16  C   UNL     1      35.188 -22.733 -16.455  0.00  0.00    +0.105 C 
ATOM     17  C   UNL     1      33.429 -22.342 -18.231  0.00  0.00    +0.016 C 
ATOM     18  C   UNL     1      32.565 -22.878 -17.270  0.00  0.00    +0.049 C 
ATOM     19  C   UNL     1      33.042 -23.296 -16.004  0.00  0.00    +0.189 C 
ATOM     20  H   UNL     1      37.788 -21.759 -17.737  0.00  0.00    +0.175 HD
ATOM     21  H   UNL     1      32.303 -24.135 -14.229  0.00  0.00    +0.145 HD
ATOM     22  H   UNL     1      31.112 -23.875 -15.421  0.00  0.00    +0.145 HD
ENDBRANCH   9  14
ENDBRANCH   8   9
ENDBRANCH   2   8
BRANCH   4  23
ATOM     23  O   UNL     1      35.783 -16.184 -22.738  0.00  0.00    -0.452 OA
BRANCH  23  25
ATOM     24 CL   UNL     1      32.281 -13.284 -20.454  0.00  0.00    -0.082 Cl
ATOM     25  C   UNL     1      34.794 -15.224 -22.860  0.00  0.00    +0.147 C 
ATOM     26  C   UNL     1      34.498 -14.715 -24.113  0.00  0.00    +0.048 C 
ATOM     27  C   UNL     1      34.124 -14.797 -21.727  0.00  0.00    +0.049 C 
ATOM     28  C   UNL     1      33.500 -13.749 -24.236  0.00  0.00    +0.072 C 
ATOM     29  C   UNL     1      33.126 -13.830 -21.850  0.00  0.00    +0.061 C 
ATOM     30  C   UNL     1      32.814 -13.306 -23.105  0.00  0.00    +0.022 C 
BRANCH  28  32
ATOM     31  N   UNL     1      32.922 -12.774 -26.569  0.00  0.00    -0.191 NA
ATOM     32  C   UNL     1      33.182 -13.211 -25.521  0.00  0.00    +0.101 C 
ENDBRANCH  28  32
ENDBRANCH  23  25
ENDBRANCH   4  23
TORSDOF 6
ENDMDL
MODEL 4
REMARK VINA RESULT:     -10.6      2.176      2.706
REMARK  Name = 16045418
REMARK  6 active torsions:
REMARK  status: ('A' for Active; 'I' for Inactive)
REMARK    1  A    between atoms: C_2  and  O_8
REMARK    2  A    between atoms: C_4  and  O_23
REMARK    3  A    between atoms: O_8  and  C_9
REMARK    4  A    between atoms: C_9  and  C_14
REMARK    5  A    between atoms: O_23  and  C_25
REMARK    6  A    between atoms: C_28  and  C_32
REMARK                            x       y       z     vdW  Elec       q    Type
REMARK                         _______ _______ _______ _____ _____    ______ ____
ROOT
ATOM      1 CL   UNL     1      31.289 -17.224 -26.357  0.00  0.00    -0.079 Cl
ATOM      2  C   UNL     1      34.908 -17.817 -23.734  0.00  0.00    +0.142 C 
ATOM      3  C   UNL     1      34.657 -16.560 -24.278  0.00  0.00    +0.075 C 
ATOM      4  C   UNL     1      33.539 -16.368 -25.091  0.00  0.00    +0.159 C 
ATOM      5  C   UNL     1      34.051 -18.882 -23.995  0.00  0.00    +0.038 C 
ATOM      6  C   UNL     1      32.678 -17.432 -25.356  0.00  0.00    +0.092 C 
ATOM      7  C   UNL     1      32.934 -18.689 -24.808  0.00  0.00    +0.018 C 
ENDROOT
BRANCH   2   8
ATOM      8  O   UNL     1      36.004 -18.005 -22.938  0.00  0.00    -0.469 OA
BRANCH   8   9
ATOM      9  C   UNL     1      35.845 -17.699 -21.551  0.00  0.00    +0.249 C 
BRANCH   9  14
ATOM     10  N   UNL     1      37.139 -19.381 -20.262  0.00  0.00    -0.227 N 
ATOM     11  N   UNL     1      37.059 -20.521 -19.543  0.00  0.00    -0.115 NA
ATOM     12  N   UNL     1      35.126 -21.876 -18.986  0.00  0.00    -0.335 NA
ATOM     13  N   UNL     1      33.006 -22.918 -18.660  0.00  0.00    -0.332 N 
ATOM     14  C   UNL     1      35.942 -18.927 -20.747  0.00  0.00    +0.097 C 
ATOM     15  C   UNL     1      35.021 -19.839 -20.309  0.00  0.00    +0.090 C 
ATOM     16  C   UNL     1      35.753 -20.814 -19.565  0.00  0.00    +0.105 C 
ATOM     17  C   UNL     1      33.657 -19.802 -20.555  0.00  0.00    +0.016 C 
ATOM     18  C   UNL     1      33.032 -20.898 -19.951  0.00  0.00    +0.049 C 
ATOM     19  C   UNL     1      33.774 -21.855 -19.216  0.00  0.00    +0.189 C 
ATOM     20  H   UNL     1      37.991 -18.914 -20.424  0.00  0.00    +0.175 HD
ATOM     21  H   UNL     1      33.450 -23.623 -18.136  0.00  0.00    +0.145 HD
ATOM     22  H   UNL     1      32.032 -22.947 -18.800  0.00  0.00    +0.145 HD
ENDBRANCH   9  14
ENDBRANCH   8   9
ENDBRANCH   2   8
BRANCH   4  23
ATOM     23  O   UNL     1      33.313 -15.129 -25.612  0.00  0.00    -0.452 OA
BRANCH  23  25
ATOM     24 CL   UNL     1      34.816 -10.327 -24.851  0.00  0.00    -0.082 Cl
ATOM     25  C   UNL     1      33.395 -14.047 -24.752  0.00  0.00    +0.147 C 
ATOM     26  C   UNL     1      32.877 -14.160 -23.474  0.00  0.00    +0.048 C 
ATOM     27  C   UNL     1      33.993 -12.879 -25.191  0.00  0.00    +0.049 C 
ATOM     28  C   UNL     1      32.960 -13.070 -22.608  0.00  0.00    +0.072 C 
ATOM     29  C   UNL     1      34.077 -11.789 -24.325  0.00  0.00    +0.061 C 
ATOM     30  C   UNL     1      33.560 -11.885 -23.033  0.00  0.00    +0.022 C 
BRANCH  28  32
ATOM     31  N   UNL     1      31.999 -13.248 -20.205  0.00  0.00    -0.191 NA
ATOM     32  C   UNL     1      32.430 -13.168 -21.284  0.00  0.00    +0.101 C 
ENDBRANCH  28  32
ENDBRANCH  23  25
ENDBRANCH   4  23
TORSDOF 6
ENDMDL
MODEL 5
REMARK VINA RESULT:     -10.5      2.236      2.928
REMARK  Name = 16045418
REMARK  6 active torsions:
REMARK  status: ('A' for Active; 'I' for Inactive)
REMARK    1  A    between atoms: C_2  and  O_8
REMARK    2  A    between atoms: C_4  and  O_23
REMARK    3  A    between atoms: O_8  and  C_9
REMARK    4  A    between atoms: C_9  and  C_14
REMARK    5  A    between atoms: O_23  and  C_25
REMARK    6  A    between atoms: C_28  and  C_32
REMARK                            x       y       z     vdW  Elec       q    Type
REMARK                         _______ _______ _______ _____ _____    ______ ____
ROOT
ATOM      1 CL   UNL     1      34.207 -17.199 -25.124  0.00  0.00    -0.079 Cl
ATOM      2  C   UNL     1      35.071 -19.187 -21.171  0.00  0.00    +0.142 C 
ATOM      3  C   UNL     1      35.504 -17.882 -21.388  0.00  0.00    +0.075 C 
ATOM      4  C   UNL     1      35.241 -17.259 -22.609  0.00  0.00    +0.159 C 
ATOM      5  C   UNL     1      34.377 -19.874 -22.163  0.00  0.00    +0.038 C 
ATOM      6  C   UNL     1      34.546 -17.943 -23.606  0.00  0.00    +0.092 C 
ATOM      7  C   UNL     1      34.114 -19.251 -23.383  0.00  0.00    +0.018 C 
ENDROOT
BRANCH   2   8
ATOM      8  O   UNL     1      35.329 -19.798 -19.975  0.00  0.00    -0.469 OA
BRANCH   8   9
ATOM      9  C   UNL     1      35.456 -21.221 -20.000  0.00  0.00    +0.249 C 
BRANCH   9  14
ATOM     10  N   UNL     1      33.279 -22.101 -19.192  0.00  0.00    -0.227 N 
ATOM     11  N   UNL     1      32.633 -22.653 -18.144  0.00  0.00    -0.115 NA
ATOM     12  N   UNL     1      33.455 -23.223 -15.934  0.00  0.00    -0.335 NA
ATOM     13  N   UNL     1      34.635 -23.632 -13.904  0.00  0.00    -0.332 N 
ATOM     14  C   UNL     1      34.600 -21.824 -18.966  0.00  0.00    +0.097 C 
ATOM     15  C   UNL     1      34.825 -22.227 -17.678  0.00  0.00    +0.090 C 
ATOM     16  C   UNL     1      33.579 -22.735 -17.201  0.00  0.00    +0.105 C 
ATOM     17  C   UNL     1      36.029 -22.145 -16.997  0.00  0.00    +0.016 C 
ATOM     18  C   UNL     1      35.882 -22.651 -15.701  0.00  0.00    +0.049 C 
ATOM     19  C   UNL     1      34.638 -23.152 -15.245  0.00  0.00    +0.189 C 
ATOM     20  H   UNL     1      32.835 -21.912 -20.051  0.00  0.00    +0.175 HD
ATOM     21  H   UNL     1      33.808 -23.996 -13.513  0.00  0.00    +0.145 HD
ATOM     22  H   UNL     1      35.461 -23.600 -13.367  0.00  0.00    +0.145 HD
ENDBRANCH   9  14
ENDBRANCH   8   9
ENDBRANCH   2   8
BRANCH   4  23
ATOM     23  O   UNL     1      35.674 -15.981 -22.799  0.00  0.00    -0.452 OA
BRANCH  23  25
ATOM     24 CL   UNL     1      33.204 -12.775 -25.884  0.00  0.00    -0.082 Cl
ATOM     25  C   UNL     1      34.714 -14.993 -22.940  0.00  0.00    +0.147 C 
ATOM     26  C   UNL     1      34.014 -14.567 -21.825  0.00  0.00    +0.048 C 
ATOM     27  C   UNL     1      34.479 -14.454 -24.193  0.00  0.00    +0.049 C 
ATOM     28  C   UNL     1      33.049 -13.571 -21.967  0.00  0.00    +0.072 C 
ATOM     29  C   UNL     1      33.514 -13.458 -24.335  0.00  0.00    +0.061 C 
ATOM     30  C   UNL     1      32.798 -13.017 -23.222  0.00  0.00    +0.022 C 
BRANCH  28  32
ATOM     31  N   UNL     1      31.719 -12.752 -19.897  0.00  0.00    -0.191 NA
ATOM     32  C   UNL     1      32.315 -13.120 -20.827  0.00  0.00    +0.101 C 
ENDBRANCH  28  32
ENDBRANCH  23  25
ENDBRANCH   4  23
TORSDOF 6
ENDMDL
MODEL 6
REMARK VINA RESULT:     -10.5      1.305      1.891
REMARK  Name = 16045418
REMARK  6 active torsions:
REMARK  status: ('A' for Active; 'I' for Inactive)
REMARK    1  A    between atoms: C_2  and  O_8
REMARK    2  A    between atoms: C_4  and  O_23
REMARK    3  A    between atoms: O_8  and  C_9
REMARK    4  A    between atoms: C_9  and  C_14
REMARK    5  A    between atoms: O_23  and  C_25
REMARK    6  A    between atoms: C_28  and  C_32
REMARK                            x       y       z     vdW  Elec       q    Type
REMARK                         _______ _______ _______ _____ _____    ______ ____
ROOT
ATOM      1 CL   UNL     1      32.632 -13.378 -26.555  0.00  0.00    -0.079 Cl
ATOM      2  C   UNL     1      34.629 -16.179 -23.641  0.00  0.00    +0.142 C 
ATOM      3  C   UNL     1      34.625 -14.811 -23.381  0.00  0.00    +0.075 C 
ATOM      4  C   UNL     1      34.009 -13.937 -24.277  0.00  0.00    +0.159 C 
ATOM      5  C   UNL     1      34.023 -16.680 -24.789  0.00  0.00    +0.038 C 
ATOM      6  C   UNL     1      33.400 -14.434 -25.429  0.00  0.00    +0.092 C 
ATOM      7  C   UNL     1      33.407 -15.805 -25.685  0.00  0.00    +0.018 C 
ENDROOT
BRANCH   2   8
ATOM      8  O   UNL     1      35.233 -17.035 -22.762  0.00  0.00    -0.469 OA
BRANCH   8   9
ATOM      9  C   UNL     1      34.621 -18.315 -22.597  0.00  0.00    +0.249 C 
BRANCH   9  14
ATOM     10  N   UNL     1      36.641 -18.926 -21.288  0.00  0.00    -0.227 N 
ATOM     11  N   UNL     1      37.113 -19.686 -20.277  0.00  0.00    -0.115 NA
ATOM     12  N   UNL     1      35.951 -21.253 -18.836  0.00  0.00    -0.335 NA
ATOM     13  N   UNL     1      34.464 -22.688 -17.646  0.00  0.00    -0.332 N 
ATOM     14  C   UNL     1      35.302 -19.068 -21.531  0.00  0.00    +0.097 C 
ATOM     15  C   UNL     1      34.876 -19.985 -20.610  0.00  0.00    +0.090 C 
ATOM     16  C   UNL     1      36.030 -20.345 -19.849  0.00  0.00    +0.105 C 
ATOM     17  C   UNL     1      33.579 -20.454 -20.466  0.00  0.00    +0.016 C 
ATOM     18  C   UNL     1      33.519 -21.382 -19.422  0.00  0.00    +0.049 C 
ATOM     19  C   UNL     1      34.674 -21.728 -18.678  0.00  0.00    +0.189 C 
ATOM     20  H   UNL     1      37.216 -18.319 -21.809  0.00  0.00    +0.175 HD
ATOM     21  H   UNL     1      35.218 -22.980 -17.085  0.00  0.00    +0.145 HD
ATOM     22  H   UNL     1      33.564 -23.059 -17.495  0.00  0.00    +0.145 HD
ENDBRANCH   9  14
ENDBRANCH   8   9
ENDBRANCH   2   8
BRANCH   4  23
ATOM     23  O   UNL     1      34.016 -12.602 -24.001  0.00  0.00    -0.452 OA
BRANCH  23  25
ATOM     24 CL   UNL     1      31.678 -13.712 -19.620  0.00  0.00    -0.082 Cl
ATOM     25  C   UNL     1      33.248 -12.163 -22.937  0.00  0.00    +0.147 C 
ATOM     26  C   UNL     1      32.848 -10.839 -22.894  0.00  0.00    +0.048 C 
ATOM     27  C   UNL     1      32.898 -13.058 -21.941  0.00  0.00    +0.049 C 
ATOM     28  C   UNL     1      32.073 -10.396 -21.822  0.00  0.00    +0.072 C 
ATOM     29  C   UNL     1      32.124 -12.616 -20.869  0.00  0.00    +0.061 C 
ATOM     30  C   UNL     1      31.712 -11.284 -20.810  0.00  0.00    +0.022 C 
BRANCH  28  32
ATOM     31  N   UNL     1      31.310  -7.920 -21.711  0.00  0.00    -0.191 NA
ATOM     32  C   UNL     1      31.652  -9.032 -21.761  0.00  0.00    +0.101 C 
ENDBRANCH  28  32
ENDBRANCH  23  25
ENDBRANCH   4  23
TORSDOF 6
ENDMDL
MODEL 7
REMARK VINA RESULT:     -10.3      5.073      8.515
REMARK  Name = 16045418
REMARK  6 active torsions:
REMARK  status: ('A' for Active; 'I' for Inactive)
REMARK    1  A    between atoms: C_2  and  O_8
REMARK    2  A    between atoms: C_4  and  O_23
REMARK    3  A    between atoms: O_8  and  C_9
REMARK    4  A    between atoms: C_9  and  C_14
REMARK    5  A    between atoms: O_23  and  C_25
REMARK    6  A    between atoms: C_28  and  C_32
REMARK                            x       y       z     vdW  Elec       q    Type
REMARK                         _______ _______ _______ _____ _____    ______ ____
ROOT
ATOM      1 CL   UNL     1      32.000  -6.905 -20.563  0.00  0.00    -0.079 Cl
ATOM      2  C   UNL     1      33.178 -10.393 -23.165  0.00  0.00    +0.142 C 
ATOM      3  C   UNL     1      33.900  -9.206 -23.246  0.00  0.00    +0.075 C 
ATOM      4  C   UNL     1      33.542  -8.121 -22.444  0.00  0.00    +0.159 C 
ATOM      5  C   UNL     1      32.102 -10.506 -22.290  0.00  0.00    +0.038 C 
ATOM      6  C   UNL     1      32.465  -8.229 -21.565  0.00  0.00    +0.092 C 
ATOM      7  C   UNL     1      31.744  -9.421 -21.488  0.00  0.00    +0.018 C 
ENDROOT
BRANCH   2   8
ATOM      8  O   UNL     1      33.528 -11.456 -23.952  0.00  0.00    -0.469 OA
BRANCH   8   9
ATOM      9  C   UNL     1      34.066 -12.596 -23.281  0.00  0.00    +0.249 C 
BRANCH   9  14
ATOM     10  N   UNL     1      33.211 -13.767 -25.297  0.00  0.00    -0.227 N 
ATOM     11  N   UNL     1      33.062 -14.968 -25.895  0.00  0.00    -0.115 NA
ATOM     12  N   UNL     1      33.711 -17.177 -25.134  0.00  0.00    -0.335 NA
ATOM     13  N   UNL     1      34.494 -19.146 -24.039  0.00  0.00    -0.332 N 
ATOM     14  C   UNL     1      33.823 -13.812 -24.073  0.00  0.00    +0.097 C 
ATOM     15  C   UNL     1      34.089 -15.137 -23.866  0.00  0.00    +0.090 C 
ATOM     16  C   UNL     1      33.602 -15.823 -25.020  0.00  0.00    +0.105 C 
ATOM     17  C   UNL     1      34.708 -15.679 -22.750  0.00  0.00    +0.016 C 
ATOM     18  C   UNL     1      34.812 -17.067 -22.886  0.00  0.00    +0.049 C 
ATOM     19  C   UNL     1      34.322 -17.731 -24.038  0.00  0.00    +0.189 C 
ATOM     20  H   UNL     1      32.904 -12.926 -25.708  0.00  0.00    +0.175 HD
ATOM     21  H   UNL     1      34.180 -19.678 -24.805  0.00  0.00    +0.145 HD
ATOM     22  H   UNL     1      34.926 -19.590 -23.274  0.00  0.00    +0.145 HD
ENDBRANCH   9  14
ENDBRANCH   8   9
ENDBRANCH   2   8
BRANCH   4  23
ATOM     23  O   UNL     1      34.264  -6.969 -22.540  0.00  0.00    -0.452 OA
BRANCH  23  25
ATOM     24 CL   UNL     1      35.404  -4.837 -27.017  0.00  0.00    -0.082 Cl
ATOM     25  C   UNL     1      33.915  -6.074 -23.536  0.00  0.00    +0.147 C 
ATOM     26  C   UNL     1      32.747  -5.342 -23.407  0.00  0.00    +0.048 C 
ATOM     27  C   UNL     1      34.742  -5.932 -24.636  0.00  0.00    +0.049 C 
ATOM     28  C   UNL     1      32.396  -4.440 -24.410  0.00  0.00    +0.072 C 
ATOM     29  C   UNL     1      34.391  -5.029 -25.640  0.00  0.00    +0.061 C 
ATOM     30  C   UNL     1      33.217  -4.284 -25.527  0.00  0.00    +0.022 C 
BRANCH  28  32
ATOM     31  N   UNL     1      30.214  -3.053 -24.200  0.00  0.00    -0.191 NA
ATOM     32  C   UNL     1      31.194  -3.676 -24.295  0.00  0.00    +0.101 C 
ENDBRANCH  28  32
ENDBRANCH  23  25
ENDBRANCH   4  23
TORSDOF 6
ENDMDL
MODEL 8
REMARK VINA RESULT:     -10.2      4.186      9.529
REMARK  Name = 16045418
REMARK  6 active torsions:
REMARK  status: ('A' for Active; 'I' for Inactive)
REMARK    1  A    between atoms: C_2  and  O_8
REMARK    2  A    between atoms: C_4  and  O_23
REMARK    3  A    between atoms: O_8  and  C_9
REMARK    4  A    between atoms: C_9  and  C_14
REMARK    5  A    between atoms: O_23  and  C_25
REMARK    6  A    between atoms: C_28  and  C_32
REMARK                            x       y       z     vdW  Elec       q    Type
REMARK                         _______ _______ _______ _____ _____    ______ ____
ROOT
ATOM      1 CL   UNL     1      37.184 -22.262 -17.442  0.00  0.00    -0.079 Cl
ATOM      2  C   UNL     1      34.821 -20.147 -20.647  0.00  0.00    +0.142 C 
ATOM      3  C   UNL     1      34.341 -21.344 -20.122  0.00  0.00    +0.075 C 
ATOM      4  C   UNL     1      35.066 -22.005 -19.130  0.00  0.00    +0.159 C 
ATOM      5  C   UNL     1      36.019 -19.606 -20.189  0.00  0.00    +0.038 C 
ATOM      6  C   UNL     1      36.267 -21.467 -18.667  0.00  0.00    +0.092 C 
ATOM      7  C   UNL     1      36.743 -20.268 -19.197  0.00  0.00    +0.018 C 
ENDROOT
BRANCH   2   8
ATOM      8  O   UNL     1      34.111 -19.500 -21.620  0.00  0.00    -0.469 OA
BRANCH   8   9
ATOM      9  C   UNL     1      34.726 -19.413 -22.907  0.00  0.00    +0.249 C 
BRANCH   9  14
ATOM     10  N   UNL     1      33.502 -18.358 -24.793  0.00  0.00    -0.227 N 
ATOM     11  N   UNL     1      33.108 -17.186 -25.335  0.00  0.00    -0.115 NA
ATOM     12  N   UNL     1      33.476 -14.915 -24.567  0.00  0.00    -0.335 NA
ATOM     13  N   UNL     1      34.048 -12.866 -23.490  0.00  0.00    -0.332 N 
ATOM     14  C   UNL     1      34.218 -18.237 -23.633  0.00  0.00    +0.097 C 
ATOM     15  C   UNL     1      34.292 -16.890 -23.408  0.00  0.00    +0.090 C 
ATOM     16  C   UNL     1      33.591 -16.271 -24.487  0.00  0.00    +0.105 C 
ATOM     17  C   UNL     1      34.927 -16.276 -22.339  0.00  0.00    +0.016 C 
ATOM     18  C   UNL     1      34.797 -14.887 -22.439  0.00  0.00    +0.049 C 
ATOM     19  C   UNL     1      34.098 -14.290 -23.517  0.00  0.00    +0.189 C 
ATOM     20  H   UNL     1      33.291 -19.230 -25.200  0.00  0.00    +0.175 HD
ATOM     21  H   UNL     1      33.580 -12.377 -24.204  0.00  0.00    +0.145 HD
ATOM     22  H   UNL     1      34.482 -12.372 -22.756  0.00  0.00    +0.145 HD
ENDBRANCH   9  14
ENDBRANCH   8   9
ENDBRANCH   2   8
BRANCH   4  23
ATOM     23  O   UNL     1      34.576 -23.174 -18.629  0.00  0.00    -0.452 OA
BRANCH  23  25
ATOM     24 CL   UNL     1      34.604 -23.412 -13.546  0.00  0.00    -0.082 Cl
ATOM     25  C   UNL     1      33.857 -23.115 -17.448  0.00  0.00    +0.147 C 
ATOM     26  C   UNL     1      32.491 -22.899 -17.499  0.00  0.00    +0.048 C 
ATOM     27  C   UNL     1      34.522 -23.275 -16.245  0.00  0.00    +0.049 C 
ATOM     28  C   UNL     1      31.767 -22.841 -16.308  0.00  0.00    +0.072 C 
ATOM     29  C   UNL     1      33.798 -23.217 -15.054  0.00  0.00    +0.061 C 
ATOM     30  C   UNL     1      32.420 -23.000 -15.086  0.00  0.00    +0.022 C 
BRANCH  28  32
ATOM     31  N   UNL     1      29.206 -22.436 -16.370  0.00  0.00    -0.191 NA
ATOM     32  C   UNL     1      30.356 -22.618 -16.342  0.00  0.00    +0.101 C 
ENDBRANCH  28  32
ENDBRANCH  23  25
ENDBRANCH   4  23
TORSDOF 6
ENDMDL
MODEL 9
REMARK VINA RESULT:     -10.2      5.096      8.491
REMARK  Name = 16045418
REMARK  6 active torsions:
REMARK  status: ('A' for Active; 'I' for Inactive)
REMARK    1  A    between atoms: C_2  and  O_8
REMARK    2  A    between atoms: C_4  and  O_23
REMARK    3  A    between atoms: O_8  and  C_9
REMARK    4  A    between atoms: C_9  and  C_14
REMARK    5  A    between atoms: O_23  and  C_25
REMARK    6  A    between atoms: C_28  and  C_32
REMARK                            x       y       z     vdW  Elec       q    Type
REMARK                         _______ _______ _______ _____ _____    ______ ____
ROOT
ATOM      1 CL   UNL     1      31.950  -6.984 -20.397  0.00  0.00    -0.079 Cl
ATOM      2  C   UNL     1      33.080 -10.399 -23.115  0.00  0.00    +0.142 C 
ATOM      3  C   UNL     1      33.811  -9.215 -23.165  0.00  0.00    +0.075 C 
ATOM      4  C   UNL     1      33.469  -8.154 -22.327  0.00  0.00    +0.159 C 
ATOM      5  C   UNL     1      32.009 -10.530 -22.236  0.00  0.00    +0.038 C 
ATOM      6  C   UNL     1      32.397  -8.280 -21.443  0.00  0.00    +0.092 C 
ATOM      7  C   UNL     1      31.667  -9.468 -21.399  0.00  0.00    +0.018 C 
ENDROOT
BRANCH   2   8
ATOM      8  O   UNL     1      33.416 -11.439 -23.937  0.00  0.00    -0.469 OA
BRANCH   8   9
ATOM      9  C   UNL     1      34.045 -12.563 -23.319  0.00  0.00    +0.249 C 
BRANCH   9  14
ATOM     10  N   UNL     1      33.183 -13.736 -25.330  0.00  0.00    -0.227 N 
ATOM     11  N   UNL     1      33.032 -14.937 -25.928  0.00  0.00    -0.115 NA
ATOM     12  N   UNL     1      33.687 -17.145 -25.168  0.00  0.00    -0.335 NA
ATOM     13  N   UNL     1      34.476 -19.112 -24.076  0.00  0.00    -0.332 N 
ATOM     14  C   UNL     1      33.799 -13.780 -24.110  0.00  0.00    +0.097 C 
ATOM     15  C   UNL     1      34.068 -15.104 -23.903  0.00  0.00    +0.090 C 
ATOM     16  C   UNL     1      33.576 -15.792 -25.054  0.00  0.00    +0.105 C 
ATOM     17  C   UNL     1      34.693 -15.645 -22.789  0.00  0.00    +0.016 C 
ATOM     18  C   UNL     1      34.797 -17.033 -22.925  0.00  0.00    +0.049 C 
ATOM     19  C   UNL     1      34.304 -17.698 -24.075  0.00  0.00    +0.189 C 
ATOM     20  H   UNL     1      32.873 -12.896 -25.741  0.00  0.00    +0.175 HD
ATOM     21  H   UNL     1      34.160 -19.646 -24.840  0.00  0.00    +0.145 HD
ATOM     22  H   UNL     1      34.913 -19.555 -23.312  0.00  0.00    +0.145 HD
ENDBRANCH   9  14
ENDBRANCH   8   9
ENDBRANCH   2   8
BRANCH   4  23
ATOM     23  O   UNL     1      34.200  -7.005 -22.392  0.00  0.00    -0.452 OA
BRANCH  23  25
ATOM     24 CL   UNL     1      31.071  -3.665 -24.617  0.00  0.00    -0.082 Cl
ATOM     25  C   UNL     1      33.958  -6.150 -23.454  0.00  0.00    +0.147 C 
ATOM     26  C   UNL     1      34.905  -6.037 -24.457  0.00  0.00    +0.048 C 
ATOM     27  C   UNL     1      32.777  -5.431 -23.486  0.00  0.00    +0.049 C 
ATOM     28  C   UNL     1      34.661  -5.177 -25.528  0.00  0.00    +0.072 C 
ATOM     29  C   UNL     1      32.533  -4.571 -24.557  0.00  0.00    +0.061 C 
ATOM     30  C   UNL     1      33.476  -4.443 -25.577  0.00  0.00    +0.022 C 
BRANCH  28  32
ATOM     31  N   UNL     1      36.414  -4.942 -27.424  0.00  0.00    -0.191 NA
ATOM     32  C   UNL     1      35.627  -5.047 -26.573  0.00  0.00    +0.101 C 
ENDBRANCH  28  32
ENDBRANCH  23  25
ENDBRANCH   4  23
TORSDOF 6
ENDMDL
