MODEL 1
REMARK VINA RESULT:     -11.9      0.000      0.000
REMARK  Name = 4413
REMARK  6 active torsions:
REMARK  status: ('A' for Active; 'I' for Inactive)
REMARK    1  A    between atoms: O_1  and  C_9
REMARK    2  A    between atoms: O_1  and  C_19
REMARK    3  A    between atoms: C_6  and  C_14
REMARK    4  A    between atoms: C_19  and  C_20
REMARK    5  A    between atoms: C_23  and  N_26
REMARK    6  A    between atoms: N_26  and  C_29
REMARK                            x       y       z     vdW  Elec       q    Type
REMARK                         _______ _______ _______ _____ _____    ______ ____
ROOT
ATOM      1  O   UNL     1      35.022 -20.164 -21.295  0.00  0.00    -0.421 OA
ENDROOT
BRANCH   1   9
ATOM      2  C   UNL     1      35.216 -22.195 -17.658  0.00  0.00    +0.000 C 
ATOM      3  C   UNL     1      33.967 -22.009 -18.299  0.00  0.00    +0.003 C 
ATOM      4  C   UNL     1      35.264 -22.882 -16.434  0.00  0.00    +0.003 C 
ATOM      5  C   UNL     1      33.920 -21.322 -19.523  0.00  0.00    +0.038 C 
ATOM      6  C   UNL     1      34.098 -23.378 -15.850  0.00  0.00    +0.031 C 
ATOM      7  C   UNL     1      32.804 -22.515 -17.697  0.00  0.00    +0.000 C 
ATOM      8  C   UNL     1      36.379 -21.689 -18.261  0.00  0.00    +0.003 C 
ATOM      9  C   UNL     1      35.086 -20.826 -20.108  0.00  0.00    +0.149 C 
ATOM     10  C   UNL     1      32.870 -23.195 -16.480  0.00  0.00    +0.003 C 
ATOM     11  C   UNL     1      36.312 -21.010 -19.477  0.00  0.00    +0.038 C 
BRANCH   6  14
ATOM     12  N   UNL     1      34.895 -25.266 -14.448  0.00  0.00    -0.343 N 
ATOM     13  N   UNL     1      33.522 -23.612 -13.529  0.00  0.00    -0.285 NA
ATOM     14  C   UNL     1      34.165 -24.086 -14.582  0.00  0.00    +0.117 C 
ATOM     15  H   UNL     1      34.926 -25.729 -13.579  0.00  0.00    +0.144 HD
ATOM     16  H   UNL     1      35.378 -25.637 -15.221  0.00  0.00    +0.144 HD
ATOM     17  H   UNL     1      33.566 -24.090 -12.669  0.00  0.00    +0.188 HD
ENDBRANCH   6  14
ENDBRANCH   1   9
BRANCH   1  19
ATOM     18  O   UNL     1      36.038 -18.312 -20.314  0.00  0.00    -0.244 OA
ATOM     19  C   UNL     1      35.414 -18.826 -21.230  0.00  0.00    +0.346 C 
BRANCH  19  20
ATOM     20  C   UNL     1      34.982 -18.079 -22.439  0.00  0.00    +0.076 C 
ATOM     21  C   UNL     1      35.294 -16.739 -22.543  0.00  0.00    +0.008 C 
ATOM     22  C   UNL     1      34.284 -18.750 -23.423  0.00  0.00    +0.008 C 
ATOM     23  C   UNL     1      34.185 -16.694 -24.688  0.00  0.00    +0.084 C 
ATOM     24  C   UNL     1      34.890 -16.040 -23.679  0.00  0.00    +0.019 C 
ATOM     25  C   UNL     1      33.881 -18.050 -24.560  0.00  0.00    +0.019 C 
BRANCH  23  26
ATOM     26  N   UNL     1      33.779 -15.992 -25.827  0.00  0.00    -0.214 NA
BRANCH  26  29
ATOM     27  N   UNL     1      33.732 -13.800 -26.634  0.00  0.00    -0.370 N 
ATOM     28  N   UNL     1      32.625 -14.212 -24.682  0.00  0.00    -0.370 N 
ATOM     29  C   UNL     1      33.387 -14.747 -25.698  0.00  0.00    +0.193 C 
ATOM     30  H   UNL     1      34.278 -14.055 -27.413  0.00  0.00    +0.159 HD
ATOM     31  H   UNL     1      33.432 -12.868 -26.526  0.00  0.00    +0.159 HD
ATOM     32  H   UNL     1      32.312 -14.787 -23.947  0.00  0.00    +0.159 HD
ATOM     33  H   UNL     1      32.391 -13.255 -24.692  0.00  0.00    +0.159 HD
ENDBRANCH  26  29
ENDBRANCH  23  26
ENDBRANCH  19  20
ENDBRANCH   1  19
TORSDOF 6
ENDMDL
MODEL 2
REMARK VINA RESULT:     -11.6      1.141      2.009
REMARK  Name = 4413
REMARK  6 active torsions:
REMARK  status: ('A' for Active; 'I' for Inactive)
REMARK    1  A    between atoms: O_1  and  C_9
REMARK    2  A    between atoms: O_1  and  C_19
REMARK    3  A    between atoms: C_6  and  C_14
REMARK    4  A    between atoms: C_19  and  C_20
REMARK    5  A    between atoms: C_23  and  N_26
REMARK    6  A    between atoms: N_26  and  C_29
REMARK                            x       y       z     vdW  Elec       q    Type
REMARK                         _______ _______ _______ _____ _____    ______ ____
ROOT
ATOM      1  O   UNL     1      34.789 -20.744 -20.866  0.00  0.00    -0.421 OA
ENDROOT
BRANCH   1   9
ATOM      2  C   UNL     1      34.594 -22.580 -17.127  0.00  0.00    +0.000 C 
ATOM      3  C   UNL     1      35.827 -22.073 -17.603  0.00  0.00    +0.003 C 
ATOM      4  C   UNL     1      34.545 -23.196 -15.866  0.00  0.00    +0.003 C 
ATOM      5  C   UNL     1      35.875 -21.458 -18.864  0.00  0.00    +0.038 C 
ATOM      6  C   UNL     1      35.695 -23.308 -15.084  0.00  0.00    +0.031 C 
ATOM      7  C   UNL     1      36.974 -22.195 -16.803  0.00  0.00    +0.000 C 
ATOM      8  C   UNL     1      33.446 -22.458 -17.928  0.00  0.00    +0.003 C 
ATOM      9  C   UNL     1      34.725 -21.344 -19.647  0.00  0.00    +0.149 C 
ATOM     10  C   UNL     1      36.908 -22.809 -15.552  0.00  0.00    +0.003 C 
ATOM     11  C   UNL     1      33.514 -21.844 -19.179  0.00  0.00    +0.038 C 
BRANCH   6  14
ATOM     12  N   UNL     1      35.788 -23.217 -12.604  0.00  0.00    -0.343 N 
ATOM     13  N   UNL     1      35.415 -25.250 -13.697  0.00  0.00    -0.285 NA
ATOM     14  C   UNL     1      35.628 -23.949 -13.781  0.00  0.00    +0.117 C 
ATOM     15  H   UNL     1      35.738 -23.672 -11.733  0.00  0.00    +0.144 HD
ATOM     16  H   UNL     1      35.950 -22.248 -12.646  0.00  0.00    +0.144 HD
ATOM     17  H   UNL     1      35.369 -25.685 -12.814  0.00  0.00    +0.188 HD
ENDBRANCH   6  14
ENDBRANCH   1   9
BRANCH   1  19
ATOM     18  O   UNL     1      36.364 -19.231 -20.055  0.00  0.00    -0.244 OA
ATOM     19  C   UNL     1      35.534 -19.563 -20.888  0.00  0.00    +0.346 C 
BRANCH  19  20
ATOM     20  C   UNL     1      35.202 -18.739 -22.077  0.00  0.00    +0.076 C 
ATOM     21  C   UNL     1      35.419 -17.377 -22.028  0.00  0.00    +0.008 C 
ATOM     22  C   UNL     1      34.687 -19.361 -23.197  0.00  0.00    +0.008 C 
ATOM     23  C   UNL     1      34.588 -17.208 -24.290  0.00  0.00    +0.084 C 
ATOM     24  C   UNL     1      35.108 -16.604 -23.146  0.00  0.00    +0.019 C 
ATOM     25  C   UNL     1      34.377 -18.587 -24.316  0.00  0.00    +0.019 C 
BRANCH  23  26
ATOM     26  N   UNL     1      34.276 -16.433 -25.410  0.00  0.00    -0.214 NA
BRANCH  26  29
ATOM     27  N   UNL     1      31.996 -16.646 -25.875  0.00  0.00    -0.370 N 
ATOM     28  N   UNL     1      32.738 -14.584 -25.241  0.00  0.00    -0.370 N 
ATOM     29  C   UNL     1      33.083 -15.894 -25.495  0.00  0.00    +0.193 C 
ATOM     30  H   UNL     1      32.108 -17.602 -26.085  0.00  0.00    +0.159 HD
ATOM     31  H   UNL     1      31.105 -16.230 -25.934  0.00  0.00    +0.159 HD
ATOM     32  H   UNL     1      33.428 -13.940 -24.959  0.00  0.00    +0.159 HD
ATOM     33  H   UNL     1      31.803 -14.292 -25.338  0.00  0.00    +0.159 HD
ENDBRANCH  26  29
ENDBRANCH  23  26
ENDBRANCH  19  20
ENDBRANCH   1  19
TORSDOF 6
ENDMDL
MODEL 3
REMARK VINA RESULT:     -11.5      2.409     10.460
REMARK  Name = 4413
REMARK  6 active torsions:
REMARK  status: ('A' for Active; 'I' for Inactive)
REMARK    1  A    between atoms: O_1  and  C_9
REMARK    2  A    between atoms: O_1  and  C_19
REMARK    3  A    between atoms: C_6  and  C_14
REMARK    4  A    between atoms: C_19  and  C_20
REMARK    5  A    between atoms: C_23  and  N_26
REMARK    6  A    between atoms: N_26  and  C_29
REMARK                            x       y       z     vdW  Elec       q    Type
REMARK                         _______ _______ _______ _____ _____    ______ ____
ROOT
ATOM      1  O   UNL     1      34.873 -22.880 -17.801  0.00  0.00    -0.421 OA
ENDROOT
BRANCH   1   9
ATOM      2  C   UNL     1      34.319 -19.990 -20.756  0.00  0.00    +0.000 C 
ATOM      3  C   UNL     1      35.622 -20.276 -20.281  0.00  0.00    +0.003 C 
ATOM      4  C   UNL     1      34.149 -19.015 -21.752  0.00  0.00    +0.003 C 
ATOM      5  C   UNL     1      35.790 -21.252 -19.285  0.00  0.00    +0.038 C 
ATOM      6  C   UNL     1      35.248 -18.331 -22.272  0.00  0.00    +0.031 C 
ATOM      7  C   UNL     1      36.716 -19.579 -20.816  0.00  0.00    +0.000 C 
ATOM      8  C   UNL     1      33.224 -20.689 -20.220  0.00  0.00    +0.003 C 
ATOM      9  C   UNL     1      34.691 -21.936 -18.764  0.00  0.00    +0.149 C 
ATOM     10  C   UNL     1      36.529 -18.612 -21.805  0.00  0.00    +0.003 C 
ATOM     11  C   UNL     1      33.411 -21.655 -19.232  0.00  0.00    +0.038 C 
BRANCH   6  14
ATOM     12  N   UNL     1      34.226 -17.555 -24.398  0.00  0.00    -0.343 N 
ATOM     13  N   UNL     1      35.679 -16.161 -23.210  0.00  0.00    -0.285 NA
ATOM     14  C   UNL     1      35.056 -17.323 -23.303  0.00  0.00    +0.117 C 
ATOM     15  H   UNL     1      34.111 -16.858 -25.083  0.00  0.00    +0.144 HD
ATOM     16  H   UNL     1      33.756 -18.415 -24.486  0.00  0.00    +0.144 HD
ATOM     17  H   UNL     1      35.550 -15.477 -23.907  0.00  0.00    +0.188 HD
ENDBRANCH   6  14
ENDBRANCH   1   9
BRANCH   1  19
ATOM     18  O   UNL     1      32.635 -22.852 -17.152  0.00  0.00    -0.244 OA
ATOM     19  C   UNL     1      33.822 -22.980 -16.887  0.00  0.00    +0.346 C 
BRANCH  19  20
ATOM     20  C   UNL     1      34.322 -23.277 -15.521  0.00  0.00    +0.076 C 
ATOM     21  C   UNL     1      35.603 -22.895 -15.181  0.00  0.00    +0.008 C 
ATOM     22  C   UNL     1      33.488 -23.926 -14.633  0.00  0.00    +0.008 C 
ATOM     23  C   UNL     1      35.249 -23.827 -12.981  0.00  0.00    +0.084 C 
ATOM     24  C   UNL     1      36.071 -23.173 -13.898  0.00  0.00    +0.019 C 
ATOM     25  C   UNL     1      33.956 -24.204 -13.348  0.00  0.00    +0.019 C 
BRANCH  23  26
ATOM     26  N   UNL     1      35.718 -24.107 -11.694  0.00  0.00    -0.214 NA
BRANCH  26  29
ATOM     27  N   UNL     1      37.953 -24.096 -11.016  0.00  0.00    -0.370 N 
ATOM     28  N   UNL     1      37.151 -26.033 -11.916  0.00  0.00    -0.370 N 
ATOM     29  C   UNL     1      36.863 -24.733 -11.560  0.00  0.00    +0.193 C 
ATOM     30  H   UNL     1      37.880 -23.160 -10.720  0.00  0.00    +0.159 HD
ATOM     31  H   UNL     1      38.808 -24.576 -10.921  0.00  0.00    +0.159 HD
ATOM     32  H   UNL     1      36.453 -26.599 -12.318  0.00  0.00    +0.159 HD
ATOM     33  H   UNL     1      38.054 -26.397 -11.766  0.00  0.00    +0.159 HD
ENDBRANCH  26  29
ENDBRANCH  23  26
ENDBRANCH  19  20
ENDBRANCH   1  19
TORSDOF 6
ENDMDL
MODEL 4
REMARK VINA RESULT:     -11.5      3.017     10.114
REMARK  Name = 4413
REMARK  6 active torsions:
REMARK  status: ('A' for Active; 'I' for Inactive)
REMARK    1  A    between atoms: O_1  and  C_9
REMARK    2  A    between atoms: O_1  and  C_19
REMARK    3  A    between atoms: C_6  and  C_14
REMARK    4  A    between atoms: C_19  and  C_20
REMARK    5  A    between atoms: C_23  and  N_26
REMARK    6  A    between atoms: N_26  and  C_29
REMARK                            x       y       z     vdW  Elec       q    Type
REMARK                         _______ _______ _______ _____ _____    ______ ____
ROOT
ATOM      1  O   UNL     1      34.123 -23.570 -17.736  0.00  0.00    -0.421 OA
ENDROOT
BRANCH   1   9
ATOM      2  C   UNL     1      34.053 -20.250 -20.257  0.00  0.00    +0.000 C 
ATOM      3  C   UNL     1      35.291 -20.772 -19.809  0.00  0.00    +0.003 C 
ATOM      4  C   UNL     1      34.047 -19.131 -21.106  0.00  0.00    +0.003 C 
ATOM      5  C   UNL     1      35.296 -21.890 -18.960  0.00  0.00    +0.038 C 
ATOM      6  C   UNL     1      35.243 -18.536 -21.508  0.00  0.00    +0.031 C 
ATOM      7  C   UNL     1      36.484 -20.161 -20.223  0.00  0.00    +0.000 C 
ATOM      8  C   UNL     1      32.859 -20.861 -19.842  0.00  0.00    +0.003 C 
ATOM      9  C   UNL     1      34.100 -22.486 -18.557  0.00  0.00    +0.149 C 
ATOM     10  C   UNL     1      36.460 -19.049 -21.067  0.00  0.00    +0.003 C 
ATOM     11  C   UNL     1      32.884 -21.972 -18.998  0.00  0.00    +0.038 C 
BRANCH   6  14
ATOM     12  N   UNL     1      35.001 -16.094 -21.890  0.00  0.00    -0.343 N 
ATOM     13  N   UNL     1      35.407 -17.534 -23.686  0.00  0.00    -0.285 NA
ATOM     14  C   UNL     1      35.220 -17.378 -22.387  0.00  0.00    +0.117 C 
ATOM     15  H   UNL     1      34.990 -15.325 -22.504  0.00  0.00    +0.144 HD
ATOM     16  H   UNL     1      34.858 -15.957 -20.926  0.00  0.00    +0.144 HD
ATOM     17  H   UNL     1      35.391 -16.751 -24.283  0.00  0.00    +0.188 HD
ENDBRANCH   6  14
ENDBRANCH   1   9
BRANCH   1  19
ATOM     18  O   UNL     1      32.992 -22.802 -15.849  0.00  0.00    -0.244 OA
ATOM     19  C   UNL     1      33.990 -23.267 -16.379  0.00  0.00    +0.346 C 
BRANCH  19  20
ATOM     20  C   UNL     1      35.230 -23.594 -15.630  0.00  0.00    +0.076 C 
ATOM     21  C   UNL     1      35.324 -24.815 -14.994  0.00  0.00    +0.008 C 
ATOM     22  C   UNL     1      36.251 -22.666 -15.595  0.00  0.00    +0.008 C 
ATOM     23  C   UNL     1      37.536 -24.202 -14.242  0.00  0.00    +0.084 C 
ATOM     24  C   UNL     1      36.489 -25.121 -14.293  0.00  0.00    +0.019 C 
ATOM     25  C   UNL     1      37.417 -22.974 -14.893  0.00  0.00    +0.019 C 
BRANCH  23  26
ATOM     26  N   UNL     1      38.704 -24.509 -13.538  0.00  0.00    -0.214 NA
BRANCH  26  29
ATOM     27  N   UNL     1      39.931 -25.285 -15.368  0.00  0.00    -0.370 N 
ATOM     28  N   UNL     1      40.135 -26.445 -13.414  0.00  0.00    -0.370 N 
ATOM     29  C   UNL     1      39.544 -25.376 -14.052  0.00  0.00    +0.193 C 
ATOM     30  H   UNL     1      39.579 -24.562 -15.936  0.00  0.00    +0.159 HD
ATOM     31  H   UNL     1      40.563 -25.941 -15.742  0.00  0.00    +0.159 HD
ATOM     32  H   UNL     1      39.940 -26.620 -12.465  0.00  0.00    +0.159 HD
ATOM     33  H   UNL     1      40.754 -27.031 -13.906  0.00  0.00    +0.159 HD
ENDBRANCH  26  29
ENDBRANCH  23  26
ENDBRANCH  19  20
ENDBRANCH   1  19
TORSDOF 6
ENDMDL
MODEL 5
REMARK VINA RESULT:     -11.4      2.459      3.676
REMARK  Name = 4413
REMARK  6 active torsions:
REMARK  status: ('A' for Active; 'I' for Inactive)
REMARK    1  A    between atoms: O_1  and  C_9
REMARK    2  A    between atoms: O_1  and  C_19
REMARK    3  A    between atoms: C_6  and  C_14
REMARK    4  A    between atoms: C_19  and  C_20
REMARK    5  A    between atoms: C_23  and  N_26
REMARK    6  A    between atoms: N_26  and  C_29
REMARK                            x       y       z     vdW  Elec       q    Type
REMARK                         _______ _______ _______ _____ _____    ______ ____
ROOT
ATOM      1  O   UNL     1      35.980 -17.410 -22.934  0.00  0.00    -0.421 OA
ENDROOT
BRANCH   1   9
ATOM      2  C   UNL     1      35.626 -20.418 -20.068  0.00  0.00    +0.000 C 
ATOM      3  C   UNL     1      34.468 -19.896 -20.692  0.00  0.00    +0.003 C 
ATOM      4  C   UNL     1      35.490 -21.431 -19.105  0.00  0.00    +0.003 C 
ATOM      5  C   UNL     1      34.605 -18.883 -21.655  0.00  0.00    +0.038 C 
ATOM      6  C   UNL     1      34.230 -21.923 -18.763  0.00  0.00    +0.031 C 
ATOM      7  C   UNL     1      33.209 -20.402 -20.336  0.00  0.00    +0.000 C 
ATOM      8  C   UNL     1      36.887 -19.911 -20.425  0.00  0.00    +0.003 C 
ATOM      9  C   UNL     1      35.865 -18.391 -21.998  0.00  0.00    +0.149 C 
ATOM     10  C   UNL     1      33.091 -21.409 -19.376  0.00  0.00    +0.003 C 
ATOM     11  C   UNL     1      37.003 -18.905 -21.384  0.00  0.00    +0.038 C 
BRANCH   6  14
ATOM     12  N   UNL     1      34.594 -22.802 -16.469  0.00  0.00    -0.343 N 
ATOM     13  N   UNL     1      33.522 -24.114 -18.078  0.00  0.00    -0.285 NA
ATOM     14  C   UNL     1      34.106 -22.971 -17.763  0.00  0.00    +0.117 C 
ATOM     15  H   UNL     1      34.498 -23.525 -15.808  0.00  0.00    +0.144 HD
ATOM     16  H   UNL     1      35.035 -21.959 -16.216  0.00  0.00    +0.144 HD
ATOM     17  H   UNL     1      33.436 -24.826 -17.403  0.00  0.00    +0.188 HD
ENDBRANCH   6  14
ENDBRANCH   1   9
BRANCH   1  19
ATOM     18  O   UNL     1      34.245 -17.976 -24.382  0.00  0.00    -0.244 OA
ATOM     19  C   UNL     1      34.813 -17.169 -23.661  0.00  0.00    +0.346 C 
BRANCH  19  20
ATOM     20  C   UNL     1      34.320 -15.785 -23.446  0.00  0.00    +0.076 C 
ATOM     21  C   UNL     1      33.626 -15.158 -24.460  0.00  0.00    +0.008 C 
ATOM     22  C   UNL     1      34.570 -15.170 -22.236  0.00  0.00    +0.008 C 
ATOM     23  C   UNL     1      33.400 -13.215 -23.043  0.00  0.00    +0.084 C 
ATOM     24  C   UNL     1      33.162 -13.859 -24.256  0.00  0.00    +0.019 C 
ATOM     25  C   UNL     1      34.105 -13.870 -22.032  0.00  0.00    +0.019 C 
BRANCH  23  26
ATOM     26  N   UNL     1      32.936 -11.912 -22.839  0.00  0.00    -0.214 NA
BRANCH  26  29
ATOM     27  N   UNL     1      33.179  -9.616 -23.192  0.00  0.00    -0.370 N 
ATOM     28  N   UNL     1      34.685 -10.990 -24.217  0.00  0.00    -0.370 N 
ATOM     29  C   UNL     1      33.582 -10.915 -23.396  0.00  0.00    +0.193 C 
ATOM     30  H   UNL     1      32.400  -9.426 -22.622  0.00  0.00    +0.159 HD
ATOM     31  H   UNL     1      33.672  -8.875 -23.615  0.00  0.00    +0.159 HD
ATOM     32  H   UNL     1      35.073 -11.866 -24.441  0.00  0.00    +0.159 HD
ATOM     33  H   UNL     1      35.088 -10.166 -24.579  0.00  0.00    +0.159 HD
ENDBRANCH  26  29
ENDBRANCH  23  26
ENDBRANCH  19  20
ENDBRANCH   1  19
TORSDOF 6
ENDMDL
MODEL 6
REMARK VINA RESULT:     -11.4      1.573      2.550
REMARK  Name = 4413
REMARK  6 active torsions:
REMARK  status: ('A' for Active; 'I' for Inactive)
REMARK    1  A    between atoms: O_1  and  C_9
REMARK    2  A    between atoms: O_1  and  C_19
REMARK    3  A    between atoms: C_6  and  C_14
REMARK    4  A    between atoms: C_19  and  C_20
REMARK    5  A    between atoms: C_23  and  N_26
REMARK    6  A    between atoms: N_26  and  C_29
REMARK                            x       y       z     vdW  Elec       q    Type
REMARK                         _______ _______ _______ _____ _____    ______ ____
ROOT
ATOM      1  O   UNL     1      35.713 -19.121 -22.060  0.00  0.00    -0.421 OA
ENDROOT
BRANCH   1   9
ATOM      2  C   UNL     1      33.753 -21.348 -19.130  0.00  0.00    +0.000 C 
ATOM      3  C   UNL     1      35.166 -21.256 -19.122  0.00  0.00    +0.003 C 
ATOM      4  C   UNL     1      33.108 -22.102 -18.136  0.00  0.00    +0.003 C 
ATOM      5  C   UNL     1      35.810 -20.502 -20.117  0.00  0.00    +0.038 C 
ATOM      6  C   UNL     1      33.845 -22.755 -17.148  0.00  0.00    +0.031 C 
ATOM      7  C   UNL     1      35.891 -21.920 -18.121  0.00  0.00    +0.000 C 
ATOM      8  C   UNL     1      33.027 -20.683 -20.132  0.00  0.00    +0.003 C 
ATOM      9  C   UNL     1      35.073 -19.848 -21.105  0.00  0.00    +0.149 C 
ATOM     10  C   UNL     1      35.235 -22.665 -17.140  0.00  0.00    +0.003 C 
ATOM     11  C   UNL     1      33.684 -19.939 -21.112  0.00  0.00    +0.038 C 
BRANCH   6  14
ATOM     12  N   UNL     1      31.772 -23.611 -16.083  0.00  0.00    -0.343 N 
ATOM     13  N   UNL     1      33.866 -24.179 -15.213  0.00  0.00    -0.285 NA
ATOM     14  C   UNL     1      33.163 -23.532 -16.126  0.00  0.00    +0.117 C 
ATOM     15  H   UNL     1      31.331 -24.143 -15.382  0.00  0.00    +0.144 HD
ATOM     16  H   UNL     1      31.231 -23.134 -16.753  0.00  0.00    +0.144 HD
ATOM     17  H   UNL     1      33.405 -24.706 -14.520  0.00  0.00    +0.188 HD
ENDBRANCH   6  14
ENDBRANCH   1   9
BRANCH   1  19
ATOM     18  O   UNL     1      34.847 -20.045 -24.015  0.00  0.00    -0.244 OA
ATOM     19  C   UNL     1      35.057 -19.083 -23.292  0.00  0.00    +0.346 C 
BRANCH  19  20
ATOM     20  C   UNL     1      34.621 -17.704 -23.627  0.00  0.00    +0.076 C 
ATOM     21  C   UNL     1      35.062 -16.655 -22.847  0.00  0.00    +0.008 C 
ATOM     22  C   UNL     1      33.788 -17.514 -24.711  0.00  0.00    +0.008 C 
ATOM     23  C   UNL     1      33.813 -15.141 -24.255  0.00  0.00    +0.084 C 
ATOM     24  C   UNL     1      34.654 -15.360 -23.165  0.00  0.00    +0.019 C 
ATOM     25  C   UNL     1      33.379 -16.218 -25.029  0.00  0.00    +0.019 C 
BRANCH  23  26
ATOM     26  N   UNL     1      33.403 -13.843 -24.573  0.00  0.00    -0.214 NA
BRANCH  26  29
ATOM     27  N   UNL     1      32.715 -12.951 -22.525  0.00  0.00    -0.370 N 
ATOM     28  N   UNL     1      34.322 -11.805 -23.671  0.00  0.00    -0.370 N 
ATOM     29  C   UNL     1      33.495 -12.907 -23.657  0.00  0.00    +0.193 C 
ATOM     30  H   UNL     1      32.080 -13.692 -22.394  0.00  0.00    +0.159 HD
ATOM     31  H   UNL     1      32.794 -12.243 -21.845  0.00  0.00    +0.159 HD
ATOM     32  H   UNL     1      34.932 -11.657 -24.429  0.00  0.00    +0.159 HD
ATOM     33  H   UNL     1      34.304 -11.166 -22.921  0.00  0.00    +0.159 HD
ENDBRANCH  26  29
ENDBRANCH  23  26
ENDBRANCH  19  20
ENDBRANCH   1  19
TORSDOF 6
ENDMDL
MODEL 7
REMARK VINA RESULT:     -11.2      1.181      1.849
REMARK  Name = 4413
REMARK  6 active torsions:
REMARK  status: ('A' for Active; 'I' for Inactive)
REMARK    1  A    between atoms: O_1  and  C_9
REMARK    2  A    between atoms: O_1  and  C_19
REMARK    3  A    between atoms: C_6  and  C_14
REMARK    4  A    between atoms: C_19  and  C_20
REMARK    5  A    between atoms: C_23  and  N_26
REMARK    6  A    between atoms: N_26  and  C_29
REMARK                            x       y       z     vdW  Elec       q    Type
REMARK                         _______ _______ _______ _____ _____    ______ ____
ROOT
ATOM      1  O   UNL     1      34.014 -20.780 -20.371  0.00  0.00    -0.421 OA
ENDROOT
BRANCH   1   9
ATOM      2  C   UNL     1      34.140 -22.857 -16.757  0.00  0.00    +0.000 C 
ATOM      3  C   UNL     1      32.894 -22.557 -17.358  0.00  0.00    +0.003 C 
ATOM      4  C   UNL     1      34.165 -23.557 -15.540  0.00  0.00    +0.003 C 
ATOM      5  C   UNL     1      32.870 -21.856 -18.575  0.00  0.00    +0.038 C 
ATOM      6  C   UNL     1      32.979 -23.957 -14.925  0.00  0.00    +0.031 C 
ATOM      7  C   UNL     1      31.710 -22.967 -16.725  0.00  0.00    +0.000 C 
ATOM      8  C   UNL     1      35.325 -22.446 -17.391  0.00  0.00    +0.003 C 
ATOM      9  C   UNL     1      34.056 -21.456 -19.191  0.00  0.00    +0.149 C 
ATOM     10  C   UNL     1      31.753 -23.662 -15.516  0.00  0.00    +0.003 C 
ATOM     11  C   UNL     1      35.281 -21.752 -18.600  0.00  0.00    +0.038 C 
BRANCH   6  14
ATOM     12  N   UNL     1      34.114 -24.577 -12.805  0.00  0.00    -0.343 N 
ATOM     13  N   UNL     1      32.011 -25.460 -13.319  0.00  0.00    -0.285 NA
ATOM     14  C   UNL     1      33.021 -24.681 -13.665  0.00  0.00    +0.117 C 
ATOM     15  H   UNL     1      34.120 -25.076 -11.956  0.00  0.00    +0.144 HD
ATOM     16  H   UNL     1      34.877 -24.004 -13.046  0.00  0.00    +0.144 HD
ATOM     17  H   UNL     1      32.038 -25.951 -12.466  0.00  0.00    +0.188 HD
ENDBRANCH   6  14
ENDBRANCH   1   9
BRANCH   1  19
ATOM     18  O   UNL     1      36.199 -20.058 -20.008  0.00  0.00    -0.244 OA
ATOM     19  C   UNL     1      35.153 -20.018 -20.639  0.00  0.00    +0.346 C 
BRANCH  19  20
ATOM     20  C   UNL     1      34.948 -19.138 -21.817  0.00  0.00    +0.076 C 
ATOM     21  C   UNL     1      34.510 -19.697 -23.000  0.00  0.00    +0.008 C 
ATOM     22  C   UNL     1      35.201 -17.787 -21.691  0.00  0.00    +0.008 C 
ATOM     23  C   UNL     1      34.563 -17.501 -24.004  0.00  0.00    +0.084 C 
ATOM     24  C   UNL     1      34.316 -18.869 -24.105  0.00  0.00    +0.019 C 
ATOM     25  C   UNL     1      35.006 -16.959 -22.797  0.00  0.00    +0.019 C 
BRANCH  23  26
ATOM     26  N   UNL     1      34.369 -16.671 -25.112  0.00  0.00    -0.214 NA
BRANCH  26  29
ATOM     27  N   UNL     1      32.137 -16.595 -25.799  0.00  0.00    -0.370 N 
ATOM     28  N   UNL     1      32.984 -14.722 -24.809  0.00  0.00    -0.370 N 
ATOM     29  C   UNL     1      33.240 -16.011 -25.220  0.00  0.00    +0.193 C 
ATOM     30  H   UNL     1      32.189 -17.518 -26.136  0.00  0.00    +0.159 HD
ATOM     31  H   UNL     1      31.295 -16.089 -25.875  0.00  0.00    +0.159 HD
ATOM     32  H   UNL     1      33.694 -14.193 -24.378  0.00  0.00    +0.159 HD
ATOM     33  H   UNL     1      32.091 -14.329 -24.944  0.00  0.00    +0.159 HD
ENDBRANCH  26  29
ENDBRANCH  23  26
ENDBRANCH  19  20
ENDBRANCH   1  19
TORSDOF 6
ENDMDL
MODEL 8
REMARK VINA RESULT:     -11.2      2.614      9.838
REMARK  Name = 4413
REMARK  6 active torsions:
REMARK  status: ('A' for Active; 'I' for Inactive)
REMARK    1  A    between atoms: O_1  and  C_9
REMARK    2  A    between atoms: O_1  and  C_19
REMARK    3  A    between atoms: C_6  and  C_14
REMARK    4  A    between atoms: C_19  and  C_20
REMARK    5  A    between atoms: C_23  and  N_26
REMARK    6  A    between atoms: N_26  and  C_29
REMARK                            x       y       z     vdW  Elec       q    Type
REMARK                         _______ _______ _______ _____ _____    ______ ____
ROOT
ATOM      1  O   UNL     1      34.932 -23.102 -17.778  0.00  0.00    -0.421 OA
ENDROOT
BRANCH   1   9
ATOM      2  C   UNL     1      34.356 -20.101 -20.615  0.00  0.00    +0.000 C 
ATOM      3  C   UNL     1      35.663 -20.413 -20.171  0.00  0.00    +0.003 C 
ATOM      4  C   UNL     1      34.179 -19.088 -21.571  0.00  0.00    +0.003 C 
ATOM      5  C   UNL     1      35.839 -21.426 -19.215  0.00  0.00    +0.038 C 
ATOM      6  C   UNL     1      35.275 -18.392 -22.082  0.00  0.00    +0.031 C 
ATOM      7  C   UNL     1      36.754 -19.703 -20.696  0.00  0.00    +0.000 C 
ATOM      8  C   UNL     1      33.264 -20.811 -20.089  0.00  0.00    +0.003 C 
ATOM      9  C   UNL     1      34.743 -22.122 -18.703  0.00  0.00    +0.149 C 
ATOM     10  C   UNL     1      36.561 -18.699 -21.645  0.00  0.00    +0.003 C 
ATOM     11  C   UNL     1      33.458 -21.815 -19.140  0.00  0.00    +0.038 C 
BRANCH   6  14
ATOM     12  N   UNL     1      34.252 -17.542 -24.179  0.00  0.00    -0.343 N 
ATOM     13  N   UNL     1      35.684 -16.181 -22.929  0.00  0.00    -0.285 NA
ATOM     14  C   UNL     1      35.075 -17.345 -23.071  0.00  0.00    +0.117 C 
ATOM     15  H   UNL     1      34.131 -16.819 -24.836  0.00  0.00    +0.144 HD
ATOM     16  H   UNL     1      33.792 -18.403 -24.304  0.00  0.00    +0.144 HD
ATOM     17  H   UNL     1      35.549 -15.471 -23.598  0.00  0.00    +0.188 HD
ENDBRANCH   6  14
ENDBRANCH   1   9
BRANCH   1  19
ATOM     18  O   UNL     1      35.851 -21.940 -15.980  0.00  0.00    -0.244 OA
ATOM     19  C   UNL     1      34.978 -22.648 -16.459  0.00  0.00    +0.346 C 
BRANCH  19  20
ATOM     20  C   UNL     1      33.805 -23.127 -15.684  0.00  0.00    +0.076 C 
ATOM     21  C   UNL     1      32.562 -23.121 -16.282  0.00  0.00    +0.008 C 
ATOM     22  C   UNL     1      33.996 -23.564 -14.389  0.00  0.00    +0.008 C 
ATOM     23  C   UNL     1      31.627 -24.021 -14.244  0.00  0.00    +0.084 C 
ATOM     24  C   UNL     1      31.462 -23.573 -15.554  0.00  0.00    +0.019 C 
ATOM     25  C   UNL     1      32.895 -24.016 -13.661  0.00  0.00    +0.019 C 
BRANCH  23  26
ATOM     26  N   UNL     1      30.524 -24.473 -13.514  0.00  0.00    -0.214 NA
BRANCH  26  29
ATOM     27  N   UNL     1      29.094 -26.214 -14.129  0.00  0.00    -0.370 N 
ATOM     28  N   UNL     1      28.603 -24.135 -14.931  0.00  0.00    -0.370 N 
ATOM     29  C   UNL     1      29.463 -24.890 -14.163  0.00  0.00    +0.193 C 
ATOM     30  H   UNL     1      29.627 -26.861 -13.613  0.00  0.00    +0.159 HD
ATOM     31  H   UNL     1      28.295 -26.516 -14.620  0.00  0.00    +0.159 HD
ATOM     32  H   UNL     1      28.758 -23.169 -15.036  0.00  0.00    +0.159 HD
ATOM     33  H   UNL     1      27.834 -24.562 -15.373  0.00  0.00    +0.159 HD
ENDBRANCH  26  29
ENDBRANCH  23  26
ENDBRANCH  19  20
ENDBRANCH   1  19
TORSDOF 6
ENDMDL
MODEL 9
REMARK VINA RESULT:     -11.2      1.334      9.994
REMARK  Name = 4413
REMARK  6 active torsions:
REMARK  status: ('A' for Active; 'I' for Inactive)
REMARK    1  A    between atoms: O_1  and  C_9
REMARK    2  A    between atoms: O_1  and  C_19
REMARK    3  A    between atoms: C_6  and  C_14
REMARK    4  A    between atoms: C_19  and  C_20
REMARK    5  A    between atoms: C_23  and  N_26
REMARK    6  A    between atoms: N_26  and  C_29
REMARK                            x       y       z     vdW  Elec       q    Type
REMARK                         _______ _______ _______ _____ _____    ______ ____
ROOT
ATOM      1  O   UNL     1      35.668 -20.828 -20.414  0.00  0.00    -0.421 OA
ENDROOT
BRANCH   1   9
ATOM      2  C   UNL     1      34.800 -17.330 -22.511  0.00  0.00    +0.000 C 
ATOM      3  C   UNL     1      34.463 -18.588 -23.064  0.00  0.00    +0.003 C 
ATOM      4  C   UNL     1      34.501 -16.161 -23.230  0.00  0.00    +0.003 C 
ATOM      5  C   UNL     1      34.762 -19.756 -22.344  0.00  0.00    +0.038 C 
ATOM      6  C   UNL     1      33.877 -16.232 -24.475  0.00  0.00    +0.031 C 
ATOM      7  C   UNL     1      33.835 -18.641 -24.318  0.00  0.00    +0.000 C 
ATOM      8  C   UNL     1      35.428 -17.277 -21.255  0.00  0.00    +0.003 C 
ATOM      9  C   UNL     1      35.386 -19.686 -21.098  0.00  0.00    +0.149 C 
ATOM     10  C   UNL     1      33.545 -17.470 -25.019  0.00  0.00    +0.003 C 
ATOM     11  C   UNL     1      35.718 -18.448 -20.556  0.00  0.00    +0.038 C 
BRANCH   6  14
ATOM     12  N   UNL     1      33.018 -13.904 -24.571  0.00  0.00    -0.343 N 
ATOM     13  N   UNL     1      33.823 -14.944 -26.503  0.00  0.00    -0.285 NA
ATOM     14  C   UNL     1      33.574 -15.013 -25.208  0.00  0.00    +0.117 C 
ATOM     15  H   UNL     1      32.821 -13.089 -25.087  0.00  0.00    +0.144 HD
ATOM     16  H   UNL     1      32.822 -13.936 -23.607  0.00  0.00    +0.144 HD
ATOM     17  H   UNL     1      33.619 -14.119 -27.001  0.00  0.00    +0.188 HD
ENDBRANCH   6  14
ENDBRANCH   1   9
BRANCH   1  19
ATOM     18  O   UNL     1      33.441 -21.258 -19.883  0.00  0.00    -0.244 OA
ATOM     19  C   UNL     1      34.629 -21.282 -19.600  0.00  0.00    +0.346 C 
BRANCH  19  20
ATOM     20  C   UNL     1      35.148 -21.824 -18.318  0.00  0.00    +0.076 C 
ATOM     21  C   UNL     1      36.468 -21.604 -17.985  0.00  0.00    +0.008 C 
ATOM     22  C   UNL     1      34.290 -22.528 -17.497  0.00  0.00    +0.008 C 
ATOM     23  C   UNL     1      36.108 -22.825 -15.933  0.00  0.00    +0.084 C 
ATOM     24  C   UNL     1      36.953 -22.111 -16.780  0.00  0.00    +0.019 C 
ATOM     25  C   UNL     1      34.776 -23.035 -16.291  0.00  0.00    +0.019 C 
BRANCH  23  26
ATOM     26  N   UNL     1      36.594 -23.335 -14.725  0.00  0.00    -0.214 NA
BRANCH  26  29
ATOM     27  N   UNL     1      37.767 -25.343 -14.947  0.00  0.00    -0.370 N 
ATOM     28  N   UNL     1      35.682 -25.454 -14.028  0.00  0.00    -0.370 N 
ATOM     29  C   UNL     1      36.652 -24.636 -14.564  0.00  0.00    +0.193 C 
ATOM     30  H   UNL     1      38.535 -24.873 -15.346  0.00  0.00    +0.159 HD
ATOM     31  H   UNL     1      37.799 -26.319 -14.821  0.00  0.00    +0.159 HD
ATOM     32  H   UNL     1      34.832 -25.069 -13.714  0.00  0.00    +0.159 HD
ATOM     33  H   UNL     1      35.840 -26.424 -13.957  0.00  0.00    +0.159 HD
ENDBRANCH  26  29
ENDBRANCH  23  26
ENDBRANCH  19  20
ENDBRANCH   1  19
TORSDOF 6
ENDMDL
