MODEL 1
REMARK VINA RESULT:     -12.1      0.000      0.000
REMARK  Name = 52920501
REMARK  9 active torsions:
REMARK  status: ('A' for Active; 'I' for Inactive)
REMARK    1  A    between atoms: N_1  and  C_12
REMARK    2  A    between atoms: C_5  and  O_27
REMARK    3  A    between atoms: C_9  and  C_15
REMARK    4  A    between atoms: C_15  and  S_16
REMARK    5  A    between atoms: S_16  and  N_19
REMARK    6  A    between atoms: N_19  and  C_21
REMARK    7  A    between atoms: C_21  and  C_22
REMARK    8  A    between atoms: C_22  and  N_23
REMARK    9  A    between atoms: O_27  and  C_35
REMARK                            x       y       z     vdW  Elec       q    Type
REMARK                         _______ _______ _______ _____ _____    ______ ____
ROOT
ATOM      1  N   UNL     1      32.525 -22.419 -18.256  0.00  0.00    -0.247 N 
ATOM      2  N   UNL     1      33.193 -22.751 -16.031  0.00  0.00    -0.300 NA
ATOM      3  N   UNL     1      30.987 -23.381 -16.768  0.00  0.00    -0.170 NA
ATOM      4  C   UNL     1      32.220 -22.873 -16.954  0.00  0.00    +0.152 C 
ATOM      5  C   UNL     1      32.867 -23.194 -14.799  0.00  0.00    +0.295 C 
ATOM      6  C   UNL     1      31.639 -23.735 -14.478  0.00  0.00    +0.094 C 
ATOM      7  C   UNL     1      30.729 -23.805 -15.513  0.00  0.00    +0.118 C 
ATOM      8  H   UNL     1      31.786 -22.528 -18.897  0.00  0.00    +0.165 HD
ENDROOT
BRANCH   1  12
ATOM      9  C   UNL     1      34.717 -20.414 -20.465  0.00  0.00    +0.004 C 
ATOM     10  C   UNL     1      33.572 -20.985 -19.910  0.00  0.00    +0.013 C 
ATOM     11  C   UNL     1      35.971 -20.702 -19.926  0.00  0.00    -0.002 C 
ATOM     12  C   UNL     1      33.680 -21.842 -18.816  0.00  0.00    +0.057 C 
ATOM     13  C   UNL     1      36.080 -21.560 -18.831  0.00  0.00    +0.001 C 
ATOM     14  C   UNL     1      34.934 -22.131 -18.277  0.00  0.00    +0.015 C 
BRANCH   9  15
ATOM     15  C   UNL     1      34.601 -19.495 -21.635  0.00  0.00    +0.195 C 
BRANCH  15  16
ATOM     16  S   UNL     1      35.760 -18.184 -21.411  0.00  0.00    +0.045 S 
ATOM     17  O   UNL     1      35.265 -17.305 -20.365  0.00  0.00    -0.157 OA
ATOM     18  O   UNL     1      37.086 -18.771 -21.306  0.00  0.00    -0.157 OA
BRANCH  16  19
ATOM     19  N   UNL     1      35.649 -17.389 -22.922  0.00  0.00    -0.185 NA
ATOM     20  H   UNL     1      35.263 -18.061 -23.586  0.00  0.00    +0.148 HD
BRANCH  19  21
ATOM     21  C   UNL     1      34.836 -16.164 -23.026  0.00  0.00    +0.068 C 
BRANCH  21  22
ATOM     22  C   UNL     1      34.203 -16.098 -24.408  0.00  0.00    -0.058 C 
BRANCH  22  23
ATOM     23  N   UNL     1      33.185 -15.054 -24.449  0.00  0.00    +0.385 N 
ATOM     24  C   UNL     1      33.363 -14.117 -23.338  0.00  0.00    -0.101 C 
ATOM     25  C   UNL     1      33.229 -14.340 -25.726  0.00  0.00    -0.101 C 
ATOM     26  H   UNL     1      32.271 -15.498 -24.356  0.00  0.00    -0.080 HD
ENDBRANCH  22  23
ENDBRANCH  21  22
ENDBRANCH  19  21
ENDBRANCH  16  19
ENDBRANCH  15  16
ENDBRANCH   9  15
ENDBRANCH   1  12
BRANCH   5  27
ATOM     27  O   UNL     1      33.835 -23.090 -13.815  0.00  0.00    -0.427 OA
BRANCH  27  35
ATOM     28  N   UNL     1      39.003 -24.416 -15.078  0.00  0.00    -0.316 N 
ATOM     29  C   UNL     1      37.076 -24.793 -14.019  0.00  0.00    +0.017 C 
ATOM     30  C   UNL     1      37.735 -23.918 -14.885  0.00  0.00    +0.048 C 
ATOM     31  C   UNL     1      39.170 -25.573 -14.367  0.00  0.00    +0.026 C 
ATOM     32  C   UNL     1      37.994 -25.833 -13.700  0.00  0.00    +0.012 C 
ATOM     33  C   UNL     1      35.746 -24.513 -13.652  0.00  0.00    +0.039 C 
ATOM     34  C   UNL     1      37.125 -22.771 -15.405  0.00  0.00    +0.018 C 
ATOM     35  C   UNL     1      35.123 -23.369 -14.165  0.00  0.00    +0.148 C 
ATOM     36  C   UNL     1      35.804 -22.512 -15.027  0.00  0.00    +0.039 C 
ATOM     37  C   UNL     1      40.444 -26.314 -14.396  0.00  0.00    +0.047 C 
ATOM     38  H   UNL     1      39.691 -24.000 -15.647  0.00  0.00    +0.152 HD
ENDBRANCH  27  35
ENDBRANCH   5  27
TORSDOF 9
ENDMDL
MODEL 2
REMARK VINA RESULT:     -11.8      0.858      1.201
REMARK  Name = 52920501
REMARK  9 active torsions:
REMARK  status: ('A' for Active; 'I' for Inactive)
REMARK    1  A    between atoms: N_1  and  C_12
REMARK    2  A    between atoms: C_5  and  O_27
REMARK    3  A    between atoms: C_9  and  C_15
REMARK    4  A    between atoms: C_15  and  S_16
REMARK    5  A    between atoms: S_16  and  N_19
REMARK    6  A    between atoms: N_19  and  C_21
REMARK    7  A    between atoms: C_21  and  C_22
REMARK    8  A    between atoms: C_22  and  N_23
REMARK    9  A    between atoms: O_27  and  C_35
REMARK                            x       y       z     vdW  Elec       q    Type
REMARK                         _______ _______ _______ _____ _____    ______ ____
ROOT
ATOM      1  N   UNL     1      32.436 -22.260 -18.061  0.00  0.00    -0.247 N 
ATOM      2  N   UNL     1      33.056 -22.795 -15.862  0.00  0.00    -0.300 NA
ATOM      3  N   UNL     1      30.778 -23.055 -16.604  0.00  0.00    -0.170 NA
ATOM      4  C   UNL     1      32.072 -22.727 -16.779  0.00  0.00    +0.152 C 
ATOM      5  C   UNL     1      32.673 -23.244 -14.649  0.00  0.00    +0.295 C 
ATOM      6  C   UNL     1      31.380 -23.613 -14.341  0.00  0.00    +0.094 C 
ATOM      7  C   UNL     1      30.465 -23.496 -15.367  0.00  0.00    +0.118 C 
ATOM      8  H   UNL     1      31.686 -22.227 -18.699  0.00  0.00    +0.165 HD
ENDROOT
BRANCH   1  12
ATOM      9  C   UNL     1      34.893 -20.633 -20.302  0.00  0.00    +0.004 C 
ATOM     10  C   UNL     1      33.678 -21.054 -19.763  0.00  0.00    +0.013 C 
ATOM     11  C   UNL     1      36.092 -20.993 -19.687  0.00  0.00    -0.002 C 
ATOM     12  C   UNL     1      33.661 -21.834 -18.607  0.00  0.00    +0.057 C 
ATOM     13  C   UNL     1      36.076 -21.773 -18.530  0.00  0.00    +0.001 C 
ATOM     14  C   UNL     1      34.860 -22.194 -17.991  0.00  0.00    +0.015 C 
BRANCH   9  15
ATOM     15  C   UNL     1      34.911 -19.798 -21.538  0.00  0.00    +0.195 C 
BRANCH  15  16
ATOM     16  S   UNL     1      35.994 -18.435 -21.256  0.00  0.00    +0.045 S 
ATOM     17  O   UNL     1      35.395 -17.569 -20.253  0.00  0.00    -0.157 OA
ATOM     18  O   UNL     1      37.335 -18.962 -21.059  0.00  0.00    -0.157 OA
BRANCH  16  19
ATOM     19  N   UNL     1      35.947 -17.659 -22.780  0.00  0.00    -0.185 NA
ATOM     20  H   UNL     1      35.612 -18.346 -23.455  0.00  0.00    +0.148 HD
BRANCH  19  21
ATOM     21  C   UNL     1      35.114 -16.453 -22.941  0.00  0.00    +0.068 C 
BRANCH  21  22
ATOM     22  C   UNL     1      34.638 -16.362 -24.384  0.00  0.00    -0.058 C 
BRANCH  22  23
ATOM     23  N   UNL     1      34.140 -15.022 -24.668  0.00  0.00    +0.385 N 
ATOM     24  C   UNL     1      33.220 -15.044 -25.807  0.00  0.00    -0.101 C 
ATOM     25  C   UNL     1      33.476 -14.457 -23.492  0.00  0.00    -0.101 C 
ATOM     26  H   UNL     1      34.936 -14.431 -24.906  0.00  0.00    -0.080 HD
ENDBRANCH  22  23
ENDBRANCH  21  22
ENDBRANCH  19  21
ENDBRANCH  16  19
ENDBRANCH  15  16
ENDBRANCH   9  15
ENDBRANCH   1  12
BRANCH   5  27
ATOM     27  O   UNL     1      33.650 -23.333 -13.673  0.00  0.00    -0.427 OA
BRANCH  27  35
ATOM     28  N   UNL     1      38.199 -26.244 -14.620  0.00  0.00    -0.316 N 
ATOM     29  C   UNL     1      37.108 -24.555 -13.653  0.00  0.00    +0.017 C 
ATOM     30  C   UNL     1      36.963 -25.649 -14.509  0.00  0.00    +0.048 C 
ATOM     31  C   UNL     1      39.119 -25.566 -13.867  0.00  0.00    +0.026 C 
ATOM     32  C   UNL     1      38.473 -24.514 -13.256  0.00  0.00    +0.012 C 
ATOM     33  C   UNL     1      35.979 -23.763 -13.367  0.00  0.00    +0.039 C 
ATOM     34  C   UNL     1      35.739 -25.992 -15.094  0.00  0.00    +0.018 C 
ATOM     35  C   UNL     1      34.748 -24.094 -13.945  0.00  0.00    +0.148 C 
ATOM     36  C   UNL     1      34.632 -25.192 -14.796  0.00  0.00    +0.039 C 
ATOM     37  C   UNL     1      40.528 -25.995 -13.808  0.00  0.00    +0.047 C 
ATOM     38  H   UNL     1      38.394 -27.042 -15.163  0.00  0.00    +0.152 HD
ENDBRANCH  27  35
ENDBRANCH   5  27
TORSDOF 9
ENDMDL
MODEL 3
REMARK VINA RESULT:     -11.7      3.489     12.046
REMARK  Name = 52920501
REMARK  9 active torsions:
REMARK  status: ('A' for Active; 'I' for Inactive)
REMARK    1  A    between atoms: N_1  and  C_12
REMARK    2  A    between atoms: C_5  and  O_27
REMARK    3  A    between atoms: C_9  and  C_15
REMARK    4  A    between atoms: C_15  and  S_16
REMARK    5  A    between atoms: S_16  and  N_19
REMARK    6  A    between atoms: N_19  and  C_21
REMARK    7  A    between atoms: C_21  and  C_22
REMARK    8  A    between atoms: C_22  and  N_23
REMARK    9  A    between atoms: O_27  and  C_35
REMARK                            x       y       z     vdW  Elec       q    Type
REMARK                         _______ _______ _______ _____ _____    ______ ____
ROOT
ATOM      1  N   UNL     1      34.000 -18.510 -23.683  0.00  0.00    -0.247 N 
ATOM      2  N   UNL     1      34.339 -16.200 -23.443  0.00  0.00    -0.300 NA
ATOM      3  N   UNL     1      33.163 -17.087 -25.351  0.00  0.00    -0.170 NA
ATOM      4  C   UNL     1      33.825 -17.201 -24.183  0.00  0.00    +0.152 C 
ATOM      5  C   UNL     1      34.155 -14.964 -23.951  0.00  0.00    +0.295 C 
ATOM      6  C   UNL     1      33.494 -14.712 -25.136  0.00  0.00    +0.094 C 
ATOM      7  C   UNL     1      33.015 -15.823 -25.800  0.00  0.00    +0.118 C 
ATOM      8  H   UNL     1      33.609 -19.209 -24.256  0.00  0.00    +0.165 HD
ENDROOT
BRANCH   1  12
ATOM      9  C   UNL     1      34.502 -20.233 -20.445  0.00  0.00    +0.004 C 
ATOM     10  C   UNL     1      33.883 -19.737 -21.593  0.00  0.00    +0.013 C 
ATOM     11  C   UNL     1      35.861 -20.002 -20.230  0.00  0.00    -0.002 C 
ATOM     12  C   UNL     1      34.623 -19.011 -22.525  0.00  0.00    +0.057 C 
ATOM     13  C   UNL     1      36.601 -19.275 -21.162  0.00  0.00    +0.001 C 
ATOM     14  C   UNL     1      35.982 -18.779 -22.310  0.00  0.00    +0.015 C 
BRANCH   9  15
ATOM     15  C   UNL     1      33.710 -21.011 -19.449  0.00  0.00    +0.195 C 
BRANCH  15  16
ATOM     16  S   UNL     1      34.704 -22.363 -18.903  0.00  0.00    +0.045 S 
ATOM     17  O   UNL     1      35.283 -23.009 -20.070  0.00  0.00    -0.157 OA
ATOM     18  O   UNL     1      35.562 -21.884 -17.832  0.00  0.00    -0.157 OA
BRANCH  16  19
ATOM     19  N   UNL     1      33.517 -23.385 -18.217  0.00  0.00    -0.185 NA
ATOM     20  H   UNL     1      33.753 -24.340 -18.487  0.00  0.00    +0.148 HD
BRANCH  19  21
ATOM     21  C   UNL     1      33.333 -23.384 -16.754  0.00  0.00    +0.068 C 
BRANCH  21  22
ATOM     22  C   UNL     1      31.882 -23.057 -16.431  0.00  0.00    -0.058 C 
BRANCH  22  23
ATOM     23  N   UNL     1      31.478 -23.717 -15.196  0.00  0.00    +0.385 N 
ATOM     24  C   UNL     1      31.550 -22.787 -14.067  0.00  0.00    -0.101 C 
ATOM     25  C   UNL     1      30.124 -24.260 -15.320  0.00  0.00    -0.101 C 
ATOM     26  H   UNL     1      32.122 -24.488 -15.022  0.00  0.00    -0.080 HD
ENDBRANCH  22  23
ENDBRANCH  21  22
ENDBRANCH  19  21
ENDBRANCH  16  19
ENDBRANCH  15  16
ENDBRANCH   9  15
ENDBRANCH   1  12
BRANCH   5  27
ATOM     27  O   UNL     1      34.665 -13.902 -23.225  0.00  0.00    -0.427 OA
BRANCH  27  35
ATOM     28  N   UNL     1      31.244  -9.921 -21.641  0.00  0.00    -0.316 N 
ATOM     29  C   UNL     1      32.952 -10.680 -22.859  0.00  0.00    +0.017 C 
ATOM     30  C   UNL     1      31.998 -11.041 -21.905  0.00  0.00    +0.048 C 
ATOM     31  C   UNL     1      31.686  -8.865 -22.392  0.00  0.00    +0.026 C 
ATOM     32  C   UNL     1      32.743  -9.304 -23.157  0.00  0.00    +0.012 C 
ATOM     33  C   UNL     1      33.863 -11.655 -23.311  0.00  0.00    +0.039 C 
ATOM     34  C   UNL     1      31.910 -12.334 -21.378  0.00  0.00    +0.018 C 
ATOM     35  C   UNL     1      33.787 -12.953 -22.793  0.00  0.00    +0.148 C 
ATOM     36  C   UNL     1      32.825 -13.285 -21.841  0.00  0.00    +0.039 C 
ATOM     37  C   UNL     1      31.050  -7.539 -22.300  0.00  0.00    +0.047 C 
ATOM     38  H   UNL     1      30.494  -9.883 -21.003  0.00  0.00    +0.152 HD
ENDBRANCH  27  35
ENDBRANCH   5  27
TORSDOF 9
ENDMDL
MODEL 4
REMARK VINA RESULT:     -11.3      4.165      8.712
REMARK  Name = 52920501
REMARK  9 active torsions:
REMARK  status: ('A' for Active; 'I' for Inactive)
REMARK    1  A    between atoms: N_1  and  C_12
REMARK    2  A    between atoms: C_5  and  O_27
REMARK    3  A    between atoms: C_9  and  C_15
REMARK    4  A    between atoms: C_15  and  S_16
REMARK    5  A    between atoms: S_16  and  N_19
REMARK    6  A    between atoms: N_19  and  C_21
REMARK    7  A    between atoms: C_21  and  C_22
REMARK    8  A    between atoms: C_22  and  N_23
REMARK    9  A    between atoms: O_27  and  C_35
REMARK                            x       y       z     vdW  Elec       q    Type
REMARK                         _______ _______ _______ _____ _____    ______ ____
ROOT
ATOM      1  N   UNL     1      32.961 -15.459 -25.025  0.00  0.00    -0.247 N 
ATOM      2  N   UNL     1      34.384 -16.698 -23.630  0.00  0.00    -0.300 NA
ATOM      3  N   UNL     1      32.964 -17.796 -25.238  0.00  0.00    -0.170 NA
ATOM      4  C   UNL     1      33.461 -16.713 -24.610  0.00  0.00    +0.152 C 
ATOM      5  C   UNL     1      34.839 -17.912 -23.258  0.00  0.00    +0.295 C 
ATOM      6  C   UNL     1      34.411 -19.097 -23.821  0.00  0.00    +0.094 C 
ATOM      7  C   UNL     1      33.463 -18.977 -24.816  0.00  0.00    +0.118 C 
ATOM      8  H   UNL     1      32.289 -15.518 -25.743  0.00  0.00    +0.165 HD
ENDROOT
BRANCH   1  12
ATOM      9  C   UNL     1      33.517 -12.516 -22.849  0.00  0.00    +0.004 C 
ATOM     10  C   UNL     1      33.245 -13.822 -23.256  0.00  0.00    +0.013 C 
ATOM     11  C   UNL     1      33.777 -11.529 -23.800  0.00  0.00    -0.002 C 
ATOM     12  C   UNL     1      33.235 -14.142 -24.613  0.00  0.00    +0.057 C 
ATOM     13  C   UNL     1      33.767 -11.848 -25.158  0.00  0.00    +0.001 C 
ATOM     14  C   UNL     1      33.495 -13.155 -25.564  0.00  0.00    +0.015 C 
BRANCH   9  15
ATOM     15  C   UNL     1      33.529 -12.175 -21.397  0.00  0.00    +0.195 C 
BRANCH  15  16
ATOM     16  S   UNL     1      31.895 -12.403 -20.773  0.00  0.00    +0.045 S 
ATOM     17  O   UNL     1      30.951 -11.896 -21.756  0.00  0.00    -0.157 OA
ATOM     18  O   UNL     1      31.786 -13.772 -20.293  0.00  0.00    -0.157 OA
BRANCH  16  19
ATOM     19  N   UNL     1      31.915 -11.364 -19.414  0.00  0.00    -0.185 NA
ATOM     20  H   UNL     1      32.893 -11.158 -19.210  0.00  0.00    +0.148 HD
BRANCH  19  21
ATOM     21  C   UNL     1      31.209 -10.072 -19.493  0.00  0.00    +0.068 C 
BRANCH  21  22
ATOM     22  C   UNL     1      32.223  -8.958 -19.708  0.00  0.00    -0.058 C 
BRANCH  22  23
ATOM     23  N   UNL     1      31.785  -8.078 -20.784  0.00  0.00    +0.385 N 
ATOM     24  C   UNL     1      32.300  -6.722 -20.583  0.00  0.00    -0.101 C 
ATOM     25  C   UNL     1      32.217  -8.596 -22.084  0.00  0.00    -0.101 C 
ATOM     26  H   UNL     1      30.766  -8.043 -20.772  0.00  0.00    -0.080 HD
ENDBRANCH  22  23
ENDBRANCH  21  22
ENDBRANCH  19  21
ENDBRANCH  16  19
ENDBRANCH  15  16
ENDBRANCH   9  15
ENDBRANCH   1  12
BRANCH   5  27
ATOM     27  O   UNL     1      35.790 -17.948 -22.253  0.00  0.00    -0.427 OA
BRANCH  27  35
ATOM     28  N   UNL     1      35.199 -21.997 -18.603  0.00  0.00    -0.316 N 
ATOM     29  C   UNL     1      34.371 -20.505 -20.041  0.00  0.00    +0.017 C 
ATOM     30  C   UNL     1      35.552 -21.000 -19.484  0.00  0.00    +0.048 C 
ATOM     31  C   UNL     1      33.839 -22.151 -18.583  0.00  0.00    +0.026 C 
ATOM     32  C   UNL     1      33.298 -21.241 -19.463  0.00  0.00    +0.012 C 
ATOM     33  C   UNL     1      34.449 -19.464 -20.986  0.00  0.00    +0.039 C 
ATOM     34  C   UNL     1      36.814 -20.502 -19.827  0.00  0.00    +0.018 C 
ATOM     35  C   UNL     1      35.705 -18.956 -21.339  0.00  0.00    +0.148 C 
ATOM     36  C   UNL     1      36.868 -19.468 -20.767  0.00  0.00    +0.039 C 
ATOM     37  C   UNL     1      33.194 -23.156 -17.720  0.00  0.00    +0.047 C 
ATOM     38  H   UNL     1      35.833 -22.524 -18.065  0.00  0.00    +0.152 HD
ENDBRANCH  27  35
ENDBRANCH   5  27
TORSDOF 9
ENDMDL
MODEL 5
REMARK VINA RESULT:     -11.1      1.564      4.947
REMARK  Name = 52920501
REMARK  9 active torsions:
REMARK  status: ('A' for Active; 'I' for Inactive)
REMARK    1  A    between atoms: N_1  and  C_12
REMARK    2  A    between atoms: C_5  and  O_27
REMARK    3  A    between atoms: C_9  and  C_15
REMARK    4  A    between atoms: C_15  and  S_16
REMARK    5  A    between atoms: S_16  and  N_19
REMARK    6  A    between atoms: N_19  and  C_21
REMARK    7  A    between atoms: C_21  and  C_22
REMARK    8  A    between atoms: C_22  and  N_23
REMARK    9  A    between atoms: O_27  and  C_35
REMARK                            x       y       z     vdW  Elec       q    Type
REMARK                         _______ _______ _______ _____ _____    ______ ____
ROOT
ATOM      1  N   UNL     1      36.467 -21.895 -17.383  0.00  0.00    -0.247 N 
ATOM      2  N   UNL     1      35.380 -23.483 -16.040  0.00  0.00    -0.300 NA
ATOM      3  N   UNL     1      37.650 -22.819 -15.580  0.00  0.00    -0.170 NA
ATOM      4  C   UNL     1      36.500 -22.775 -16.280  0.00  0.00    +0.152 C 
ATOM      5  C   UNL     1      35.448 -24.315 -14.980  0.00  0.00    +0.295 C 
ATOM      6  C   UNL     1      36.565 -24.451 -14.183  0.00  0.00    +0.094 C 
ATOM      7  C   UNL     1      37.648 -23.671 -14.534  0.00  0.00    +0.118 C 
ATOM      8  H   UNL     1      37.306 -21.399 -17.520  0.00  0.00    +0.165 HD
ENDROOT
BRANCH   1  12
ATOM      9  C   UNL     1      34.810 -20.628 -20.443  0.00  0.00    +0.004 C 
ATOM     10  C   UNL     1      35.802 -20.933 -19.510  0.00  0.00    +0.013 C 
ATOM     11  C   UNL     1      33.483 -20.976 -20.188  0.00  0.00    -0.002 C 
ATOM     12  C   UNL     1      35.467 -21.586 -18.324  0.00  0.00    +0.057 C 
ATOM     13  C   UNL     1      33.148 -21.629 -19.002  0.00  0.00    +0.001 C 
ATOM     14  C   UNL     1      34.140 -21.934 -18.070  0.00  0.00    +0.015 C 
BRANCH   9  15
ATOM     15  C   UNL     1      35.169 -19.931 -21.711  0.00  0.00    +0.195 C 
BRANCH  15  16
ATOM     16  S   UNL     1      36.053 -18.463 -21.291  0.00  0.00    +0.045 S 
ATOM     17  O   UNL     1      35.264 -17.709 -20.330  0.00  0.00    -0.157 OA
ATOM     18  O   UNL     1      37.422 -18.839 -20.978  0.00  0.00    -0.157 OA
BRANCH  16  19
ATOM     19  N   UNL     1      36.057 -17.643 -22.793  0.00  0.00    -0.185 NA
ATOM     20  H   UNL     1      36.488 -18.268 -23.474  0.00  0.00    +0.148 HD
BRANCH  19  21
ATOM     21  C   UNL     1      34.774 -17.198 -23.367  0.00  0.00    +0.068 C 
BRANCH  21  22
ATOM     22  C   UNL     1      34.843 -15.705 -23.651  0.00  0.00    -0.058 C 
BRANCH  22  23
ATOM     23  N   UNL     1      33.552 -15.221 -24.125  0.00  0.00    +0.385 N 
ATOM     24  C   UNL     1      33.299 -13.864 -23.636  0.00  0.00    -0.101 C 
ATOM     25  C   UNL     1      33.493 -15.251 -25.587  0.00  0.00    -0.101 C 
ATOM     26  H   UNL     1      32.827 -15.838 -23.758  0.00  0.00    -0.080 HD
ENDBRANCH  22  23
ENDBRANCH  21  22
ENDBRANCH  19  21
ENDBRANCH  16  19
ENDBRANCH  15  16
ENDBRANCH   9  15
ENDBRANCH   1  12
BRANCH   5  27
ATOM     27  O   UNL     1      34.319 -25.063 -14.693  0.00  0.00    -0.427 OA
BRANCH  27  35
ATOM     28  N   UNL     1      29.510 -22.457 -14.321  0.00  0.00    -0.316 N 
ATOM     29  C   UNL     1      30.982 -23.727 -15.416  0.00  0.00    +0.017 C 
ATOM     30  C   UNL     1      30.754 -23.038 -14.223  0.00  0.00    +0.048 C 
ATOM     31  C   UNL     1      28.944 -22.754 -15.531  0.00  0.00    +0.026 C 
ATOM     32  C   UNL     1      29.832 -23.539 -16.232  0.00  0.00    +0.012 C 
ATOM     33  C   UNL     1      32.198 -24.419 -15.579  0.00  0.00    +0.039 C 
ATOM     34  C   UNL     1      31.686 -23.006 -13.180  0.00  0.00    +0.018 C 
ATOM     35  C   UNL     1      33.140 -24.396 -14.543  0.00  0.00    +0.148 C 
ATOM     36  C   UNL     1      32.886 -23.700 -13.363  0.00  0.00    +0.039 C 
ATOM     37  C   UNL     1      27.606 -22.253 -15.896  0.00  0.00    +0.047 C 
ATOM     38  H   UNL     1      29.087 -21.908 -13.621  0.00  0.00    +0.152 HD
ENDBRANCH  27  35
ENDBRANCH   5  27
TORSDOF 9
ENDMDL
MODEL 6
REMARK VINA RESULT:     -11.0      2.043      5.440
REMARK  Name = 52920501
REMARK  9 active torsions:
REMARK  status: ('A' for Active; 'I' for Inactive)
REMARK    1  A    between atoms: N_1  and  C_12
REMARK    2  A    between atoms: C_5  and  O_27
REMARK    3  A    between atoms: C_9  and  C_15
REMARK    4  A    between atoms: C_15  and  S_16
REMARK    5  A    between atoms: S_16  and  N_19
REMARK    6  A    between atoms: N_19  and  C_21
REMARK    7  A    between atoms: C_21  and  C_22
REMARK    8  A    between atoms: C_22  and  N_23
REMARK    9  A    between atoms: O_27  and  C_35
REMARK                            x       y       z     vdW  Elec       q    Type
REMARK                         _______ _______ _______ _____ _____    ______ ____
ROOT
ATOM      1  N   UNL     1      35.850 -23.305 -15.949  0.00  0.00    -0.247 N 
ATOM      2  N   UNL     1      34.260 -23.453 -14.229  0.00  0.00    -0.300 NA
ATOM      3  N   UNL     1      36.534 -24.175 -13.879  0.00  0.00    -0.170 NA
ATOM      4  C   UNL     1      35.532 -23.661 -14.620  0.00  0.00    +0.152 C 
ATOM      5  C   UNL     1      33.992 -23.806 -12.954  0.00  0.00    +0.295 C 
ATOM      6  C   UNL     1      34.928 -24.341 -12.093  0.00  0.00    +0.094 C 
ATOM      7  C   UNL     1      36.195 -24.505 -12.616  0.00  0.00    +0.118 C 
ATOM      8  H   UNL     1      36.789 -23.474 -16.191  0.00  0.00    +0.165 HD
ENDROOT
BRANCH   1  12
ATOM      9  C   UNL     1      34.963 -21.578 -19.102  0.00  0.00    +0.004 C 
ATOM     10  C   UNL     1      35.720 -22.124 -18.066  0.00  0.00    +0.013 C 
ATOM     11  C   UNL     1      33.570 -21.661 -19.066  0.00  0.00    -0.002 C 
ATOM     12  C   UNL     1      35.086 -22.754 -16.994  0.00  0.00    +0.057 C 
ATOM     13  C   UNL     1      32.936 -22.290 -17.994  0.00  0.00    +0.001 C 
ATOM     14  C   UNL     1      33.694 -22.836 -16.959  0.00  0.00    +0.015 C 
BRANCH   9  15
ATOM     15  C   UNL     1      35.641 -20.907 -20.247  0.00  0.00    +0.195 C 
BRANCH  15  16
ATOM     16  S   UNL     1      34.551 -19.668 -20.872  0.00  0.00    +0.045 S 
ATOM     17  O   UNL     1      33.182 -20.123 -20.687  0.00  0.00    -0.157 OA
ATOM     18  O   UNL     1      34.974 -18.386 -20.333  0.00  0.00    -0.157 OA
BRANCH  16  19
ATOM     19  N   UNL     1      34.941 -19.699 -22.538  0.00  0.00    -0.185 NA
ATOM     20  H   UNL     1      34.764 -20.648 -22.868  0.00  0.00    +0.148 HD
BRANCH  19  21
ATOM     21  C   UNL     1      34.235 -18.785 -23.453  0.00  0.00    +0.068 C 
BRANCH  21  22
ATOM     22  C   UNL     1      35.039 -17.501 -23.599  0.00  0.00    -0.058 C 
BRANCH  22  23
ATOM     23  N   UNL     1      34.146 -16.354 -23.702  0.00  0.00    +0.385 N 
ATOM     24  C   UNL     1      34.619 -15.254 -22.859  0.00  0.00    -0.101 C 
ATOM     25  C   UNL     1      34.030 -15.913 -25.093  0.00  0.00    -0.101 C 
ATOM     26  H   UNL     1      33.223 -16.639 -23.375  0.00  0.00    -0.080 HD
ENDBRANCH  22  23
ENDBRANCH  21  22
ENDBRANCH  19  21
ENDBRANCH  16  19
ENDBRANCH  15  16
ENDBRANCH   9  15
ENDBRANCH   1  12
BRANCH   5  27
ATOM     27  O   UNL     1      32.698 -23.610 -12.505  0.00  0.00    -0.427 OA
BRANCH  27  35
ATOM     28  N   UNL     1      28.588 -24.539 -16.013  0.00  0.00    -0.316 N 
ATOM     29  C   UNL     1      30.010 -23.179 -14.962  0.00  0.00    +0.017 C 
ATOM     30  C   UNL     1      29.618 -24.512 -15.101  0.00  0.00    +0.048 C 
ATOM     31  C   UNL     1      28.314 -23.273 -16.455  0.00  0.00    +0.026 C 
ATOM     32  C   UNL     1      29.178 -22.408 -15.822  0.00  0.00    +0.012 C 
ATOM     33  C   UNL     1      31.060 -22.869 -14.076  0.00  0.00    +0.039 C 
ATOM     34  C   UNL     1      30.228 -25.555 -14.396  0.00  0.00    +0.018 C 
ATOM     35  C   UNL     1      31.680 -23.902 -13.364  0.00  0.00    +0.148 C 
ATOM     36  C   UNL     1      31.269 -25.224 -13.522  0.00  0.00    +0.039 C 
ATOM     37  C   UNL     1      27.248 -23.019 -17.441  0.00  0.00    +0.047 C 
ATOM     38  H   UNL     1      28.116 -25.352 -16.306  0.00  0.00    +0.152 HD
ENDBRANCH  27  35
ENDBRANCH   5  27
TORSDOF 9
ENDMDL
MODEL 7
REMARK VINA RESULT:     -10.9      3.535     11.182
REMARK  Name = 52920501
REMARK  9 active torsions:
REMARK  status: ('A' for Active; 'I' for Inactive)
REMARK    1  A    between atoms: N_1  and  C_12
REMARK    2  A    between atoms: C_5  and  O_27
REMARK    3  A    between atoms: C_9  and  C_15
REMARK    4  A    between atoms: C_15  and  S_16
REMARK    5  A    between atoms: S_16  and  N_19
REMARK    6  A    between atoms: N_19  and  C_21
REMARK    7  A    between atoms: C_21  and  C_22
REMARK    8  A    between atoms: C_22  and  N_23
REMARK    9  A    between atoms: O_27  and  C_35
REMARK                            x       y       z     vdW  Elec       q    Type
REMARK                         _______ _______ _______ _____ _____    ______ ____
ROOT
ATOM      1  N   UNL     1      34.419 -19.604 -22.588  0.00  0.00    -0.247 N 
ATOM      2  N   UNL     1      34.788 -17.336 -23.063  0.00  0.00    -0.300 NA
ATOM      3  N   UNL     1      33.274 -18.650 -24.401  0.00  0.00    -0.170 NA
ATOM      4  C   UNL     1      34.147 -18.474 -23.390  0.00  0.00    +0.152 C 
ATOM      5  C   UNL     1      34.506 -16.278 -23.851  0.00  0.00    +0.295 C 
ATOM      6  C   UNL     1      33.631 -16.327 -24.916  0.00  0.00    +0.094 C 
ATOM      7  C   UNL     1      33.038 -17.551 -25.147  0.00  0.00    +0.118 C 
ATOM      8  H   UNL     1      33.928 -20.413 -22.862  0.00  0.00    +0.165 HD
ENDROOT
BRANCH   1  12
ATOM      9  C   UNL     1      35.781 -20.989 -19.435  0.00  0.00    +0.004 C 
ATOM     10  C   UNL     1      34.953 -20.795 -20.541  0.00  0.00    +0.013 C 
ATOM     11  C   UNL     1      36.907 -20.186 -19.259  0.00  0.00    -0.002 C 
ATOM     12  C   UNL     1      35.253 -19.800 -21.471  0.00  0.00    +0.057 C 
ATOM     13  C   UNL     1      37.208 -19.190 -20.188  0.00  0.00    +0.001 C 
ATOM     14  C   UNL     1      36.380 -18.997 -21.294  0.00  0.00    +0.015 C 
BRANCH   9  15
ATOM     15  C   UNL     1      35.460 -22.054 -18.442  0.00  0.00    +0.195 C 
BRANCH  15  16
ATOM     16  S   UNL     1      33.761 -22.487 -18.640  0.00  0.00    +0.045 S 
ATOM     17  O   UNL     1      33.016 -21.285 -18.976  0.00  0.00    -0.157 OA
ATOM     18  O   UNL     1      33.695 -23.654 -19.505  0.00  0.00    -0.157 OA
BRANCH  16  19
ATOM     19  N   UNL     1      33.362 -22.979 -17.051  0.00  0.00    -0.185 NA
ATOM     20  H   UNL     1      33.885 -22.380 -16.412  0.00  0.00    +0.148 HD
BRANCH  19  21
ATOM     21  C   UNL     1      31.952 -22.938 -16.624  0.00  0.00    +0.068 C 
BRANCH  21  22
ATOM     22  C   UNL     1      31.876 -23.154 -15.119  0.00  0.00    -0.058 C 
BRANCH  22  23
ATOM     23  N   UNL     1      30.489 -23.308 -14.700  0.00  0.00    +0.385 N 
ATOM     24  C   UNL     1      29.581 -23.081 -15.826  0.00  0.00    -0.101 C 
ATOM     25  C   UNL     1      30.266 -24.638 -14.130  0.00  0.00    -0.101 C 
ATOM     26  H   UNL     1      30.295 -22.611 -13.981  0.00  0.00    -0.080 HD
ENDBRANCH  22  23
ENDBRANCH  21  22
ENDBRANCH  19  21
ENDBRANCH  16  19
ENDBRANCH  15  16
ENDBRANCH   9  15
ENDBRANCH   1  12
BRANCH   5  27
ATOM     27  O   UNL     1      35.141 -15.084 -23.554  0.00  0.00    -0.427 OA
BRANCH  27  35
ATOM     28  N   UNL     1      31.962 -10.986 -21.775  0.00  0.00    -0.316 N 
ATOM     29  C   UNL     1      32.914 -12.989 -21.529  0.00  0.00    +0.017 C 
ATOM     30  C   UNL     1      32.788 -11.898 -22.391  0.00  0.00    +0.048 C 
ATOM     31  C   UNL     1      31.561 -11.461 -20.555  0.00  0.00    +0.026 C 
ATOM     32  C   UNL     1      32.134 -12.700 -20.375  0.00  0.00    +0.012 C 
ATOM     33  C   UNL     1      33.716 -14.078 -21.924  0.00  0.00    +0.039 C 
ATOM     34  C   UNL     1      33.428 -11.841 -23.635  0.00  0.00    +0.018 C 
ATOM     35  C   UNL     1      34.362 -14.035 -23.165  0.00  0.00    +0.148 C 
ATOM     36  C   UNL     1      34.219 -12.933 -24.005  0.00  0.00    +0.039 C 
ATOM     37  C   UNL     1      30.666 -10.679 -19.684  0.00  0.00    +0.047 C 
ATOM     38  H   UNL     1      31.698 -10.117 -22.155  0.00  0.00    +0.152 HD
ENDBRANCH  27  35
ENDBRANCH   5  27
TORSDOF 9
ENDMDL
MODEL 8
REMARK VINA RESULT:     -10.9      2.854     11.618
REMARK  Name = 52920501
REMARK  9 active torsions:
REMARK  status: ('A' for Active; 'I' for Inactive)
REMARK    1  A    between atoms: N_1  and  C_12
REMARK    2  A    between atoms: C_5  and  O_27
REMARK    3  A    between atoms: C_9  and  C_15
REMARK    4  A    between atoms: C_15  and  S_16
REMARK    5  A    between atoms: S_16  and  N_19
REMARK    6  A    between atoms: N_19  and  C_21
REMARK    7  A    between atoms: C_21  and  C_22
REMARK    8  A    between atoms: C_22  and  N_23
REMARK    9  A    between atoms: O_27  and  C_35
REMARK                            x       y       z     vdW  Elec       q    Type
REMARK                         _______ _______ _______ _____ _____    ______ ____
ROOT
ATOM      1  N   UNL     1      34.513 -19.482 -22.670  0.00  0.00    -0.247 N 
ATOM      2  N   UNL     1      34.785 -17.176 -23.007  0.00  0.00    -0.300 NA
ATOM      3  N   UNL     1      33.381 -18.483 -24.466  0.00  0.00    -0.170 NA
ATOM      4  C   UNL     1      34.212 -18.323 -23.418  0.00  0.00    +0.152 C 
ATOM      5  C   UNL     1      34.476 -16.089 -23.745  0.00  0.00    +0.295 C 
ATOM      6  C   UNL     1      33.639 -16.119 -24.841  0.00  0.00    +0.094 C 
ATOM      7  C   UNL     1      33.115 -17.356 -25.158  0.00  0.00    +0.118 C 
ATOM      8  H   UNL     1      34.072 -20.296 -23.006  0.00  0.00    +0.165 HD
ENDROOT
BRANCH   1  12
ATOM      9  C   UNL     1      35.806 -20.940 -19.522  0.00  0.00    +0.004 C 
ATOM     10  C   UNL     1      35.005 -20.723 -20.643  0.00  0.00    +0.013 C 
ATOM     11  C   UNL     1      36.921 -20.133 -19.295  0.00  0.00    -0.002 C 
ATOM     12  C   UNL     1      35.320 -19.701 -21.539  0.00  0.00    +0.057 C 
ATOM     13  C   UNL     1      37.237 -19.111 -20.191  0.00  0.00    +0.001 C 
ATOM     14  C   UNL     1      36.436 -18.895 -21.312  0.00  0.00    +0.015 C 
BRANCH   9  15
ATOM     15  C   UNL     1      35.469 -22.033 -18.565  0.00  0.00    +0.195 C 
BRANCH  15  16
ATOM     16  S   UNL     1      33.755 -22.408 -18.752  0.00  0.00    +0.045 S 
ATOM     17  O   UNL     1      33.050 -21.183 -19.093  0.00  0.00    -0.157 OA
ATOM     18  O   UNL     1      33.644 -23.578 -19.607  0.00  0.00    -0.157 OA
BRANCH  16  19
ATOM     19  N   UNL     1      33.346 -22.874 -17.157  0.00  0.00    -0.185 NA
ATOM     20  H   UNL     1      32.851 -23.763 -17.224  0.00  0.00    +0.148 HD
BRANCH  19  21
ATOM     21  C   UNL     1      34.424 -23.054 -16.168  0.00  0.00    +0.068 C 
BRANCH  21  22
ATOM     22  C   UNL     1      33.828 -23.565 -14.864  0.00  0.00    -0.058 C 
BRANCH  22  23
ATOM     23  N   UNL     1      34.775 -24.441 -14.185  0.00  0.00    +0.385 N 
ATOM     24  C   UNL     1      36.079 -24.405 -14.850  0.00  0.00    -0.101 C 
ATOM     25  C   UNL     1      34.913 -24.060 -12.778  0.00  0.00    -0.101 C 
ATOM     26  H   UNL     1      34.415 -25.394 -14.229  0.00  0.00    -0.080 HD
ENDBRANCH  22  23
ENDBRANCH  21  22
ENDBRANCH  19  21
ENDBRANCH  16  19
ENDBRANCH  15  16
ENDBRANCH   9  15
ENDBRANCH   1  12
BRANCH   5  27
ATOM     27  O   UNL     1      35.041 -14.885 -23.361  0.00  0.00    -0.427 OA
BRANCH  27  35
ATOM     28  N   UNL     1      31.780 -10.894 -21.493  0.00  0.00    -0.316 N 
ATOM     29  C   UNL     1      33.290 -11.693 -22.928  0.00  0.00    +0.017 C 
ATOM     30  C   UNL     1      32.522 -12.010 -21.805  0.00  0.00    +0.048 C 
ATOM     31  C   UNL     1      32.050  -9.884 -22.377  0.00  0.00    +0.026 C 
ATOM     32  C   UNL     1      32.982 -10.349 -23.278  0.00  0.00    +0.012 C 
ATOM     33  C   UNL     1      34.150 -12.673 -23.461  0.00  0.00    +0.039 C 
ATOM     34  C   UNL     1      32.573 -13.264 -21.186  0.00  0.00    +0.018 C 
ATOM     35  C   UNL     1      34.211 -13.932 -22.852  0.00  0.00    +0.148 C 
ATOM     36  C   UNL     1      33.434 -14.220 -21.732  0.00  0.00    +0.039 C 
ATOM     37  C   UNL     1      31.387  -8.572 -22.268  0.00  0.00    +0.047 C 
ATOM     38  H   UNL     1      31.145 -10.831 -20.743  0.00  0.00    +0.152 HD
ENDBRANCH  27  35
ENDBRANCH   5  27
TORSDOF 9
ENDMDL
MODEL 9
REMARK VINA RESULT:     -10.3      3.316      6.732
REMARK  Name = 52920501
REMARK  9 active torsions:
REMARK  status: ('A' for Active; 'I' for Inactive)
REMARK    1  A    between atoms: N_1  and  C_12
REMARK    2  A    between atoms: C_5  and  O_27
REMARK    3  A    between atoms: C_9  and  C_15
REMARK    4  A    between atoms: C_15  and  S_16
REMARK    5  A    between atoms: S_16  and  N_19
REMARK    6  A    between atoms: N_19  and  C_21
REMARK    7  A    between atoms: C_21  and  C_22
REMARK    8  A    between atoms: C_22  and  N_23
REMARK    9  A    between atoms: O_27  and  C_35
REMARK                            x       y       z     vdW  Elec       q    Type
REMARK                         _______ _______ _______ _____ _____    ______ ____
ROOT
ATOM      1  N   UNL     1      35.971 -17.530 -22.761  0.00  0.00    -0.247 N 
ATOM      2  N   UNL     1      34.896 -19.213 -21.529  0.00  0.00    -0.300 NA
ATOM      3  N   UNL     1      37.221 -18.700 -21.156  0.00  0.00    -0.170 NA
ATOM      4  C   UNL     1      36.032 -18.530 -21.766  0.00  0.00    +0.152 C 
ATOM      5  C   UNL     1      34.990 -20.161 -20.574  0.00  0.00    +0.295 C 
ATOM      6  C   UNL     1      36.148 -20.433 -19.875  0.00  0.00    +0.094 C 
ATOM      7  C   UNL     1      37.243 -19.664 -20.212  0.00  0.00    +0.118 C 
ATOM      8  H   UNL     1      36.823 -17.057 -22.901  0.00  0.00    +0.165 HD
ENDROOT
BRANCH   1  12
ATOM      9  C   UNL     1      33.647 -15.261 -24.538  0.00  0.00    +0.004 C 
ATOM     10  C   UNL     1      34.679 -15.710 -23.714  0.00  0.00    +0.013 C 
ATOM     11  C   UNL     1      32.864 -16.180 -25.238  0.00  0.00    -0.002 C 
ATOM     12  C   UNL     1      34.929 -17.077 -23.592  0.00  0.00    +0.057 C 
ATOM     13  C   UNL     1      33.114 -17.547 -25.116  0.00  0.00    +0.001 C 
ATOM     14  C   UNL     1      34.147 -17.995 -24.292  0.00  0.00    +0.015 C 
BRANCH   9  15
ATOM     15  C   UNL     1      33.379 -13.800 -24.670  0.00  0.00    +0.195 C 
BRANCH  15  16
ATOM     16  S   UNL     1      33.685 -13.050 -23.102  0.00  0.00    +0.045 S 
ATOM     17  O   UNL     1      34.734 -13.799 -22.430  0.00  0.00    -0.157 OA
ATOM     18  O   UNL     1      33.830 -11.618 -23.313  0.00  0.00    -0.157 OA
BRANCH  16  19
ATOM     19  N   UNL     1      32.193 -13.323 -22.312  0.00  0.00    -0.185 NA
ATOM     20  H   UNL     1      32.092 -14.332 -22.205  0.00  0.00    +0.148 HD
BRANCH  19  21
ATOM     21  C   UNL     1      31.969 -12.724 -20.984  0.00  0.00    +0.068 C 
BRANCH  21  22
ATOM     22  C   UNL     1      31.077 -11.500 -21.129  0.00  0.00    -0.058 C 
BRANCH  22  23
ATOM     23  N   UNL     1      31.874 -10.282 -21.045  0.00  0.00    +0.385 N 
ATOM     24  C   UNL     1      31.442  -9.312 -22.054  0.00  0.00    -0.101 C 
ATOM     25  C   UNL     1      31.781  -9.695 -19.707  0.00  0.00    -0.101 C 
ATOM     26  H   UNL     1      32.848 -10.526 -21.225  0.00  0.00    -0.080 HD
ENDBRANCH  22  23
ENDBRANCH  21  22
ENDBRANCH  19  21
ENDBRANCH  16  19
ENDBRANCH  15  16
ENDBRANCH   9  15
ENDBRANCH   1  12
BRANCH   5  27
ATOM     27  O   UNL     1      33.847 -20.890 -20.293  0.00  0.00    -0.427 OA
BRANCH  27  35
ATOM     28  N   UNL     1      33.447 -23.633 -15.563  0.00  0.00    -0.316 N 
ATOM     29  C   UNL     1      32.548 -22.531 -17.282  0.00  0.00    +0.017 C 
ATOM     30  C   UNL     1      33.753 -22.976 -16.733  0.00  0.00    +0.048 C 
ATOM     31  C   UNL     1      32.095 -23.620 -15.353  0.00  0.00    +0.026 C 
ATOM     32  C   UNL     1      31.510 -22.944 -16.401  0.00  0.00    +0.012 C 
ATOM     33  C   UNL     1      32.578 -21.819 -18.497  0.00  0.00    +0.039 C 
ATOM     34  C   UNL     1      34.991 -22.743 -17.341  0.00  0.00    +0.018 C 
ATOM     35  C   UNL     1      33.810 -21.578 -19.117  0.00  0.00    +0.148 C 
ATOM     36  C   UNL     1      34.996 -22.034 -18.546  0.00  0.00    +0.039 C 
ATOM     37  C   UNL     1      31.497 -24.257 -14.166  0.00  0.00    +0.047 C 
ATOM     38  H   UNL     1      34.106 -24.053 -14.963  0.00  0.00    +0.152 HD
ENDBRANCH  27  35
ENDBRANCH   5  27
TORSDOF 9
ENDMDL
