MODEL 1
REMARK VINA RESULT:     -12.0      0.000      0.000
REMARK  Name = 198752
REMARK  6 active torsions:
REMARK  status: ('A' for Active; 'I' for Inactive)
REMARK    1  A    between atoms: C_1  and  C_3
REMARK    2  A    between atoms: C_1  and  C_16
REMARK    3  A    between atoms: N_2  and  C_9
REMARK    4  A    between atoms: C_9  and  C_10
REMARK    5  A    between atoms: C_16  and  C_18
REMARK    6  A    between atoms: C_18  and  C_20
REMARK                            x       y       z     vdW  Elec       q    Type
REMARK                         _______ _______ _______ _____ _____    ______ ____
ROOT
ATOM      1  C   UNL     1      36.182 -21.287 -18.904  0.00  0.00    +0.008 C 
ENDROOT
BRANCH   1   3
ATOM      2  N   UNL     1      35.255 -18.282 -21.865  0.00  0.00    +0.390 N 
ATOM      3  C   UNL     1      35.979 -20.631 -20.267  0.00  0.00    -0.004 C 
ATOM      4  C   UNL     1      36.922 -19.436 -20.448  0.00  0.00    -0.023 C 
ATOM      5  C   UNL     1      34.527 -20.176 -20.450  0.00  0.00    -0.023 C 
ATOM      6  C   UNL     1      36.656 -18.713 -21.769  0.00  0.00    -0.077 C 
ATOM      7  C   UNL     1      34.341 -19.428 -21.771  0.00  0.00    -0.077 C 
ATOM      8  H   UNL     1      35.062 -17.661 -21.080  0.00  0.00    -0.079 HD
BRANCH   2   9
ATOM      9  C   UNL     1      35.027 -17.547 -23.109  0.00  0.00    -0.050 C 
BRANCH   9  10
ATOM     10  C   UNL     1      34.620 -16.121 -22.852  0.00  0.00    -0.043 C 
ATOM     11  C   UNL     1      34.257 -15.311 -23.919  0.00  0.00    -0.006 C 
ATOM     12  C   UNL     1      34.611 -15.636 -21.551  0.00  0.00    -0.006 C 
ATOM     13  C   UNL     1      33.879 -13.989 -23.680  0.00  0.00    -0.000 C 
ATOM     14  C   UNL     1      34.233 -14.315 -21.313  0.00  0.00    -0.000 C 
ATOM     15  C   UNL     1      33.868 -13.491 -22.378  0.00  0.00    -0.000 C 
ENDBRANCH   9  10
ENDBRANCH   2   9
ENDBRANCH   1   3
BRANCH   1  16
ATOM     16  C   UNL     1      34.931 -22.042 -18.454  0.00  0.00    +0.069 C 
BRANCH  16  18
ATOM     17  O   UNL     1      36.191 -22.837 -16.559  0.00  0.00    -0.291 OA
ATOM     18  C   UNL     1      35.056 -22.651 -17.045  0.00  0.00    +0.173 C 
BRANCH  18  20
ATOM     19  N   UNL     1      30.209 -22.805 -16.779  0.00  0.00    -0.333 N 
ATOM     20  C   UNL     1      33.860 -23.001 -16.297  0.00  0.00    +0.036 C 
ATOM     21  C   UNL     1      31.531 -23.685 -14.874  0.00  0.00    -0.009 C 
ATOM     22  C   UNL     1      30.346 -24.138 -14.043  0.00  0.00    +0.028 C 
ATOM     23  C   UNL     1      31.413 -23.107 -16.158  0.00  0.00    +0.041 C 
ATOM     24  C   UNL     1      29.273 -24.862 -14.855  0.00  0.00    +0.006 C 
ATOM     25  C   UNL     1      28.344 -23.932 -15.635  0.00  0.00    +0.022 C 
ATOM     26  C   UNL     1      32.598 -22.791 -16.855  0.00  0.00    +0.017 C 
ATOM     27  C   UNL     1      28.967 -22.612 -16.064  0.00  0.00    +0.087 C 
ATOM     28  C   UNL     1      33.966 -23.534 -15.022  0.00  0.00    +0.003 C 
ATOM     29  C   UNL     1      32.814 -23.871 -14.316  0.00  0.00    -0.003 C 
ATOM     30  H   UNL     1      30.200 -22.715 -17.760  0.00  0.00    +0.147 HD
ENDBRANCH  18  20
ENDBRANCH  16  18
ENDBRANCH   1  16
TORSDOF 6
ENDMDL
MODEL 2
REMARK VINA RESULT:     -11.8      1.391      1.731
REMARK  Name = 198752
REMARK  6 active torsions:
REMARK  status: ('A' for Active; 'I' for Inactive)
REMARK    1  A    between atoms: C_1  and  C_3
REMARK    2  A    between atoms: C_1  and  C_16
REMARK    3  A    between atoms: N_2  and  C_9
REMARK    4  A    between atoms: C_9  and  C_10
REMARK    5  A    between atoms: C_16  and  C_18
REMARK    6  A    between atoms: C_18  and  C_20
REMARK                            x       y       z     vdW  Elec       q    Type
REMARK                         _______ _______ _______ _____ _____    ______ ____
ROOT
ATOM      1  C   UNL     1      35.754 -20.911 -19.306  0.00  0.00    +0.008 C 
ENDROOT
BRANCH   1   3
ATOM      2  N   UNL     1      35.201 -17.911 -22.363  0.00  0.00    +0.390 N 
ATOM      3  C   UNL     1      35.705 -20.262 -20.685  0.00  0.00    -0.004 C 
ATOM      4  C   UNL     1      36.689 -19.091 -20.778  0.00  0.00    -0.023 C 
ATOM      5  C   UNL     1      34.290 -19.776 -21.016  0.00  0.00    -0.023 C 
ATOM      6  C   UNL     1      36.575 -18.372 -22.124  0.00  0.00    -0.077 C 
ATOM      7  C   UNL     1      34.255 -19.035 -22.354  0.00  0.00    -0.077 C 
ATOM      8  H   UNL     1      34.945 -17.279 -21.604  0.00  0.00    -0.079 HD
BRANCH   2   9
ATOM      9  C   UNL     1      35.117 -17.181 -23.628  0.00  0.00    -0.050 C 
BRANCH   9  10
ATOM     10  C   UNL     1      34.483 -15.827 -23.453  0.00  0.00    -0.043 C 
ATOM     11  C   UNL     1      33.818 -15.242 -24.522  0.00  0.00    -0.006 C 
ATOM     12  C   UNL     1      34.571 -15.182 -22.227  0.00  0.00    -0.006 C 
ATOM     13  C   UNL     1      33.231 -13.986 -24.360  0.00  0.00    -0.000 C 
ATOM     14  C   UNL     1      33.984 -13.929 -22.066  0.00  0.00    -0.000 C 
ATOM     15  C   UNL     1      33.314 -13.330 -23.133  0.00  0.00    -0.000 C 
ENDBRANCH   9  10
ENDBRANCH   2   9
ENDBRANCH   1   3
BRANCH   1  16
ATOM     16  C   UNL     1      35.146 -22.314 -19.324  0.00  0.00    +0.069 C 
BRANCH  16  18
ATOM     17  O   UNL     1      32.756 -22.054 -19.491  0.00  0.00    -0.291 OA
ATOM     18  C   UNL     1      33.715 -22.369 -18.757  0.00  0.00    +0.173 C 
BRANCH  18  20
ATOM     19  N   UNL     1      30.611 -23.455 -15.183  0.00  0.00    -0.333 N 
ATOM     20  C   UNL     1      33.495 -22.785 -17.382  0.00  0.00    +0.036 C 
ATOM     21  C   UNL     1      33.044 -23.604 -14.728  0.00  0.00    -0.009 C 
ATOM     22  C   UNL     1      32.918 -24.098 -13.300  0.00  0.00    +0.028 C 
ATOM     23  C   UNL     1      31.940 -23.359 -15.573  0.00  0.00    +0.041 C 
ATOM     24  C   UNL     1      31.861 -25.188 -13.123  0.00  0.00    +0.006 C 
ATOM     25  C   UNL     1      30.428 -24.662 -13.046  0.00  0.00    +0.022 C 
ATOM     26  C   UNL     1      32.196 -22.967 -16.905  0.00  0.00    +0.017 C 
ATOM     27  C   UNL     1      30.175 -23.370 -13.807  0.00  0.00    +0.087 C 
ATOM     28  C   UNL     1      34.573 -22.992 -16.536  0.00  0.00    +0.003 C 
ATOM     29  C   UNL     1      34.350 -23.395 -15.221  0.00  0.00    -0.003 C 
ATOM     30  H   UNL     1      29.928 -23.586 -15.880  0.00  0.00    +0.147 HD
ENDBRANCH  18  20
ENDBRANCH  16  18
ENDBRANCH   1  16
TORSDOF 6
ENDMDL
MODEL 3
REMARK VINA RESULT:     -11.6      2.285      3.726
REMARK  Name = 198752
REMARK  6 active torsions:
REMARK  status: ('A' for Active; 'I' for Inactive)
REMARK    1  A    between atoms: C_1  and  C_3
REMARK    2  A    between atoms: C_1  and  C_16
REMARK    3  A    between atoms: N_2  and  C_9
REMARK    4  A    between atoms: C_9  and  C_10
REMARK    5  A    between atoms: C_16  and  C_18
REMARK    6  A    between atoms: C_18  and  C_20
REMARK                            x       y       z     vdW  Elec       q    Type
REMARK                         _______ _______ _______ _____ _____    ______ ____
ROOT
ATOM      1  C   UNL     1      35.634 -21.198 -19.158  0.00  0.00    +0.008 C 
ENDROOT
BRANCH   1   3
ATOM      2  N   UNL     1      35.222 -18.064 -22.102  0.00  0.00    +0.390 N 
ATOM      3  C   UNL     1      35.633 -20.492 -20.511  0.00  0.00    -0.004 C 
ATOM      4  C   UNL     1      36.644 -19.341 -20.532  0.00  0.00    -0.023 C 
ATOM      5  C   UNL     1      34.237 -19.961 -20.855  0.00  0.00    -0.023 C 
ATOM      6  C   UNL     1      36.579 -18.566 -21.850  0.00  0.00    -0.077 C 
ATOM      7  C   UNL     1      34.252 -19.166 -22.162  0.00  0.00    -0.077 C 
ATOM      8  H   UNL     1      34.961 -17.458 -21.325  0.00  0.00    -0.079 HD
BRANCH   2   9
ATOM      9  C   UNL     1      35.185 -17.282 -23.338  0.00  0.00    -0.050 C 
BRANCH   9  10
ATOM     10  C   UNL     1      34.545 -15.936 -23.131  0.00  0.00    -0.043 C 
ATOM     11  C   UNL     1      34.591 -15.343 -21.876  0.00  0.00    -0.006 C 
ATOM     12  C   UNL     1      33.917 -15.305 -24.196  0.00  0.00    -0.006 C 
ATOM     13  C   UNL     1      33.997 -14.096 -21.684  0.00  0.00    -0.000 C 
ATOM     14  C   UNL     1      33.324 -14.058 -24.004  0.00  0.00    -0.000 C 
ATOM     15  C   UNL     1      33.363 -13.453 -22.747  0.00  0.00    -0.000 C 
ENDBRANCH   9  10
ENDBRANCH   2   9
ENDBRANCH   1   3
BRANCH   1  16
ATOM     16  C   UNL     1      34.756 -22.450 -19.178  0.00  0.00    +0.069 C 
BRANCH  16  18
ATOM     17  O   UNL     1      32.528 -22.042 -18.353  0.00  0.00    -0.291 OA
ATOM     18  C   UNL     1      33.674 -22.457 -18.082  0.00  0.00    +0.173 C 
BRANCH  18  20
ATOM     19  N   UNL     1      37.025 -23.532 -14.736  0.00  0.00    -0.333 N 
ATOM     20  C   UNL     1      33.993 -22.944 -16.750  0.00  0.00    +0.036 C 
ATOM     21  C   UNL     1      34.633 -23.869 -14.172  0.00  0.00    -0.009 C 
ATOM     22  C   UNL     1      34.861 -24.334 -12.746  0.00  0.00    +0.028 C 
ATOM     23  C   UNL     1      35.672 -23.470 -15.041  0.00  0.00    +0.041 C 
ATOM     24  C   UNL     1      35.895 -23.500 -11.991  0.00  0.00    +0.006 C 
ATOM     25  C   UNL     1      37.345 -23.856 -12.317  0.00  0.00    +0.022 C 
ATOM     26  C   UNL     1      35.320 -22.993 -16.322  0.00  0.00    +0.017 C 
ATOM     27  C   UNL     1      37.575 -24.401 -13.719  0.00  0.00    +0.087 C 
ATOM     28  C   UNL     1      32.982 -23.373 -15.905  0.00  0.00    +0.003 C 
ATOM     29  C   UNL     1      33.299 -23.833 -14.629  0.00  0.00    -0.003 C 
ATOM     30  H   UNL     1      37.644 -22.955 -15.239  0.00  0.00    +0.147 HD
ENDBRANCH  18  20
ENDBRANCH  16  18
ENDBRANCH   1  16
TORSDOF 6
ENDMDL
MODEL 4
REMARK VINA RESULT:     -11.6      4.832     12.202
REMARK  Name = 198752
REMARK  6 active torsions:
REMARK  status: ('A' for Active; 'I' for Inactive)
REMARK    1  A    between atoms: C_1  and  C_3
REMARK    2  A    between atoms: C_1  and  C_16
REMARK    3  A    between atoms: N_2  and  C_9
REMARK    4  A    between atoms: C_9  and  C_10
REMARK    5  A    between atoms: C_16  and  C_18
REMARK    6  A    between atoms: C_18  and  C_20
REMARK                            x       y       z     vdW  Elec       q    Type
REMARK                         _______ _______ _______ _____ _____    ______ ____
ROOT
ATOM      1  C   UNL     1      33.659 -14.608 -23.943  0.00  0.00    +0.008 C 
ENDROOT
BRANCH   1   3
ATOM      2  N   UNL     1      34.980 -18.231 -21.999  0.00  0.00    +0.390 N 
ATOM      3  C   UNL     1      34.587 -15.714 -23.450  0.00  0.00    -0.004 C 
ATOM      4  C   UNL     1      34.184 -17.072 -24.034  0.00  0.00    -0.023 C 
ATOM      5  C   UNL     1      34.589 -15.790 -21.919  0.00  0.00    -0.023 C 
ATOM      6  C   UNL     1      35.046 -18.201 -23.466  0.00  0.00    -0.077 C 
ATOM      7  C   UNL     1      35.438 -16.961 -21.421  0.00  0.00    -0.077 C 
ATOM      8  H   UNL     1      34.005 -18.365 -21.731  0.00  0.00    -0.079 HD
BRANCH   2   9
ATOM      9  C   UNL     1      35.768 -19.346 -21.473  0.00  0.00    -0.050 C 
BRANCH   9  10
ATOM     10  C   UNL     1      34.959 -20.217 -20.549  0.00  0.00    -0.043 C 
ATOM     11  C   UNL     1      35.611 -21.098 -19.696  0.00  0.00    -0.006 C 
ATOM     12  C   UNL     1      33.574 -20.128 -20.562  0.00  0.00    -0.006 C 
ATOM     13  C   UNL     1      34.861 -21.905 -18.840  0.00  0.00    -0.000 C 
ATOM     14  C   UNL     1      32.825 -20.934 -19.706  0.00  0.00    -0.000 C 
ATOM     15  C   UNL     1      33.469 -21.824 -18.845  0.00  0.00    -0.000 C 
ENDBRANCH   9  10
ENDBRANCH   2   9
ENDBRANCH   1   3
BRANCH   1  16
ATOM     16  C   UNL     1      34.057 -13.246 -23.374  0.00  0.00    +0.069 C 
BRANCH  16  18
ATOM     17  O   UNL     1      33.853 -12.350 -25.603  0.00  0.00    -0.291 OA
ATOM     18  C   UNL     1      33.906 -12.092 -24.383  0.00  0.00    +0.173 C 
BRANCH  18  20
ATOM     19  N   UNL     1      31.287  -8.519 -22.390  0.00  0.00    -0.333 N 
ATOM     20  C   UNL     1      33.828 -10.719 -23.908  0.00  0.00    +0.036 C 
ATOM     21  C   UNL     1      33.657  -8.072 -22.971  0.00  0.00    -0.009 C 
ATOM     22  C   UNL     1      33.692  -6.649 -22.450  0.00  0.00    +0.028 C 
ATOM     23  C   UNL     1      32.525  -8.912 -22.881  0.00  0.00    +0.041 C 
ATOM     24  C   UNL     1      33.009  -6.478 -21.093  0.00  0.00    +0.006 C 
ATOM     25  C   UNL     1      31.485  -6.393 -21.166  0.00  0.00    +0.022 C 
ATOM     26  C   UNL     1      32.645 -10.240 -23.343  0.00  0.00    +0.017 C 
ATOM     27  C   UNL     1      30.853  -7.142 -22.330  0.00  0.00    +0.087 C 
ATOM     28  C   UNL     1      34.923  -9.878 -24.027  0.00  0.00    +0.003 C 
ATOM     29  C   UNL     1      34.838  -8.567 -23.564  0.00  0.00    -0.003 C 
ATOM     30  H   UNL     1      30.671  -9.216 -22.066  0.00  0.00    +0.147 HD
ENDBRANCH  18  20
ENDBRANCH  16  18
ENDBRANCH   1  16
TORSDOF 6
ENDMDL
MODEL 5
REMARK VINA RESULT:     -11.5      4.525     11.474
REMARK  Name = 198752
REMARK  6 active torsions:
REMARK  status: ('A' for Active; 'I' for Inactive)
REMARK    1  A    between atoms: C_1  and  C_3
REMARK    2  A    between atoms: C_1  and  C_16
REMARK    3  A    between atoms: N_2  and  C_9
REMARK    4  A    between atoms: C_9  and  C_10
REMARK    5  A    between atoms: C_16  and  C_18
REMARK    6  A    between atoms: C_18  and  C_20
REMARK                            x       y       z     vdW  Elec       q    Type
REMARK                         _______ _______ _______ _____ _____    ______ ____
ROOT
ATOM      1  C   UNL     1      33.846 -13.325 -22.699  0.00  0.00    +0.008 C 
ENDROOT
BRANCH   1   3
ATOM      2  N   UNL     1      34.629 -17.569 -22.526  0.00  0.00    +0.390 N 
ATOM      3  C   UNL     1      34.610 -14.644 -22.737  0.00  0.00    -0.004 C 
ATOM      4  C   UNL     1      34.086 -15.553 -23.854  0.00  0.00    -0.023 C 
ATOM      5  C   UNL     1      34.519 -15.373 -21.392  0.00  0.00    -0.023 C 
ATOM      6  C   UNL     1      34.779 -16.917 -23.834  0.00  0.00    -0.077 C 
ATOM      7  C   UNL     1      35.198 -16.742 -21.454  0.00  0.00    -0.077 C 
ATOM      8  H   UNL     1      33.632 -17.679 -22.342  0.00  0.00    -0.079 HD
BRANCH   2   9
ATOM      9  C   UNL     1      35.252 -18.892 -22.538  0.00  0.00    -0.050 C 
BRANCH   9  10
ATOM     10  C   UNL     1      34.783 -19.743 -21.388  0.00  0.00    -0.043 C 
ATOM     11  C   UNL     1      35.718 -20.367 -20.574  0.00  0.00    -0.006 C 
ATOM     12  C   UNL     1      33.422 -19.891 -21.156  0.00  0.00    -0.006 C 
ATOM     13  C   UNL     1      35.283 -21.156 -19.509  0.00  0.00    -0.000 C 
ATOM     14  C   UNL     1      32.988 -20.679 -20.091  0.00  0.00    -0.000 C 
ATOM     15  C   UNL     1      33.919 -21.312 -19.267  0.00  0.00    -0.000 C 
ENDBRANCH   9  10
ENDBRANCH   2   9
ENDBRANCH   1   3
BRANCH   1  16
ATOM     16  C   UNL     1      32.379 -13.536 -22.324  0.00  0.00    +0.069 C 
BRANCH  16  18
ATOM     17  O   UNL     1      31.700 -13.628 -20.013  0.00  0.00    -0.291 OA
ATOM     18  C   UNL     1      31.991 -12.894 -20.979  0.00  0.00    +0.173 C 
BRANCH  18  20
ATOM     19  N   UNL     1      32.462  -8.518 -23.034  0.00  0.00    -0.333 N 
ATOM     20  C   UNL     1      31.967 -11.446 -20.847  0.00  0.00    +0.036 C 
ATOM     21  C   UNL     1      31.912  -8.642 -20.618  0.00  0.00    -0.009 C 
ATOM     22  C   UNL     1      31.807  -7.147 -20.392  0.00  0.00    +0.028 C 
ATOM     23  C   UNL     1      32.179  -9.229 -21.875  0.00  0.00    +0.041 C 
ATOM     24  C   UNL     1      31.039  -6.416 -21.494  0.00  0.00    +0.006 C 
ATOM     25  C   UNL     1      31.859  -6.148 -22.756  0.00  0.00    +0.022 C 
ATOM     26  C   UNL     1      32.183 -10.637 -21.964  0.00  0.00    +0.017 C 
ATOM     27  C   UNL     1      32.959  -7.160 -23.036  0.00  0.00    +0.087 C 
ATOM     28  C   UNL     1      31.743 -10.863 -19.610  0.00  0.00    +0.003 C 
ATOM     29  C   UNL     1      31.717  -9.475 -19.496  0.00  0.00    -0.003 C 
ATOM     30  H   UNL     1      32.317  -8.962 -23.901  0.00  0.00    +0.147 HD
ENDBRANCH  18  20
ENDBRANCH  16  18
ENDBRANCH   1  16
TORSDOF 6
ENDMDL
MODEL 6
REMARK VINA RESULT:     -11.3      2.051      9.856
REMARK  Name = 198752
REMARK  6 active torsions:
REMARK  status: ('A' for Active; 'I' for Inactive)
REMARK    1  A    between atoms: C_1  and  C_3
REMARK    2  A    between atoms: C_1  and  C_16
REMARK    3  A    between atoms: N_2  and  C_9
REMARK    4  A    between atoms: C_9  and  C_10
REMARK    5  A    between atoms: C_16  and  C_18
REMARK    6  A    between atoms: C_18  and  C_20
REMARK                            x       y       z     vdW  Elec       q    Type
REMARK                         _______ _______ _______ _____ _____    ______ ____
ROOT
ATOM      1  C   UNL     1      36.696 -20.441 -19.580  0.00  0.00    +0.008 C 
ENDROOT
BRANCH   1   3
ATOM      2  N   UNL     1      34.387 -22.749 -16.753  0.00  0.00    +0.390 N 
ATOM      3  C   UNL     1      36.148 -21.645 -18.820  0.00  0.00    -0.004 C 
ATOM      4  C   UNL     1      34.634 -21.776 -19.013  0.00  0.00    -0.023 C 
ATOM      5  C   UNL     1      36.473 -21.548 -17.326  0.00  0.00    -0.023 C 
ATOM      6  C   UNL     1      34.062 -22.921 -18.175  0.00  0.00    -0.077 C 
ATOM      7  C   UNL     1      35.840 -22.701 -16.543  0.00  0.00    -0.077 C 
ATOM      8  H   UNL     1      33.995 -21.859 -16.445  0.00  0.00    -0.079 HD
BRANCH   2   9
ATOM      9  C   UNL     1      33.791 -23.823 -15.957  0.00  0.00    -0.050 C 
BRANCH   9  10
ATOM     10  C   UNL     1      32.427 -23.447 -15.442  0.00  0.00    -0.043 C 
ATOM     11  C   UNL     1      31.406 -23.181 -16.343  0.00  0.00    -0.006 C 
ATOM     12  C   UNL     1      32.209 -23.373 -14.073  0.00  0.00    -0.006 C 
ATOM     13  C   UNL     1      30.142 -22.832 -15.866  0.00  0.00    -0.000 C 
ATOM     14  C   UNL     1      30.946 -23.026 -13.596  0.00  0.00    -0.000 C 
ATOM     15  C   UNL     1      29.912 -22.754 -14.493  0.00  0.00    -0.000 C 
ENDBRANCH   9  10
ENDBRANCH   2   9
ENDBRANCH   1   3
BRANCH   1  16
ATOM     16  C   UNL     1      35.702 -19.939 -20.627  0.00  0.00    +0.069 C 
BRANCH  16  18
ATOM     17  O   UNL     1      37.539 -18.704 -21.584  0.00  0.00    -0.291 OA
ATOM     18  C   UNL     1      36.309 -18.919 -21.609  0.00  0.00    +0.173 C 
BRANCH  18  20
ATOM     19  N   UNL     1      34.365 -14.747 -23.161  0.00  0.00    -0.333 N 
ATOM     20  C   UNL     1      35.450 -18.218 -22.550  0.00  0.00    +0.036 C 
ATOM     21  C   UNL     1      33.805 -16.840 -24.370  0.00  0.00    -0.009 C 
ATOM     22  C   UNL     1      32.938 -16.194 -25.432  0.00  0.00    +0.028 C 
ATOM     23  C   UNL     1      34.479 -16.116 -23.361  0.00  0.00    +0.041 C 
ATOM     24  C   UNL     1      33.532 -14.908 -26.006  0.00  0.00    +0.006 C 
ATOM     25  C   UNL     1      33.332 -13.677 -25.122  0.00  0.00    +0.022 C 
ATOM     26  C   UNL     1      35.311 -16.832 -22.473  0.00  0.00    +0.017 C 
ATOM     27  C   UNL     1      33.244 -13.963 -23.631  0.00  0.00    +0.087 C 
ATOM     28  C   UNL     1      34.757 -18.925 -23.520  0.00  0.00    +0.003 C 
ATOM     29  C   UNL     1      33.941 -18.244 -24.420  0.00  0.00    -0.003 C 
ATOM     30  H   UNL     1      35.084 -14.285 -22.673  0.00  0.00    +0.147 HD
ENDBRANCH  18  20
ENDBRANCH  16  18
ENDBRANCH   1  16
TORSDOF 6
ENDMDL
MODEL 7
REMARK VINA RESULT:     -11.1      6.956     13.517
REMARK  Name = 198752
REMARK  6 active torsions:
REMARK  status: ('A' for Active; 'I' for Inactive)
REMARK    1  A    between atoms: C_1  and  C_3
REMARK    2  A    between atoms: C_1  and  C_16
REMARK    3  A    between atoms: N_2  and  C_9
REMARK    4  A    between atoms: C_9  and  C_10
REMARK    5  A    between atoms: C_16  and  C_18
REMARK    6  A    between atoms: C_18  and  C_20
REMARK                            x       y       z     vdW  Elec       q    Type
REMARK                         _______ _______ _______ _____ _____    ______ ____
ROOT
ATOM      1  C   UNL     1      31.483 -11.798 -20.279  0.00  0.00    +0.008 C 
ENDROOT
BRANCH   1   3
ATOM      2  N   UNL     1      33.880 -14.492 -22.657  0.00  0.00    +0.390 N 
ATOM      3  C   UNL     1      32.705 -12.417 -20.951  0.00  0.00    -0.004 C 
ATOM      4  C   UNL     1      32.560 -12.408 -22.476  0.00  0.00    -0.023 C 
ATOM      5  C   UNL     1      32.936 -13.851 -20.462  0.00  0.00    -0.023 C 
ATOM      6  C   UNL     1      33.735 -13.116 -23.152  0.00  0.00    -0.077 C 
ATOM      7  C   UNL     1      34.098 -14.512 -21.205  0.00  0.00    -0.077 C 
ATOM      8  H   UNL     1      33.012 -14.989 -22.851  0.00  0.00    -0.079 HD
BRANCH   2   9
ATOM      9  C   UNL     1      34.974 -15.173 -23.349  0.00  0.00    -0.050 C 
BRANCH   9  10
ATOM     10  C   UNL     1      34.806 -16.669 -23.326  0.00  0.00    -0.043 C 
ATOM     11  C   UNL     1      34.089 -17.291 -24.340  0.00  0.00    -0.006 C 
ATOM     12  C   UNL     1      35.370 -17.406 -22.294  0.00  0.00    -0.006 C 
ATOM     13  C   UNL     1      33.933 -18.677 -24.318  0.00  0.00    -0.000 C 
ATOM     14  C   UNL     1      35.215 -18.791 -22.274  0.00  0.00    -0.000 C 
ATOM     15  C   UNL     1      34.495 -19.427 -23.286  0.00  0.00    -0.000 C 
ENDBRANCH   9  10
ENDBRANCH   2   9
ENDBRANCH   1   3
BRANCH   1  16
ATOM     16  C   UNL     1      31.068 -10.495 -20.962  0.00  0.00    +0.069 C 
BRANCH  16  18
ATOM     17  O   UNL     1      32.293  -9.255 -19.296  0.00  0.00    -0.291 OA
ATOM     18  C   UNL     1      31.851  -9.265 -20.463  0.00  0.00    +0.173 C 
BRANCH  18  20
ATOM     19  N   UNL     1      34.544  -7.118 -23.888  0.00  0.00    -0.333 N 
ATOM     20  C   UNL     1      32.068  -8.135 -21.351  0.00  0.00    +0.036 C 
ATOM     21  C   UNL     1      32.499  -5.964 -23.089  0.00  0.00    -0.009 C 
ATOM     22  C   UNL     1      32.606  -4.771 -24.017  0.00  0.00    +0.028 C 
ATOM     23  C   UNL     1      33.405  -7.048 -23.098  0.00  0.00    +0.041 C 
ATOM     24  C   UNL     1      32.973  -5.145 -25.453  0.00  0.00    +0.006 C 
ATOM     25  C   UNL     1      34.461  -5.420 -25.667  0.00  0.00    +0.022 C 
ATOM     26  C   UNL     1      33.153  -8.131 -22.228  0.00  0.00    +0.017 C 
ATOM     27  C   UNL     1      35.198  -5.958 -24.450  0.00  0.00    +0.087 C 
ATOM     28  C   UNL     1      31.205  -7.051 -21.322  0.00  0.00    +0.003 C 
ATOM     29  C   UNL     1      31.419  -5.975 -22.181  0.00  0.00    -0.003 C 
ATOM     30  H   UNL     1      34.929  -8.005 -24.075  0.00  0.00    +0.147 HD
ENDBRANCH  18  20
ENDBRANCH  16  18
ENDBRANCH   1  16
TORSDOF 6
ENDMDL
MODEL 8
REMARK VINA RESULT:     -11.1      2.905     10.544
REMARK  Name = 198752
REMARK  6 active torsions:
REMARK  status: ('A' for Active; 'I' for Inactive)
REMARK    1  A    between atoms: C_1  and  C_3
REMARK    2  A    between atoms: C_1  and  C_16
REMARK    3  A    between atoms: N_2  and  C_9
REMARK    4  A    between atoms: C_9  and  C_10
REMARK    5  A    between atoms: C_16  and  C_18
REMARK    6  A    between atoms: C_18  and  C_20
REMARK                            x       y       z     vdW  Elec       q    Type
REMARK                         _______ _______ _______ _____ _____    ______ ____
ROOT
ATOM      1  C   UNL     1      36.341 -21.347 -19.423  0.00  0.00    +0.008 C 
ENDROOT
BRANCH   1   3
ATOM      2  N   UNL     1      35.343 -23.366 -15.737  0.00  0.00    +0.390 N 
ATOM      3  C   UNL     1      35.810 -21.575 -18.011  0.00  0.00    -0.004 C 
ATOM      4  C   UNL     1      36.932 -22.012 -17.064  0.00  0.00    -0.023 C 
ATOM      5  C   UNL     1      34.690 -22.622 -18.005  0.00  0.00    -0.023 C 
ATOM      6  C   UNL     1      36.390 -22.339 -15.671  0.00  0.00    -0.077 C 
ATOM      7  C   UNL     1      34.223 -22.928 -16.581  0.00  0.00    -0.077 C 
ATOM      8  H   UNL     1      35.747 -24.201 -16.161  0.00  0.00    -0.079 HD
BRANCH   2   9
ATOM      9  C   UNL     1      34.870 -23.705 -14.395  0.00  0.00    -0.050 C 
BRANCH   9  10
ATOM     10  C   UNL     1      35.870 -24.543 -13.644  0.00  0.00    -0.043 C 
ATOM     11  C   UNL     1      36.312 -24.124 -12.396  0.00  0.00    -0.006 C 
ATOM     12  C   UNL     1      36.335 -25.723 -14.207  0.00  0.00    -0.006 C 
ATOM     13  C   UNL     1      37.239 -24.901 -11.700  0.00  0.00    -0.000 C 
ATOM     14  C   UNL     1      37.261 -26.499 -13.511  0.00  0.00    -0.000 C 
ATOM     15  C   UNL     1      37.714 -26.087 -12.257  0.00  0.00    -0.000 C 
ENDBRANCH   9  10
ENDBRANCH   2   9
ENDBRANCH   1   3
BRANCH   1  16
ATOM     16  C   UNL     1      35.383 -20.491 -20.251  0.00  0.00    +0.069 C 
BRANCH  16  18
ATOM     17  O   UNL     1      37.288 -19.122 -20.809  0.00  0.00    -0.291 OA
ATOM     18  C   UNL     1      36.089 -19.378 -21.049  0.00  0.00    +0.173 C 
BRANCH  18  20
ATOM     19  N   UNL     1      34.440 -15.131 -22.731  0.00  0.00    -0.333 N 
ATOM     20  C   UNL     1      35.359 -18.640 -22.066  0.00  0.00    +0.036 C 
ATOM     21  C   UNL     1      33.964 -17.189 -24.032  0.00  0.00    -0.009 C 
ATOM     22  C   UNL     1      33.237 -16.503 -25.172  0.00  0.00    +0.028 C 
ATOM     23  C   UNL     1      34.540 -16.500 -22.941  0.00  0.00    +0.041 C 
ATOM     24  C   UNL     1      33.925 -15.225 -25.653  0.00  0.00    +0.006 C 
ATOM     25  C   UNL     1      33.660 -14.003 -24.775  0.00  0.00    +0.022 C 
ATOM     26  C   UNL     1      35.249 -17.252 -21.980  0.00  0.00    +0.017 C 
ATOM     27  C   UNL     1      33.400 -14.309 -23.308  0.00  0.00    +0.087 C 
ATOM     28  C   UNL     1      34.760 -19.313 -23.120  0.00  0.00    +0.003 C 
ATOM     29  C   UNL     1      34.068 -18.595 -24.092  0.00  0.00    -0.003 C 
ATOM     30  H   UNL     1      35.112 -14.697 -22.158  0.00  0.00    +0.147 HD
ENDBRANCH  18  20
ENDBRANCH  16  18
ENDBRANCH   1  16
TORSDOF 6
ENDMDL
MODEL 9
REMARK VINA RESULT:     -10.9      3.830      7.438
REMARK  Name = 198752
REMARK  6 active torsions:
REMARK  status: ('A' for Active; 'I' for Inactive)
REMARK    1  A    between atoms: C_1  and  C_3
REMARK    2  A    between atoms: C_1  and  C_16
REMARK    3  A    between atoms: N_2  and  C_9
REMARK    4  A    between atoms: C_9  and  C_10
REMARK    5  A    between atoms: C_16  and  C_18
REMARK    6  A    between atoms: C_18  and  C_20
REMARK                            x       y       z     vdW  Elec       q    Type
REMARK                         _______ _______ _______ _____ _____    ______ ____
ROOT
ATOM      1  C   UNL     1      34.560 -15.302 -21.542  0.00  0.00    +0.008 C 
ENDROOT
BRANCH   1   3
ATOM      2  N   UNL     1      31.414 -12.345 -21.438  0.00  0.00    +0.390 N 
ATOM      3  C   UNL     1      33.855 -13.966 -21.332  0.00  0.00    -0.004 C 
ATOM      4  C   UNL     1      32.737 -14.092 -20.290  0.00  0.00    -0.023 C 
ATOM      5  C   UNL     1      33.278 -13.433 -22.647  0.00  0.00    -0.023 C 
ATOM      6  C   UNL     1      31.961 -12.781 -20.146  0.00  0.00    -0.077 C 
ATOM      7  C   UNL     1      32.483 -12.145 -22.425  0.00  0.00    -0.077 C 
ATOM      8  H   UNL     1      30.800 -13.081 -21.785  0.00  0.00    -0.079 HD
BRANCH   2   9
ATOM      9  C   UNL     1      30.631 -11.120 -21.276  0.00  0.00    -0.050 C 
BRANCH   9  10
ATOM     10  C   UNL     1      31.510  -9.901 -21.187  0.00  0.00    -0.043 C 
ATOM     11  C   UNL     1      31.789  -9.350 -19.943  0.00  0.00    -0.006 C 
ATOM     12  C   UNL     1      32.030  -9.345 -22.347  0.00  0.00    -0.006 C 
ATOM     13  C   UNL     1      32.604  -8.220 -19.860  0.00  0.00    -0.000 C 
ATOM     14  C   UNL     1      32.844  -8.216 -22.264  0.00  0.00    -0.000 C 
ATOM     15  C   UNL     1      33.131  -7.653 -21.020  0.00  0.00    -0.000 C 
ENDBRANCH   9  10
ENDBRANCH   2   9
ENDBRANCH   1   3
BRANCH   1  16
ATOM     16  C   UNL     1      34.842 -15.560 -23.023  0.00  0.00    +0.069 C 
BRANCH  16  18
ATOM     17  O   UNL     1      34.634 -17.397 -24.570  0.00  0.00    -0.291 OA
ATOM     18  C   UNL     1      34.863 -17.056 -23.391  0.00  0.00    +0.173 C 
BRANCH  18  20
ATOM     19  N   UNL     1      33.261 -20.552 -20.426  0.00  0.00    -0.333 N 
ATOM     20  C   UNL     1      35.148 -18.051 -22.370  0.00  0.00    +0.036 C 
ATOM     21  C   UNL     1      35.678 -19.993 -20.405  0.00  0.00    -0.009 C 
ATOM     22  C   UNL     1      36.084 -21.041 -19.388  0.00  0.00    +0.028 C 
ATOM     23  C   UNL     1      34.358 -19.835 -20.884  0.00  0.00    +0.041 C 
ATOM     24  C   UNL     1      35.437 -22.406 -19.626  0.00  0.00    +0.006 C 
ATOM     25  C   UNL     1      33.996 -22.511 -19.129  0.00  0.00    +0.022 C 
ATOM     26  C   UNL     1      34.125 -18.865 -21.882  0.00  0.00    +0.017 C 
ATOM     27  C   UNL     1      33.216 -21.205 -19.136  0.00  0.00    +0.087 C 
ATOM     28  C   UNL     1      36.433 -18.187 -21.869  0.00  0.00    +0.003 C 
ATOM     29  C   UNL     1      36.695 -19.147 -20.895  0.00  0.00    -0.003 C 
ATOM     30  H   UNL     1      32.471 -20.619 -21.009  0.00  0.00    +0.147 HD
ENDBRANCH  18  20
ENDBRANCH  16  18
ENDBRANCH   1  16
TORSDOF 6
ENDMDL
