MODEL 1
REMARK VINA RESULT:     -11.0      0.000      0.000
REMARK  Name = 90311989
REMARK  4 active torsions:
REMARK  status: ('A' for Active; 'I' for Inactive)
REMARK    1  A    between atoms: C_16  and  O_33
REMARK    2  A    between atoms: C_17  and  C_21
REMARK    3  A    between atoms: N_20  and  C_23
REMARK    4  A    between atoms: C_23  and  C_27
REMARK                            x       y       z     vdW  Elec       q    Type
REMARK                         _______ _______ _______ _____ _____    ______ ____
ROOT
ATOM      1  O   UNL     1      35.440 -17.360 -20.846  0.00  0.00    -0.339 OA
ATOM      2  O   UNL     1      33.132 -17.774 -24.959  0.00  0.00    -0.268 OA
ATOM      3  O   UNL     1      33.331 -12.991 -26.695  0.00  0.00    -0.283 OA
ATOM      4  N   UNL     1      34.361 -17.610 -23.008  0.00  0.00    -0.253 N 
ATOM      5  N   UNL     1      34.202 -14.813 -23.180  0.00  0.00    -0.275 N 
ATOM      6  C   UNL     1      34.451 -19.066 -22.822  0.00  0.00    +0.080 C 
ATOM      7  C   UNL     1      35.572 -18.785 -20.821  0.00  0.00    +0.119 C 
ATOM      8  C   UNL     1      34.278 -19.384 -21.344  0.00  0.00    +0.049 C 
ATOM      9  C   UNL     1      35.882 -19.542 -23.107  0.00  0.00    +0.022 C 
ATOM     10  C   UNL     1      36.644 -19.285 -21.797  0.00  0.00    +0.031 C 
ATOM     11  C   UNL     1      35.184 -16.770 -22.131  0.00  0.00    +0.215 C 
ATOM     12  C   UNL     1      34.487 -15.442 -21.894  0.00  0.00    +0.147 C 
ATOM     13  C   UNL     1      33.730 -17.082 -24.136  0.00  0.00    +0.267 C 
ATOM     14  C   UNL     1      33.814 -15.579 -24.287  0.00  0.00    +0.143 C 
ATOM     15  C   UNL     1      34.243 -13.431 -23.304  0.00  0.00    +0.074 C 
ATOM     16  C   UNL     1      33.511 -15.028 -25.483  0.00  0.00    +0.191 C 
ATOM     17  C   UNL     1      33.967 -12.753 -24.424  0.00  0.00    +0.110 C 
ATOM     18  C   UNL     1      33.583 -13.538 -25.627  0.00  0.00    +0.236 C 
ENDROOT
BRANCH  17  21
ATOM     19  O   UNL     1      34.909 -10.699 -25.063  0.00  0.00    -0.270 OA
ATOM     20  N   UNL     1      33.107 -10.703 -23.583  0.00  0.00    -0.297 N 
ATOM     21  C   UNL     1      34.057 -11.293 -24.401  0.00  0.00    +0.251 C 
ATOM     22  H   UNL     1      32.477 -11.289 -23.104  0.00  0.00    +0.150 HD
BRANCH  20  23
ATOM     23  C   UNL     1      32.994  -9.274 -23.395  0.00  0.00    +0.121 C 
BRANCH  23  27
ATOM     24  F   UNL     1      31.429 -10.972 -21.761  0.00  0.00    -0.204 F 
ATOM     25  F   UNL     1      33.760  -6.855 -22.149  0.00  0.00    -0.204 F 
ATOM     26  F   UNL     1      31.527  -7.948 -18.124  0.00  0.00    -0.204 F 
ATOM     27  C   UNL     1      32.604  -8.922 -21.990  0.00  0.00    +0.053 C 
ATOM     28  C   UNL     1      31.828  -9.805 -21.238  0.00  0.00    +0.142 C 
ATOM     29  C   UNL     1      33.015  -7.710 -21.435  0.00  0.00    +0.142 C 
ATOM     30  C   UNL     1      31.465  -9.476 -19.932  0.00  0.00    +0.059 C 
ATOM     31  C   UNL     1      32.652  -7.382 -20.129  0.00  0.00    +0.059 C 
ATOM     32  C   UNL     1      31.877  -8.264 -19.378  0.00  0.00    +0.145 C 
ENDBRANCH  23  27
ENDBRANCH  20  23
ENDBRANCH  17  21
BRANCH  16  33
ATOM     33  O   UNL     1      33.147 -15.749 -26.598  0.00  0.00    -0.502 OA
ATOM     34  H   UNL     1      33.788 -15.960 -27.248  0.00  0.00    +0.292 HD
ENDBRANCH  16  33
TORSDOF 4
ENDMDL
MODEL 2
REMARK VINA RESULT:     -10.9      3.917      9.250
REMARK  Name = 90311989
REMARK  4 active torsions:
REMARK  status: ('A' for Active; 'I' for Inactive)
REMARK    1  A    between atoms: C_16  and  O_33
REMARK    2  A    between atoms: C_17  and  C_21
REMARK    3  A    between atoms: N_20  and  C_23
REMARK    4  A    between atoms: C_23  and  C_27
REMARK                            x       y       z     vdW  Elec       q    Type
REMARK                         _______ _______ _______ _____ _____    ______ ____
ROOT
ATOM      1  O   UNL     1      33.085  -8.663 -23.793  0.00  0.00    -0.339 OA
ATOM      2  O   UNL     1      31.071 -11.115 -20.280  0.00  0.00    -0.268 OA
ATOM      3  O   UNL     1      33.610 -15.521 -20.562  0.00  0.00    -0.283 OA
ATOM      4  N   UNL     1      32.129  -9.866 -21.913  0.00  0.00    -0.253 N 
ATOM      5  N   UNL     1      33.329 -12.210 -22.885  0.00  0.00    -0.275 N 
ATOM      6  C   UNL     1      31.506  -8.602 -21.492  0.00  0.00    +0.080 C 
ATOM      7  C   UNL     1      32.522  -7.472 -23.234  0.00  0.00    +0.119 C 
ATOM      8  C   UNL     1      31.127  -7.806 -22.732  0.00  0.00    +0.049 C 
ATOM      9  C   UNL     1      32.550  -7.704 -20.816  0.00  0.00    +0.022 C 
ATOM     10  C   UNL     1      33.275  -7.009 -21.980  0.00  0.00    +0.031 C 
ATOM     11  C   UNL     1      33.207  -9.785 -22.904  0.00  0.00    +0.215 C 
ATOM     12  C   UNL     1      33.215 -11.043 -23.754  0.00  0.00    +0.147 C 
ATOM     13  C   UNL     1      31.884 -11.042 -21.201  0.00  0.00    +0.267 C 
ATOM     14  C   UNL     1      32.680 -12.250 -21.644  0.00  0.00    +0.143 C 
ATOM     15  C   UNL     1      34.029 -13.330 -23.311  0.00  0.00    +0.074 C 
ATOM     16  C   UNL     1      32.737 -13.326 -20.828  0.00  0.00    +0.191 C 
ATOM     17  C   UNL     1      34.166 -14.461 -22.609  0.00  0.00    +0.110 C 
ATOM     18  C   UNL     1      33.517 -14.526 -21.273  0.00  0.00    +0.236 C 
ENDROOT
BRANCH  17  21
ATOM     19  O   UNL     1      35.715 -15.364 -24.127  0.00  0.00    -0.270 OA
ATOM     20  N   UNL     1      34.693 -16.778 -22.580  0.00  0.00    -0.297 N 
ATOM     21  C   UNL     1      34.939 -15.559 -23.190  0.00  0.00    +0.251 C 
ATOM     22  H   UNL     1      34.047 -16.806 -21.838  0.00  0.00    +0.150 HD
BRANCH  20  23
ATOM     23  C   UNL     1      35.334 -18.012 -22.977  0.00  0.00    +0.121 C 
BRANCH  23  27
ATOM     24  F   UNL     1      37.837 -18.274 -21.686  0.00  0.00    -0.204 F 
ATOM     25  F   UNL     1      33.291 -19.628 -21.878  0.00  0.00    -0.204 F 
ATOM     26  F   UNL     1      36.176 -21.457 -18.605  0.00  0.00    -0.204 F 
ATOM     27  C   UNL     1      35.558 -18.929 -21.811  0.00  0.00    +0.053 C 
ATOM     28  C   UNL     1      36.819 -19.012 -21.220  0.00  0.00    +0.142 C 
ATOM     29  C   UNL     1      34.506 -19.700 -21.317  0.00  0.00    +0.142 C 
ATOM     30  C   UNL     1      37.028 -19.866 -20.137  0.00  0.00    +0.059 C 
ATOM     31  C   UNL     1      34.714 -20.553 -20.234  0.00  0.00    +0.059 C 
ATOM     32  C   UNL     1      35.975 -20.637 -19.645  0.00  0.00    +0.145 C 
ENDBRANCH  23  27
ENDBRANCH  20  23
ENDBRANCH  17  21
BRANCH  16  33
ATOM     33  O   UNL     1      32.132 -13.393 -19.593  0.00  0.00    -0.502 OA
ATOM     34  H   UNL     1      31.205 -13.273 -19.519  0.00  0.00    +0.292 HD
ENDBRANCH  16  33
TORSDOF 4
ENDMDL
MODEL 3
REMARK VINA RESULT:     -10.5      5.980      9.719
REMARK  Name = 90311989
REMARK  4 active torsions:
REMARK  status: ('A' for Active; 'I' for Inactive)
REMARK    1  A    between atoms: C_16  and  O_33
REMARK    2  A    between atoms: C_17  and  C_21
REMARK    3  A    between atoms: N_20  and  C_23
REMARK    4  A    between atoms: C_23  and  C_27
REMARK                            x       y       z     vdW  Elec       q    Type
REMARK                         _______ _______ _______ _____ _____    ______ ____
ROOT
ATOM      1  O   UNL     1      30.814 -23.409 -15.439  0.00  0.00    -0.339 OA
ATOM      2  O   UNL     1      35.515 -23.912 -15.675  0.00  0.00    -0.268 OA
ATOM      3  O   UNL     1      36.658 -20.772 -19.519  0.00  0.00    -0.283 OA
ATOM      4  N   UNL     1      33.236 -23.583 -15.471  0.00  0.00    -0.253 N 
ATOM      5  N   UNL     1      33.233 -22.277 -17.956  0.00  0.00    -0.275 N 
ATOM      6  C   UNL     1      33.146 -24.293 -14.186  0.00  0.00    +0.080 C 
ATOM      7  C   UNL     1      30.853 -24.011 -14.141  0.00  0.00    +0.119 C 
ATOM      8  C   UNL     1      31.877 -25.132 -14.176  0.00  0.00    +0.049 C 
ATOM      9  C   UNL     1      32.899 -23.290 -13.051  0.00  0.00    +0.022 C 
ATOM     10  C   UNL     1      31.382 -23.048 -13.072  0.00  0.00    +0.031 C 
ATOM     11  C   UNL     1      32.048 -22.846 -15.914  0.00  0.00    +0.215 C 
ATOM     12  C   UNL     1      31.991 -22.835 -17.431  0.00  0.00    +0.147 C 
ATOM     13  C   UNL     1      34.474 -23.405 -16.091  0.00  0.00    +0.267 C 
ATOM     14  C   UNL     1      34.462 -22.548 -17.338  0.00  0.00    +0.143 C 
ATOM     15  C   UNL     1      33.222 -21.523 -19.121  0.00  0.00    +0.074 C 
ATOM     16  C   UNL     1      35.635 -22.075 -17.814  0.00  0.00    +0.191 C 
ATOM     17  C   UNL     1      34.305 -20.995 -19.702  0.00  0.00    +0.110 C 
ATOM     18  C   UNL     1      35.621 -21.236 -19.055  0.00  0.00    +0.236 C 
ENDROOT
BRANCH  17  21
ATOM     19  O   UNL     1      33.012 -19.912 -21.337  0.00  0.00    -0.270 OA
ATOM     20  N   UNL     1      35.335 -19.893 -21.539  0.00  0.00    -0.297 N 
ATOM     21  C   UNL     1      34.134 -20.218 -20.931  0.00  0.00    +0.251 C 
ATOM     22  H   UNL     1      36.170 -20.197 -21.114  0.00  0.00    +0.150 HD
BRANCH  20  23
ATOM     23  C   UNL     1      35.427 -19.131 -22.764  0.00  0.00    +0.121 C 
BRANCH  23  27
ATOM     24  F   UNL     1      35.695 -17.794 -20.285  0.00  0.00    -0.204 F 
ATOM     25  F   UNL     1      34.358 -17.528 -24.833  0.00  0.00    -0.204 F 
ATOM     26  F   UNL     1      33.953 -13.750 -22.015  0.00  0.00    -0.204 F 
ATOM     27  C   UNL     1      35.036 -17.697 -22.565  0.00  0.00    +0.053 C 
ATOM     28  C   UNL     1      35.193 -17.097 -21.314  0.00  0.00    +0.142 C 
ATOM     29  C   UNL     1      34.513 -16.961 -23.629  0.00  0.00    +0.142 C 
ATOM     30  C   UNL     1      34.827 -15.764 -21.129  0.00  0.00    +0.059 C 
ATOM     31  C   UNL     1      34.148 -15.628 -23.443  0.00  0.00    +0.059 C 
ATOM     32  C   UNL     1      34.305 -15.030 -22.194  0.00  0.00    +0.145 C 
ENDBRANCH  23  27
ENDBRANCH  20  23
ENDBRANCH  17  21
BRANCH  16  33
ATOM     33  O   UNL     1      36.858 -22.302 -17.223  0.00  0.00    -0.502 OA
ATOM     34  H   UNL     1      37.464 -21.595 -17.116  0.00  0.00    +0.292 HD
ENDBRANCH  16  33
TORSDOF 4
ENDMDL
MODEL 4
REMARK VINA RESULT:     -10.2      8.295     11.911
REMARK  Name = 90311989
REMARK  4 active torsions:
REMARK  status: ('A' for Active; 'I' for Inactive)
REMARK    1  A    between atoms: C_16  and  O_33
REMARK    2  A    between atoms: C_17  and  C_21
REMARK    3  A    between atoms: N_20  and  C_23
REMARK    4  A    between atoms: C_23  and  C_27
REMARK                            x       y       z     vdW  Elec       q    Type
REMARK                         _______ _______ _______ _____ _____    ______ ____
ROOT
ATOM      1  O   UNL     1      29.878 -23.159 -16.695  0.00  0.00    -0.339 OA
ATOM      2  O   UNL     1      32.815 -24.952 -13.444  0.00  0.00    -0.268 OA
ATOM      3  O   UNL     1      37.186 -22.645 -14.674  0.00  0.00    -0.283 OA
ATOM      4  N   UNL     1      31.346 -23.993 -14.948  0.00  0.00    -0.253 N 
ATOM      5  N   UNL     1      33.532 -22.990 -16.396  0.00  0.00    -0.275 N 
ATOM      6  C   UNL     1      30.151 -24.519 -14.272  0.00  0.00    +0.080 C 
ATOM      7  C   UNL     1      28.780 -23.617 -15.899  0.00  0.00    +0.119 C 
ATOM      8  C   UNL     1      29.151 -24.973 -15.325  0.00  0.00    +0.049 C 
ATOM      9  C   UNL     1      29.406 -23.379 -13.565  0.00  0.00    +0.022 C 
ATOM     10  C   UNL     1      28.550 -22.734 -14.667  0.00  0.00    +0.031 C 
ATOM     11  C   UNL     1      31.134 -23.007 -16.013  0.00  0.00    +0.215 C 
ATOM     12  C   UNL     1      32.235 -23.131 -17.051  0.00  0.00    +0.147 C 
ATOM     13  C   UNL     1      32.615 -24.224 -14.415  0.00  0.00    +0.267 C 
ATOM     14  C   UNL     1      33.757 -23.525 -15.121  0.00  0.00    +0.143 C 
ATOM     15  C   UNL     1      34.586 -22.382 -17.062  0.00  0.00    +0.074 C 
ATOM     16  C   UNL     1      34.953 -23.441 -14.497  0.00  0.00    +0.191 C 
ATOM     17  C   UNL     1      35.820 -22.231 -16.567  0.00  0.00    +0.110 C 
ATOM     18  C   UNL     1      36.085 -22.758 -15.203  0.00  0.00    +0.236 C 
ENDROOT
BRANCH  17  21
ATOM     19  O   UNL     1      37.989 -21.435 -16.992  0.00  0.00    -0.270 OA
ATOM     20  N   UNL     1      36.335 -21.121 -18.605  0.00  0.00    -0.297 N 
ATOM     21  C   UNL     1      36.830 -21.563 -17.390  0.00  0.00    +0.251 C 
ATOM     22  H   UNL     1      35.385 -21.284 -18.809  0.00  0.00    +0.150 HD
BRANCH  20  23
ATOM     23  C   UNL     1      37.138 -20.432 -19.590  0.00  0.00    +0.121 C 
BRANCH  23  27
ATOM     24  F   UNL     1      34.387 -20.998 -19.929  0.00  0.00    -0.204 F 
ATOM     25  F   UNL     1      38.160 -18.530 -21.415  0.00  0.00    -0.204 F 
ATOM     26  F   UNL     1      33.977 -17.989 -23.557  0.00  0.00    -0.204 F 
ATOM     27  C   UNL     1      36.295 -19.780 -20.646  0.00  0.00    +0.053 C 
ATOM     28  C   UNL     1      34.943 -20.106 -20.760  0.00  0.00    +0.142 C 
ATOM     29  C   UNL     1      36.863 -18.849 -21.516  0.00  0.00    +0.142 C 
ATOM     30  C   UNL     1      34.160 -19.500 -21.743  0.00  0.00    +0.059 C 
ATOM     31  C   UNL     1      36.080 -18.244 -22.498  0.00  0.00    +0.059 C 
ATOM     32  C   UNL     1      34.729 -18.570 -22.612  0.00  0.00    +0.145 C 
ENDBRANCH  23  27
ENDBRANCH  20  23
ENDBRANCH  17  21
BRANCH  16  33
ATOM     33  O   UNL     1      35.205 -23.934 -13.237  0.00  0.00    -0.502 OA
ATOM     34  H   UNL     1      35.771 -24.673 -13.128  0.00  0.00    +0.292 HD
ENDBRANCH  16  33
TORSDOF 4
ENDMDL
MODEL 5
REMARK VINA RESULT:     -10.2      8.452     13.364
REMARK  Name = 90311989
REMARK  4 active torsions:
REMARK  status: ('A' for Active; 'I' for Inactive)
REMARK    1  A    between atoms: C_16  and  O_33
REMARK    2  A    between atoms: C_17  and  C_21
REMARK    3  A    between atoms: N_20  and  C_23
REMARK    4  A    between atoms: C_23  and  C_27
REMARK                            x       y       z     vdW  Elec       q    Type
REMARK                         _______ _______ _______ _____ _____    ______ ____
ROOT
ATOM      1  O   UNL     1      36.960 -19.694 -20.908  0.00  0.00    -0.339 OA
ATOM      2  O   UNL     1      32.405 -20.907 -20.467  0.00  0.00    -0.268 OA
ATOM      3  O   UNL     1      32.424 -23.199 -15.919  0.00  0.00    -0.283 OA
ATOM      4  N   UNL     1      34.600 -20.203 -20.639  0.00  0.00    -0.253 N 
ATOM      5  N   UNL     1      35.271 -21.865 -18.479  0.00  0.00    -0.275 N 
ATOM      6  C   UNL     1      34.339 -19.342 -21.803  0.00  0.00    +0.080 C 
ATOM      7  C   UNL     1      36.580 -18.798 -21.958  0.00  0.00    +0.119 C 
ATOM      8  C   UNL     1      35.497 -19.475 -22.781  0.00  0.00    +0.049 C 
ATOM      9  C   UNL     1      34.410 -17.867 -21.389  0.00  0.00    +0.022 C 
ATOM     10  C   UNL     1      35.909 -17.528 -21.421  0.00  0.00    +0.031 C 
ATOM     11  C   UNL     1      35.916 -20.087 -20.002  0.00  0.00    +0.215 C 
ATOM     12  C   UNL     1      36.312 -21.424 -19.402  0.00  0.00    +0.147 C 
ATOM     13  C   UNL     1      33.552 -20.889 -20.023  0.00  0.00    +0.267 C 
ATOM     14  C   UNL     1      33.916 -21.636 -18.758  0.00  0.00    +0.143 C 
ATOM     15  C   UNL     1      35.607 -22.583 -17.340  0.00  0.00    +0.074 C 
ATOM     16  C   UNL     1      32.924 -22.058 -17.943  0.00  0.00    +0.191 C 
ATOM     17  C   UNL     1      34.731 -23.060 -16.448  0.00  0.00    +0.110 C 
ATOM     18  C   UNL     1      33.287 -22.808 -16.697  0.00  0.00    +0.236 C 
ENDROOT
BRANCH  17  21
ATOM     19  O   UNL     1      35.035 -25.007 -15.170  0.00  0.00    -0.270 OA
ATOM     20  N   UNL     1      35.937 -22.999 -14.401  0.00  0.00    -0.297 N 
ATOM     21  C   UNL     1      35.238 -23.798 -15.291  0.00  0.00    +0.251 C 
ATOM     22  H   UNL     1      36.031 -22.042 -14.610  0.00  0.00    +0.150 HD
BRANCH  20  23
ATOM     23  C   UNL     1      36.533 -23.497 -13.182  0.00  0.00    +0.121 C 
BRANCH  23  27
ATOM     24  F   UNL     1      38.275 -23.073 -15.371  0.00  0.00    -0.204 F 
ATOM     25  F   UNL     1      37.239 -25.697 -11.552  0.00  0.00    -0.204 F 
ATOM     26  F   UNL     1      41.010 -26.754 -14.206  0.00  0.00    -0.204 F 
ATOM     27  C   UNL     1      37.727 -24.364 -13.454  0.00  0.00    +0.053 C 
ATOM     28  C   UNL     1      38.545 -24.100 -14.553  0.00  0.00    +0.142 C 
ATOM     29  C   UNL     1      38.019 -25.435 -12.610  0.00  0.00    +0.142 C 
ATOM     30  C   UNL     1      39.655 -24.908 -14.807  0.00  0.00    +0.059 C 
ATOM     31  C   UNL     1      39.128 -26.242 -12.863  0.00  0.00    +0.059 C 
ATOM     32  C   UNL     1      39.945 -25.978 -13.961  0.00  0.00    +0.145 C 
ENDBRANCH  23  27
ENDBRANCH  20  23
ENDBRANCH  17  21
BRANCH  16  33
ATOM     33  O   UNL     1      31.585 -21.832 -18.173  0.00  0.00    -0.502 OA
ATOM     34  H   UNL     1      31.221 -20.983 -18.020  0.00  0.00    +0.292 HD
ENDBRANCH  16  33
TORSDOF 4
ENDMDL
MODEL 6
REMARK VINA RESULT:     -10.2      3.987      8.779
REMARK  Name = 90311989
REMARK  4 active torsions:
REMARK  status: ('A' for Active; 'I' for Inactive)
REMARK    1  A    between atoms: C_16  and  O_33
REMARK    2  A    between atoms: C_17  and  C_21
REMARK    3  A    between atoms: N_20  and  C_23
REMARK    4  A    between atoms: C_23  and  C_27
REMARK                            x       y       z     vdW  Elec       q    Type
REMARK                         _______ _______ _______ _____ _____    ______ ____
ROOT
ATOM      1  O   UNL     1      32.331 -12.371 -19.604  0.00  0.00    -0.339 OA
ATOM      2  O   UNL     1      33.372 -11.829 -24.191  0.00  0.00    -0.268 OA
ATOM      3  O   UNL     1      34.673 -16.580 -25.482  0.00  0.00    -0.283 OA
ATOM      4  N   UNL     1      32.745 -12.104 -21.983  0.00  0.00    -0.253 N 
ATOM      5  N   UNL     1      33.932 -14.648 -21.996  0.00  0.00    -0.275 N 
ATOM      6  C   UNL     1      32.141 -10.767 -21.881  0.00  0.00    +0.080 C 
ATOM      7  C   UNL     1      31.668 -11.103 -19.645  0.00  0.00    +0.119 C 
ATOM      8  C   UNL     1      32.487 -10.174 -20.524  0.00  0.00    +0.049 C 
ATOM      9  C   UNL     1      30.612 -10.887 -21.821  0.00  0.00    +0.022 C 
ATOM     10  C   UNL     1      30.306 -11.184 -20.345  0.00  0.00    +0.031 C 
ATOM     11  C   UNL     1      32.516 -13.030 -20.868  0.00  0.00    +0.215 C 
ATOM     12  C   UNL     1      33.705 -13.963 -20.727  0.00  0.00    +0.147 C 
ATOM     13  C   UNL     1      33.276 -12.546 -23.196  0.00  0.00    +0.267 C 
ATOM     14  C   UNL     1      33.750 -13.983 -23.216  0.00  0.00    +0.143 C 
ATOM     15  C   UNL     1      34.403 -15.953 -22.009  0.00  0.00    +0.074 C 
ATOM     16  C   UNL     1      33.981 -14.575 -24.408  0.00  0.00    +0.191 C 
ATOM     17  C   UNL     1      34.674 -16.659 -23.112  0.00  0.00    +0.110 C 
ATOM     18  C   UNL     1      34.461 -15.995 -24.425  0.00  0.00    +0.236 C 
ENDROOT
BRANCH  17  21
ATOM     19  O   UNL     1      35.159 -18.811 -23.920  0.00  0.00    -0.270 OA
ATOM     20  N   UNL     1      35.605 -18.316 -21.685  0.00  0.00    -0.297 N 
ATOM     21  C   UNL     1      35.163 -18.031 -22.967  0.00  0.00    +0.251 C 
ATOM     22  H   UNL     1      35.556 -17.605 -21.006  0.00  0.00    +0.150 HD
BRANCH  20  23
ATOM     23  C   UNL     1      36.132 -19.604 -21.293  0.00  0.00    +0.121 C 
BRANCH  23  27
ATOM     24  F   UNL     1      33.323 -19.490 -21.614  0.00  0.00    -0.204 F 
ATOM     25  F   UNL     1      36.985 -21.260 -19.166  0.00  0.00    -0.204 F 
ATOM     26  F   UNL     1      32.555 -22.423 -17.982  0.00  0.00    -0.204 F 
ATOM     27  C   UNL     1      35.178 -20.356 -20.411  0.00  0.00    +0.053 C 
ATOM     28  C   UNL     1      33.803 -20.255 -20.624  0.00  0.00    +0.142 C 
ATOM     29  C   UNL     1      35.666 -21.156 -19.378  0.00  0.00    +0.142 C 
ATOM     30  C   UNL     1      32.917 -20.953 -19.803  0.00  0.00    +0.059 C 
ATOM     31  C   UNL     1      34.781 -21.855 -18.558  0.00  0.00    +0.059 C 
ATOM     32  C   UNL     1      33.406 -21.753 -18.770  0.00  0.00    +0.145 C 
ENDBRANCH  23  27
ENDBRANCH  20  23
ENDBRANCH  17  21
BRANCH  16  33
ATOM     33  O   UNL     1      33.793 -13.962 -25.627  0.00  0.00    -0.502 OA
ATOM     34  H   UNL     1      34.533 -13.706 -26.141  0.00  0.00    +0.292 HD
ENDBRANCH  16  33
TORSDOF 4
ENDMDL
MODEL 7
REMARK VINA RESULT:     -10.1      4.335      7.551
REMARK  Name = 90311989
REMARK  4 active torsions:
REMARK  status: ('A' for Active; 'I' for Inactive)
REMARK    1  A    between atoms: C_16  and  O_33
REMARK    2  A    between atoms: C_17  and  C_21
REMARK    3  A    between atoms: N_20  and  C_23
REMARK    4  A    between atoms: C_23  and  C_27
REMARK                            x       y       z     vdW  Elec       q    Type
REMARK                         _______ _______ _______ _____ _____    ______ ____
ROOT
ATOM      1  O   UNL     1      31.830 -22.879 -17.495  0.00  0.00    -0.339 OA
ATOM      2  O   UNL     1      36.547 -22.472 -17.533  0.00  0.00    -0.268 OA
ATOM      3  O   UNL     1      37.195 -18.746 -20.944  0.00  0.00    -0.283 OA
ATOM      4  N   UNL     1      34.241 -22.597 -17.416  0.00  0.00    -0.253 N 
ATOM      5  N   UNL     1      34.070 -21.032 -19.740  0.00  0.00    -0.275 N 
ATOM      6  C   UNL     1      34.247 -23.457 -16.223  0.00  0.00    +0.080 C 
ATOM      7  C   UNL     1      31.942 -23.611 -16.271  0.00  0.00    +0.119 C 
ATOM      8  C   UNL     1      33.161 -24.511 -16.373  0.00  0.00    +0.049 C 
ATOM      9  C   UNL     1      33.778 -22.657 -15.000  0.00  0.00    +0.022 C 
ATOM     10  C   UNL     1      32.243 -22.699 -15.076  0.00  0.00    +0.031 C 
ATOM     11  C   UNL     1      32.950 -22.046 -17.840  0.00  0.00    +0.215 C 
ATOM     12  C   UNL     1      32.940 -21.868 -19.347  0.00  0.00    +0.147 C 
ATOM     13  C   UNL     1      35.442 -22.122 -17.946  0.00  0.00    +0.267 C 
ATOM     14  C   UNL     1      35.308 -21.142 -19.091  0.00  0.00    +0.143 C 
ATOM     15  C   UNL     1      33.953 -20.161 -20.815  0.00  0.00    +0.074 C 
ATOM     16  C   UNL     1      36.384 -20.407 -19.449  0.00  0.00    +0.191 C 
ATOM     17  C   UNL     1      34.934 -19.377 -21.276  0.00  0.00    +0.110 C 
ATOM     18  C   UNL     1      36.251 -19.445 -20.590  0.00  0.00    +0.236 C 
ENDROOT
BRANCH  17  21
ATOM     19  O   UNL     1      33.926 -18.878 -23.338  0.00  0.00    -0.270 OA
ATOM     20  N   UNL     1      35.296 -17.280 -22.334  0.00  0.00    -0.297 N 
ATOM     21  C   UNL     1      34.658 -18.507 -22.420  0.00  0.00    +0.251 C 
ATOM     22  H   UNL     1      35.858 -17.101 -21.546  0.00  0.00    +0.150 HD
BRANCH  20  23
ATOM     23  C   UNL     1      35.179 -16.250 -23.342  0.00  0.00    +0.121 C 
BRANCH  23  27
ATOM     24  F   UNL     1      34.804 -15.572 -20.621  0.00  0.00    -0.204 F 
ATOM     25  F   UNL     1      33.735 -14.624 -25.149  0.00  0.00    -0.204 F 
ATOM     26  F   UNL     1      31.841 -12.036 -21.671  0.00  0.00    -0.204 F 
ATOM     27  C   UNL     1      34.291 -15.126 -22.896  0.00  0.00    +0.053 C 
ATOM     28  C   UNL     1      34.149 -14.845 -21.537  0.00  0.00    +0.142 C 
ATOM     29  C   UNL     1      33.605 -14.362 -23.841  0.00  0.00    +0.142 C 
ATOM     30  C   UNL     1      33.321 -13.801 -21.123  0.00  0.00    +0.059 C 
ATOM     31  C   UNL     1      32.779 -13.318 -23.427  0.00  0.00    +0.059 C 
ATOM     32  C   UNL     1      32.636 -13.038 -22.069  0.00  0.00    +0.145 C 
ENDBRANCH  23  27
ENDBRANCH  20  23
ENDBRANCH  17  21
BRANCH  16  33
ATOM     33  O   UNL     1      37.608 -20.472 -18.821  0.00  0.00    -0.502 OA
ATOM     34  H   UNL     1      38.095 -19.687 -18.664  0.00  0.00    +0.292 HD
ENDBRANCH  16  33
TORSDOF 4
ENDMDL
MODEL 8
REMARK VINA RESULT:      -9.3      8.129     11.662
REMARK  Name = 90311989
REMARK  4 active torsions:
REMARK  status: ('A' for Active; 'I' for Inactive)
REMARK    1  A    between atoms: C_16  and  O_33
REMARK    2  A    between atoms: C_17  and  C_21
REMARK    3  A    between atoms: N_20  and  C_23
REMARK    4  A    between atoms: C_23  and  C_27
REMARK                            x       y       z     vdW  Elec       q    Type
REMARK                         _______ _______ _______ _____ _____    ______ ____
ROOT
ATOM      1  O   UNL     1      30.378 -23.839 -15.940  0.00  0.00    -0.339 OA
ATOM      2  O   UNL     1      34.350 -24.466 -13.442  0.00  0.00    -0.268 OA
ATOM      3  O   UNL     1      37.723 -21.921 -16.284  0.00  0.00    -0.283 OA
ATOM      4  N   UNL     1      32.383 -24.065 -14.588  0.00  0.00    -0.253 N 
ATOM      5  N   UNL     1      33.881 -23.121 -16.766  0.00  0.00    -0.275 N 
ATOM      6  C   UNL     1      31.529 -24.585 -13.509  0.00  0.00    +0.080 C 
ATOM      7  C   UNL     1      29.635 -24.254 -14.790  0.00  0.00    +0.119 C 
ATOM      8  C   UNL     1      30.394 -25.389 -14.126  0.00  0.00    +0.049 C 
ATOM      9  C   UNL     1      30.793 -23.428 -12.821  0.00  0.00    +0.022 C 
ATOM     10  C   UNL     1      29.572 -23.160 -13.716  0.00  0.00    +0.031 C 
ATOM     11  C   UNL     1      31.716 -23.374 -15.697  0.00  0.00    +0.215 C 
ATOM     12  C   UNL     1      32.510 -23.574 -16.975  0.00  0.00    +0.147 C 
ATOM     13  C   UNL     1      33.767 -24.001 -14.421  0.00  0.00    +0.267 C 
ATOM     14  C   UNL     1      34.530 -23.328 -15.541  0.00  0.00    +0.143 C 
ATOM     15  C   UNL     1      34.589 -22.538 -17.808  0.00  0.00    +0.074 C 
ATOM     16  C   UNL     1      35.808 -22.950 -15.323  0.00  0.00    +0.191 C 
ATOM     17  C   UNL     1      35.857 -22.118 -17.733  0.00  0.00    +0.110 C 
ATOM     18  C   UNL     1      36.565 -22.294 -16.437  0.00  0.00    +0.236 C 
ENDROOT
BRANCH  17  21
ATOM     19  O   UNL     1      36.924 -22.221 -19.823  0.00  0.00    -0.270 OA
ATOM     20  N   UNL     1      36.470 -20.134 -18.887  0.00  0.00    -0.297 N 
ATOM     21  C   UNL     1      36.470 -21.519 -18.918  0.00  0.00    +0.251 C 
ATOM     22  H   UNL     1      36.076 -19.685 -18.105  0.00  0.00    +0.150 HD
BRANCH  20  23
ATOM     23  C   UNL     1      37.021 -19.314 -19.943  0.00  0.00    +0.121 C 
BRANCH  23  27
ATOM     24  F   UNL     1      37.838 -18.381 -22.486  0.00  0.00    -0.204 F 
ATOM     25  F   UNL     1      34.283 -20.003 -19.790  0.00  0.00    -0.204 F 
ATOM     26  F   UNL     1      33.501 -18.864 -24.314  0.00  0.00    -0.204 F 
ATOM     27  C   UNL     1      36.083 -19.195 -21.109  0.00  0.00    +0.053 C 
ATOM     28  C   UNL     1      36.551 -18.726 -22.336  0.00  0.00    +0.142 C 
ATOM     29  C   UNL     1      34.742 -19.552 -20.965  0.00  0.00    +0.142 C 
ATOM     30  C   UNL     1      35.679 -18.614 -23.419  0.00  0.00    +0.059 C 
ATOM     31  C   UNL     1      33.870 -19.441 -22.047  0.00  0.00    +0.059 C 
ATOM     32  C   UNL     1      34.338 -18.972 -23.274  0.00  0.00    +0.145 C 
ENDBRANCH  23  27
ENDBRANCH  20  23
ENDBRANCH  17  21
BRANCH  16  33
ATOM     33  O   UNL     1      36.471 -23.117 -14.127  0.00  0.00    -0.502 OA
ATOM     34  H   UNL     1      36.061 -23.585 -13.426  0.00  0.00    +0.292 HD
ENDBRANCH  16  33
TORSDOF 4
ENDMDL
MODEL 9
REMARK VINA RESULT:      -9.3      1.377      1.510
REMARK  Name = 90311989
REMARK  4 active torsions:
REMARK  status: ('A' for Active; 'I' for Inactive)
REMARK    1  A    between atoms: C_16  and  O_33
REMARK    2  A    between atoms: C_17  and  C_21
REMARK    3  A    between atoms: N_20  and  C_23
REMARK    4  A    between atoms: C_23  and  C_27
REMARK                            x       y       z     vdW  Elec       q    Type
REMARK                         _______ _______ _______ _____ _____    ______ ____
ROOT
ATOM      1  O   UNL     1      35.511 -17.158 -20.747  0.00  0.00    -0.339 OA
ATOM      2  O   UNL     1      33.169 -17.861 -24.801  0.00  0.00    -0.268 OA
ATOM      3  O   UNL     1      33.176 -13.167 -26.778  0.00  0.00    -0.283 OA
ATOM      4  N   UNL     1      34.416 -17.555 -22.878  0.00  0.00    -0.253 N 
ATOM      5  N   UNL     1      34.154 -14.777 -23.188  0.00  0.00    -0.275 N 
ATOM      6  C   UNL     1      34.560 -18.996 -22.620  0.00  0.00    +0.080 C 
ATOM      7  C   UNL     1      35.694 -18.574 -20.652  0.00  0.00    +0.119 C 
ATOM      8  C   UNL     1      34.416 -19.244 -21.126  0.00  0.00    +0.049 C 
ATOM      9  C   UNL     1      36.003 -19.435 -22.901  0.00  0.00    +0.022 C 
ATOM     10  C   UNL     1      36.771 -19.085 -21.617  0.00  0.00    +0.031 C 
ATOM     11  C   UNL     1      35.219 -16.643 -22.056  0.00  0.00    +0.215 C 
ATOM     12  C   UNL     1      34.478 -15.331 -21.877  0.00  0.00    +0.147 C 
ATOM     13  C   UNL     1      33.753 -17.108 -24.022  0.00  0.00    +0.267 C 
ATOM     14  C   UNL     1      33.780 -15.612 -24.249  0.00  0.00    +0.143 C 
ATOM     15  C   UNL     1      34.144 -13.403 -23.381  0.00  0.00    +0.074 C 
ATOM     16  C   UNL     1      33.443 -15.133 -25.467  0.00  0.00    +0.191 C 
ATOM     17  C   UNL     1      33.831 -12.793 -24.530  0.00  0.00    +0.110 C 
ATOM     18  C   UNL     1      33.460 -13.651 -25.687  0.00  0.00    +0.236 C 
ENDROOT
BRANCH  17  21
ATOM     19  O   UNL     1      33.242 -10.710 -25.443  0.00  0.00    -0.270 OA
ATOM     20  N   UNL     1      34.658 -10.773 -23.590  0.00  0.00    -0.297 N 
ATOM     21  C   UNL     1      33.868 -11.331 -24.582  0.00  0.00    +0.251 C 
ATOM     22  H   UNL     1      35.110 -11.378 -22.959  0.00  0.00    +0.150 HD
BRANCH  20  23
ATOM     23  C   UNL     1      34.853  -9.349 -23.435  0.00  0.00    +0.121 C 
BRANCH  23  27
ATOM     24  F   UNL     1      32.743 -10.560 -21.992  0.00  0.00    -0.204 F 
ATOM     25  F   UNL     1      34.337  -6.681 -24.217  0.00  0.00    -0.204 F 
ATOM     26  F   UNL     1      30.043  -6.682 -22.232  0.00  0.00    -0.204 F 
ATOM     27  C   UNL     1      33.572  -8.638 -23.113  0.00  0.00    +0.053 C 
ATOM     28  C   UNL     1      32.569  -9.294 -22.398  0.00  0.00    +0.142 C 
ATOM     29  C   UNL     1      33.380  -7.320 -23.530  0.00  0.00    +0.142 C 
ATOM     30  C   UNL     1      31.377  -8.633 -22.101  0.00  0.00    +0.059 C 
ATOM     31  C   UNL     1      32.189  -6.659 -23.232  0.00  0.00    +0.059 C 
ATOM     32  C   UNL     1      31.188  -7.316 -22.518  0.00  0.00    +0.145 C 
ENDBRANCH  23  27
ENDBRANCH  20  23
ENDBRANCH  17  21
BRANCH  16  33
ATOM     33  O   UNL     1      33.092 -15.922 -26.540  0.00  0.00    -0.502 OA
ATOM     34  H   UNL     1      33.681 -16.583 -26.847  0.00  0.00    +0.292 HD
ENDBRANCH  16  33
TORSDOF 4
ENDMDL
