MODEL 1
REMARK VINA RESULT:     -11.7      0.000      0.000
REMARK  Name = 11659487
REMARK  5 active torsions:
REMARK  status: ('A' for Active; 'I' for Inactive)
REMARK    1  A    between atoms: C_1  and  C_15
REMARK    2  A    between atoms: C_2  and  C_7
REMARK    3  A    between atoms: C_10  and  O_13
REMARK    4  A    between atoms: C_15  and  C_16
REMARK    5  A    between atoms: C_16  and  C_18
REMARK                            x       y       z     vdW  Elec       q    Type
REMARK                         _______ _______ _______ _____ _____    ______ ____
ROOT
ATOM      1  C   UNL     1      34.452 -20.813 -19.904  0.00  0.00    -0.022 C 
ATOM      2  C   UNL     1      35.136 -19.125 -21.492  0.00  0.00    -0.000 C 
ATOM      3  C   UNL     1      34.133 -19.903 -20.911  0.00  0.00    -0.004 C 
ATOM      4  C   UNL     1      35.774 -20.948 -19.479  0.00  0.00    -0.004 C 
ATOM      5  C   UNL     1      36.457 -19.260 -21.067  0.00  0.00    -0.000 C 
ATOM      6  C   UNL     1      36.777 -20.172 -20.060  0.00  0.00    -0.000 C 
ENDROOT
BRANCH   2   7
ATOM      7  C   UNL     1      34.805 -18.179 -22.535  0.00  0.00    +0.003 C 
ATOM      8  C   UNL     1      35.032 -16.818 -22.340  0.00  0.00    +0.037 C 
ATOM      9  C   UNL     1      34.260 -18.630 -23.737  0.00  0.00    +0.000 C 
ATOM     10  C   UNL     1      34.713 -15.906 -23.346  0.00  0.00    +0.139 C 
ATOM     11  C   UNL     1      33.940 -17.719 -24.743  0.00  0.00    +0.003 C 
ATOM     12  C   UNL     1      34.167 -16.356 -24.548  0.00  0.00    +0.037 C 
BRANCH  10  13
ATOM     13  O   UNL     1      34.934 -14.576 -23.156  0.00  0.00    -0.471 OA
ATOM     14  C   UNL     1      33.803 -13.711 -23.235  0.00  0.00    +0.252 C 
ENDBRANCH  10  13
ENDBRANCH   2   7
BRANCH   1  15
ATOM     15  C   UNL     1      33.381 -21.644 -19.282  0.00  0.00    +0.034 C 
BRANCH  15  16
ATOM     16  C   UNL     1      33.907 -22.725 -18.316  0.00  0.00    +0.064 C 
BRANCH  16  18
ATOM     17  N   UNL     1      31.709 -22.729 -17.297  0.00  0.00    -0.396 NA
ATOM     18  C   UNL     1      33.026 -22.918 -17.104  0.00  0.00    +0.110 C 
ATOM     19  C   UNL     1      33.614 -23.264 -15.908  0.00  0.00    +0.023 C 
ATOM     20  C   UNL     1      32.776 -23.434 -14.811  0.00  0.00    -0.015 C 
ATOM     21  C   UNL     1      30.926 -22.902 -16.210  0.00  0.00    +0.158 C 
ATOM     22  C   UNL     1      31.405 -23.251 -14.957  0.00  0.00    +0.100 C 
ATOM     23  N   UNL     1      29.527 -22.721 -16.342  0.00  0.00    -0.336 N 
ATOM     24  H   UNL     1      29.143 -22.473 -17.213  0.00  0.00    +0.144 HD
ATOM     25  H   UNL     1      28.939 -22.842 -15.561  0.00  0.00    +0.144 HD
ENDBRANCH  16  18
ENDBRANCH  15  16
ENDBRANCH   1  15
TORSDOF 5
ENDMDL
MODEL 2
REMARK VINA RESULT:     -11.0      4.514      8.579
REMARK  Name = 11659487
REMARK  5 active torsions:
REMARK  status: ('A' for Active; 'I' for Inactive)
REMARK    1  A    between atoms: C_1  and  C_15
REMARK    2  A    between atoms: C_2  and  C_7
REMARK    3  A    between atoms: C_10  and  O_13
REMARK    4  A    between atoms: C_15  and  C_16
REMARK    5  A    between atoms: C_16  and  C_18
REMARK                            x       y       z     vdW  Elec       q    Type
REMARK                         _______ _______ _______ _____ _____    ______ ____
ROOT
ATOM      1  C   UNL     1      34.759 -16.658 -22.504  0.00  0.00    -0.022 C 
ATOM      2  C   UNL     1      34.735 -18.971 -21.807  0.00  0.00    -0.000 C 
ATOM      3  C   UNL     1      34.871 -17.617 -21.498  0.00  0.00    -0.004 C 
ATOM      4  C   UNL     1      34.514 -17.052 -23.820  0.00  0.00    -0.004 C 
ATOM      5  C   UNL     1      34.490 -19.365 -23.122  0.00  0.00    -0.000 C 
ATOM      6  C   UNL     1      34.380 -18.406 -24.129  0.00  0.00    -0.000 C 
ENDROOT
BRANCH   2   7
ATOM      7  C   UNL     1      34.849 -19.966 -20.763  0.00  0.00    +0.003 C 
ATOM      8  C   UNL     1      33.702 -20.545 -20.223  0.00  0.00    +0.037 C 
ATOM      9  C   UNL     1      36.107 -20.347 -20.297  0.00  0.00    +0.000 C 
ATOM     10  C   UNL     1      33.812 -21.505 -19.216  0.00  0.00    +0.139 C 
ATOM     11  C   UNL     1      36.218 -21.306 -19.291  0.00  0.00    +0.003 C 
ATOM     12  C   UNL     1      35.070 -21.886 -18.751  0.00  0.00    +0.037 C 
BRANCH  10  13
ATOM     13  O   UNL     1      32.691 -22.070 -18.689  0.00  0.00    -0.471 OA
ATOM     14  C   UNL     1      32.840 -22.791 -17.467  0.00  0.00    +0.252 C 
ENDBRANCH  10  13
ENDBRANCH   2   7
BRANCH   1  15
ATOM     15  C   UNL     1      34.903 -15.210 -22.175  0.00  0.00    +0.034 C 
BRANCH  15  16
ATOM     16  C   UNL     1      33.960 -14.288 -22.974  0.00  0.00    +0.064 C 
BRANCH  16  18
ATOM     17  N   UNL     1      32.935 -12.132 -22.567  0.00  0.00    -0.396 NA
ATOM     18  C   UNL     1      33.138 -13.375 -22.096  0.00  0.00    +0.110 C 
ATOM     19  C   UNL     1      32.662 -13.860 -20.898  0.00  0.00    +0.023 C 
ATOM     20  C   UNL     1      31.908 -12.994 -20.114  0.00  0.00    -0.015 C 
ATOM     21  C   UNL     1      32.200 -11.318 -21.777  0.00  0.00    +0.158 C 
ATOM     22  C   UNL     1      31.668 -11.697 -20.554  0.00  0.00    +0.100 C 
ATOM     23  N   UNL     1      31.945  -9.994 -22.212  0.00  0.00    -0.336 N 
ATOM     24  H   UNL     1      32.303  -9.682 -23.074  0.00  0.00    +0.144 HD
ATOM     25  H   UNL     1      31.411  -9.386 -21.651  0.00  0.00    +0.144 HD
ENDBRANCH  16  18
ENDBRANCH  15  16
ENDBRANCH   1  15
TORSDOF 5
ENDMDL
MODEL 3
REMARK VINA RESULT:     -10.9      4.315      8.598
REMARK  Name = 11659487
REMARK  5 active torsions:
REMARK  status: ('A' for Active; 'I' for Inactive)
REMARK    1  A    between atoms: C_1  and  C_15
REMARK    2  A    between atoms: C_2  and  C_7
REMARK    3  A    between atoms: C_10  and  O_13
REMARK    4  A    between atoms: C_15  and  C_16
REMARK    5  A    between atoms: C_16  and  C_18
REMARK                            x       y       z     vdW  Elec       q    Type
REMARK                         _______ _______ _______ _____ _____    ______ ____
ROOT
ATOM      1  C   UNL     1      35.044 -19.024 -22.298  0.00  0.00    -0.022 C 
ATOM      2  C   UNL     1      35.397 -20.302 -20.279  0.00  0.00    -0.000 C 
ATOM      3  C   UNL     1      34.557 -19.876 -21.308  0.00  0.00    -0.004 C 
ATOM      4  C   UNL     1      36.371 -18.595 -22.259  0.00  0.00    -0.004 C 
ATOM      5  C   UNL     1      36.724 -19.874 -20.239  0.00  0.00    -0.000 C 
ATOM      6  C   UNL     1      37.211 -19.020 -21.229  0.00  0.00    -0.000 C 
ENDROOT
BRANCH   2   7
ATOM      7  C   UNL     1      34.892 -21.187 -19.252  0.00  0.00    +0.003 C 
ATOM      8  C   UNL     1      35.752 -21.680 -18.271  0.00  0.00    +0.037 C 
ATOM      9  C   UNL     1      33.545 -21.548 -19.243  0.00  0.00    +0.000 C 
ATOM     10  C   UNL     1      35.265 -22.534 -17.281  0.00  0.00    +0.139 C 
ATOM     11  C   UNL     1      33.057 -22.401 -18.254  0.00  0.00    +0.003 C 
ATOM     12  C   UNL     1      33.917 -22.894 -17.272  0.00  0.00    +0.037 C 
BRANCH  10  13
ATOM     13  O   UNL     1      36.104 -23.015 -16.323  0.00  0.00    -0.471 OA
ATOM     14  C   UNL     1      37.350 -22.343 -16.154  0.00  0.00    +0.252 C 
ENDBRANCH  10  13
ENDBRANCH   2   7
BRANCH   1  15
ATOM     15  C   UNL     1      34.146 -18.568 -23.399  0.00  0.00    +0.034 C 
BRANCH  15  16
ATOM     16  C   UNL     1      34.801 -17.562 -24.367  0.00  0.00    +0.064 C 
BRANCH  16  18
ATOM     17  N   UNL     1      33.663 -15.578 -25.163  0.00  0.00    -0.396 NA
ATOM     18  C   UNL     1      34.340 -16.141 -24.147  0.00  0.00    +0.110 C 
ATOM     19  C   UNL     1      34.636 -15.527 -22.950  0.00  0.00    +0.023 C 
ATOM     20  C   UNL     1      34.197 -14.218 -22.780  0.00  0.00    -0.015 C 
ATOM     21  C   UNL     1      33.253 -14.307 -24.962  0.00  0.00    +0.158 C 
ATOM     22  C   UNL     1      33.492 -13.589 -23.800  0.00  0.00    +0.100 C 
ATOM     23  N   UNL     1      32.533 -13.651 -25.992  0.00  0.00    -0.336 N 
ATOM     24  H   UNL     1      32.341 -14.123 -26.834  0.00  0.00    +0.144 HD
ATOM     25  H   UNL     1      32.225 -12.724 -25.864  0.00  0.00    +0.144 HD
ENDBRANCH  16  18
ENDBRANCH  15  16
ENDBRANCH   1  15
TORSDOF 5
ENDMDL
MODEL 4
REMARK VINA RESULT:     -10.9      1.031      1.633
REMARK  Name = 11659487
REMARK  5 active torsions:
REMARK  status: ('A' for Active; 'I' for Inactive)
REMARK    1  A    between atoms: C_1  and  C_15
REMARK    2  A    between atoms: C_2  and  C_7
REMARK    3  A    between atoms: C_10  and  O_13
REMARK    4  A    between atoms: C_15  and  C_16
REMARK    5  A    between atoms: C_16  and  C_18
REMARK                            x       y       z     vdW  Elec       q    Type
REMARK                         _______ _______ _______ _____ _____    ______ ____
ROOT
ATOM      1  C   UNL     1      34.450 -20.917 -19.798  0.00  0.00    -0.022 C 
ATOM      2  C   UNL     1      35.212 -19.093 -21.188  0.00  0.00    -0.000 C 
ATOM      3  C   UNL     1      34.174 -19.884 -20.693  0.00  0.00    -0.004 C 
ATOM      4  C   UNL     1      35.765 -21.161 -19.399  0.00  0.00    -0.004 C 
ATOM      5  C   UNL     1      36.526 -19.337 -20.789  0.00  0.00    -0.000 C 
ATOM      6  C   UNL     1      36.802 -20.371 -19.895  0.00  0.00    -0.000 C 
ENDROOT
BRANCH   2   7
ATOM      7  C   UNL     1      34.925 -18.020 -22.115  0.00  0.00    +0.003 C 
ATOM      8  C   UNL     1      34.369 -18.306 -23.362  0.00  0.00    +0.037 C 
ATOM      9  C   UNL     1      35.202 -16.700 -21.762  0.00  0.00    +0.000 C 
ATOM     10  C   UNL     1      34.092 -17.271 -24.256  0.00  0.00    +0.139 C 
ATOM     11  C   UNL     1      34.925 -15.665 -22.654  0.00  0.00    +0.003 C 
ATOM     12  C   UNL     1      34.369 -15.951 -23.902  0.00  0.00    +0.037 C 
BRANCH  10  13
ATOM     13  O   UNL     1      33.549 -17.549 -25.473  0.00  0.00    -0.471 OA
ATOM     14  C   UNL     1      32.317 -16.909 -25.797  0.00  0.00    +0.252 C 
ENDBRANCH  10  13
ENDBRANCH   2   7
BRANCH   1  15
ATOM     15  C   UNL     1      33.342 -21.762 -19.268  0.00  0.00    +0.034 C 
BRANCH  15  16
ATOM     16  C   UNL     1      33.805 -22.867 -18.297  0.00  0.00    +0.064 C 
BRANCH  16  18
ATOM     17  N   UNL     1      31.610 -22.763 -17.276  0.00  0.00    -0.396 NA
ATOM     18  C   UNL     1      32.920 -22.996 -17.080  0.00  0.00    +0.110 C 
ATOM     19  C   UNL     1      33.496 -23.336 -15.876  0.00  0.00    +0.023 C 
ATOM     20  C   UNL     1      32.654 -23.448 -14.775  0.00  0.00    -0.015 C 
ATOM     21  C   UNL     1      30.823 -22.879 -16.185  0.00  0.00    +0.158 C 
ATOM     22  C   UNL     1      31.291 -23.216 -14.924  0.00  0.00    +0.100 C 
ATOM     23  N   UNL     1      29.432 -22.648 -16.319  0.00  0.00    -0.336 N 
ATOM     24  H   UNL     1      29.056 -22.406 -17.196  0.00  0.00    +0.144 HD
ATOM     25  H   UNL     1      28.841 -22.728 -15.535  0.00  0.00    +0.144 HD
ENDBRANCH  16  18
ENDBRANCH  15  16
ENDBRANCH   1  15
TORSDOF 5
ENDMDL
MODEL 5
REMARK VINA RESULT:     -10.9      3.722      8.794
REMARK  Name = 11659487
REMARK  5 active torsions:
REMARK  status: ('A' for Active; 'I' for Inactive)
REMARK    1  A    between atoms: C_1  and  C_15
REMARK    2  A    between atoms: C_2  and  C_7
REMARK    3  A    between atoms: C_10  and  O_13
REMARK    4  A    between atoms: C_15  and  C_16
REMARK    5  A    between atoms: C_16  and  C_18
REMARK                            x       y       z     vdW  Elec       q    Type
REMARK                         _______ _______ _______ _____ _____    ______ ____
ROOT
ATOM      1  C   UNL     1      34.192 -22.572 -17.639  0.00  0.00    -0.022 C 
ATOM      2  C   UNL     1      32.483 -23.204 -16.053  0.00  0.00    -0.000 C 
ATOM      3  C   UNL     1      32.850 -22.798 -17.337  0.00  0.00    -0.004 C 
ATOM      4  C   UNL     1      35.168 -22.749 -16.658  0.00  0.00    -0.004 C 
ATOM      5  C   UNL     1      33.458 -23.382 -15.072  0.00  0.00    -0.000 C 
ATOM      6  C   UNL     1      34.801 -23.154 -15.374  0.00  0.00    -0.000 C 
ENDROOT
BRANCH   2   7
ATOM      7  C   UNL     1      31.091 -23.441 -15.739  0.00  0.00    +0.003 C 
ATOM      8  C   UNL     1      30.104 -22.615 -16.277  0.00  0.00    +0.037 C 
ATOM      9  C   UNL     1      30.735 -24.497 -14.900  0.00  0.00    +0.000 C 
ATOM     10  C   UNL     1      28.762 -22.844 -15.975  0.00  0.00    +0.139 C 
ATOM     11  C   UNL     1      29.393 -24.726 -14.598  0.00  0.00    +0.003 C 
ATOM     12  C   UNL     1      28.406 -23.900 -15.136  0.00  0.00    +0.037 C 
BRANCH  10  13
ATOM     13  O   UNL     1      27.798 -22.038 -16.501  0.00  0.00    -0.471 OA
ATOM     14  C   UNL     1      26.489 -22.144 -15.946  0.00  0.00    +0.252 C 
ENDBRANCH  10  13
ENDBRANCH   2   7
BRANCH   1  15
ATOM     15  C   UNL     1      34.585 -22.139 -19.011  0.00  0.00    +0.034 C 
BRANCH  15  16
ATOM     16  C   UNL     1      33.721 -20.996 -19.580  0.00  0.00    +0.064 C 
BRANCH  16  18
ATOM     17  N   UNL     1      35.728 -19.825 -20.262  0.00  0.00    -0.396 NA
ATOM     18  C   UNL     1      34.457 -20.133 -20.576  0.00  0.00    +0.110 C 
ATOM     19  C   UNL     1      33.797 -19.725 -21.715  0.00  0.00    +0.023 C 
ATOM     20  C   UNL     1      34.504 -18.931 -22.612  0.00  0.00    -0.015 C 
ATOM     21  C   UNL     1      36.383 -19.052 -21.156  0.00  0.00    +0.158 C 
ATOM     22  C   UNL     1      35.822 -18.583 -22.335  0.00  0.00    +0.100 C 
ATOM     23  N   UNL     1      37.726 -18.690 -20.889  0.00  0.00    -0.336 N 
ATOM     24  H   UNL     1      38.164 -18.999 -20.065  0.00  0.00    +0.144 HD
ATOM     25  H   UNL     1      38.221 -18.126 -21.529  0.00  0.00    +0.144 HD
ENDBRANCH  16  18
ENDBRANCH  15  16
ENDBRANCH   1  15
TORSDOF 5
ENDMDL
MODEL 6
REMARK VINA RESULT:     -10.8      3.216      4.524
REMARK  Name = 11659487
REMARK  5 active torsions:
REMARK  status: ('A' for Active; 'I' for Inactive)
REMARK    1  A    between atoms: C_1  and  C_15
REMARK    2  A    between atoms: C_2  and  C_7
REMARK    3  A    between atoms: C_10  and  O_13
REMARK    4  A    between atoms: C_15  and  C_16
REMARK    5  A    between atoms: C_16  and  C_18
REMARK                            x       y       z     vdW  Elec       q    Type
REMARK                         _______ _______ _______ _____ _____    ______ ____
ROOT
ATOM      1  C   UNL     1      35.748 -22.097 -17.570  0.00  0.00    -0.022 C 
ATOM      2  C   UNL     1      35.019 -20.931 -19.556  0.00  0.00    -0.000 C 
ATOM      3  C   UNL     1      36.024 -21.248 -18.641  0.00  0.00    -0.004 C 
ATOM      4  C   UNL     1      34.468 -22.628 -17.413  0.00  0.00    -0.004 C 
ATOM      5  C   UNL     1      33.739 -21.462 -19.399  0.00  0.00    -0.000 C 
ATOM      6  C   UNL     1      33.463 -22.311 -18.327  0.00  0.00    -0.000 C 
ENDROOT
BRANCH   2   7
ATOM      7  C   UNL     1      35.306 -20.051 -20.669  0.00  0.00    +0.003 C 
ATOM      8  C   UNL     1      34.340 -19.829 -21.650  0.00  0.00    +0.037 C 
ATOM      9  C   UNL     1      36.547 -19.423 -20.759  0.00  0.00    +0.000 C 
ATOM     10  C   UNL     1      34.616 -18.981 -22.722  0.00  0.00    +0.139 C 
ATOM     11  C   UNL     1      36.824 -18.574 -21.830  0.00  0.00    +0.003 C 
ATOM     12  C   UNL     1      35.858 -18.353 -22.812  0.00  0.00    +0.037 C 
BRANCH  10  13
ATOM     13  O   UNL     1      33.673 -18.764 -23.680  0.00  0.00    -0.471 OA
ATOM     14  C   UNL     1      33.935 -17.731 -24.628  0.00  0.00    +0.252 C 
ENDBRANCH  10  13
ENDBRANCH   2   7
BRANCH   1  15
ATOM     15  C   UNL     1      36.821 -22.437 -16.592  0.00  0.00    +0.034 C 
BRANCH  15  16
ATOM     16  C   UNL     1      36.346 -22.470 -15.125  0.00  0.00    +0.064 C 
BRANCH  16  18
ATOM     17  N   UNL     1      36.261 -24.890 -15.053  0.00  0.00    -0.396 NA
ATOM     18  C   UNL     1      36.664 -23.770 -14.427  0.00  0.00    +0.110 C 
ATOM     19  C   UNL     1      37.330 -23.728 -13.221  0.00  0.00    +0.023 C 
ATOM     20  C   UNL     1      37.609 -24.943 -12.604  0.00  0.00    -0.015 C 
ATOM     21  C   UNL     1      36.548 -26.050 -14.423  0.00  0.00    +0.158 C 
ATOM     22  C   UNL     1      37.214 -26.130 -13.210  0.00  0.00    +0.100 C 
ATOM     23  N   UNL     1      36.153 -27.269 -15.028  0.00  0.00    -0.336 N 
ATOM     24  H   UNL     1      35.677 -27.260 -15.889  0.00  0.00    +0.144 HD
ATOM     25  H   UNL     1      36.353 -28.126 -14.585  0.00  0.00    +0.144 HD
ENDBRANCH  16  18
ENDBRANCH  15  16
ENDBRANCH   1  15
TORSDOF 5
ENDMDL
MODEL 7
REMARK VINA RESULT:     -10.7      1.623      2.332
REMARK  Name = 11659487
REMARK  5 active torsions:
REMARK  status: ('A' for Active; 'I' for Inactive)
REMARK    1  A    between atoms: C_1  and  C_15
REMARK    2  A    between atoms: C_2  and  C_7
REMARK    3  A    between atoms: C_10  and  O_13
REMARK    4  A    between atoms: C_15  and  C_16
REMARK    5  A    between atoms: C_16  and  C_18
REMARK                            x       y       z     vdW  Elec       q    Type
REMARK                         _______ _______ _______ _____ _____    ______ ____
ROOT
ATOM      1  C   UNL     1      34.425 -20.952 -19.721  0.00  0.00    -0.022 C 
ATOM      2  C   UNL     1      35.208 -19.180 -21.164  0.00  0.00    -0.000 C 
ATOM      3  C   UNL     1      34.159 -19.934 -20.635  0.00  0.00    -0.004 C 
ATOM      4  C   UNL     1      35.739 -21.219 -19.337  0.00  0.00    -0.004 C 
ATOM      5  C   UNL     1      36.522 -19.446 -20.779  0.00  0.00    -0.000 C 
ATOM      6  C   UNL     1      36.788 -20.466 -19.866  0.00  0.00    -0.000 C 
ENDROOT
BRANCH   2   7
ATOM      7  C   UNL     1      34.932 -18.121 -22.111  0.00  0.00    +0.003 C 
ATOM      8  C   UNL     1      34.352 -18.421 -23.343  0.00  0.00    +0.037 C 
ATOM      9  C   UNL     1      35.245 -16.801 -21.791  0.00  0.00    +0.000 C 
ATOM     10  C   UNL     1      34.086 -17.401 -24.256  0.00  0.00    +0.139 C 
ATOM     11  C   UNL     1      34.980 -15.780 -22.703  0.00  0.00    +0.003 C 
ATOM     12  C   UNL     1      34.399 -16.080 -23.936  0.00  0.00    +0.037 C 
BRANCH  10  13
ATOM     13  O   UNL     1      33.519 -17.693 -25.459  0.00  0.00    -0.471 OA
ATOM     14  C   UNL     1      32.272 -17.071 -25.758  0.00  0.00    +0.252 C 
ENDBRANCH  10  13
ENDBRANCH   2   7
BRANCH   1  15
ATOM     15  C   UNL     1      33.305 -21.759 -19.155  0.00  0.00    +0.034 C 
BRANCH  15  16
ATOM     16  C   UNL     1      33.754 -23.074 -18.487  0.00  0.00    +0.064 C 
BRANCH  16  18
ATOM     17  N   UNL     1      34.246 -23.614 -16.178  0.00  0.00    -0.396 NA
ATOM     18  C   UNL     1      33.313 -23.189 -17.048  0.00  0.00    +0.110 C 
ATOM     19  C   UNL     1      32.014 -22.861 -16.725  0.00  0.00    +0.023 C 
ATOM     20  C   UNL     1      31.640 -22.978 -15.390  0.00  0.00    -0.015 C 
ATOM     21  C   UNL     1      33.846 -23.716 -14.892  0.00  0.00    +0.158 C 
ATOM     22  C   UNL     1      32.568 -23.413 -14.450  0.00  0.00    +0.100 C 
ATOM     23  N   UNL     1      34.780 -24.157 -13.921  0.00  0.00    -0.336 N 
ATOM     24  H   UNL     1      35.699 -24.384 -14.190  0.00  0.00    +0.144 HD
ATOM     25  H   UNL     1      34.508 -24.238 -12.978  0.00  0.00    +0.144 HD
ENDBRANCH  16  18
ENDBRANCH  15  16
ENDBRANCH   1  15
TORSDOF 5
ENDMDL
MODEL 8
REMARK VINA RESULT:     -10.7      4.345      9.601
REMARK  Name = 11659487
REMARK  5 active torsions:
REMARK  status: ('A' for Active; 'I' for Inactive)
REMARK    1  A    between atoms: C_1  and  C_15
REMARK    2  A    between atoms: C_2  and  C_7
REMARK    3  A    between atoms: C_10  and  O_13
REMARK    4  A    between atoms: C_15  and  C_16
REMARK    5  A    between atoms: C_16  and  C_18
REMARK                            x       y       z     vdW  Elec       q    Type
REMARK                         _______ _______ _______ _____ _____    ______ ____
ROOT
ATOM      1  C   UNL     1      33.223 -22.873 -17.059  0.00  0.00    -0.022 C 
ATOM      2  C   UNL     1      33.927 -23.585 -14.860  0.00  0.00    -0.000 C 
ATOM      3  C   UNL     1      34.239 -23.231 -16.174  0.00  0.00    -0.004 C 
ATOM      4  C   UNL     1      31.894 -22.871 -16.633  0.00  0.00    -0.004 C 
ATOM      5  C   UNL     1      32.599 -23.582 -14.434  0.00  0.00    -0.000 C 
ATOM      6  C   UNL     1      31.583 -23.225 -15.320  0.00  0.00    -0.000 C 
ENDROOT
BRANCH   2   7
ATOM      7  C   UNL     1      34.981 -23.954 -13.941  0.00  0.00    +0.003 C 
ATOM      8  C   UNL     1      36.308 -23.964 -14.369  0.00  0.00    +0.037 C 
ATOM      9  C   UNL     1      34.671 -24.299 -12.626  0.00  0.00    +0.000 C 
ATOM     10  C   UNL     1      37.325 -24.320 -13.482  0.00  0.00    +0.139 C 
ATOM     11  C   UNL     1      35.686 -24.655 -11.739  0.00  0.00    +0.003 C 
ATOM     12  C   UNL     1      37.014 -24.664 -12.167  0.00  0.00    +0.037 C 
BRANCH  10  13
ATOM     13  O   UNL     1      38.621 -24.329 -13.900  0.00  0.00    -0.471 OA
ATOM     14  C   UNL     1      39.327 -25.564 -13.798  0.00  0.00    +0.252 C 
ENDBRANCH  10  13
ENDBRANCH   2   7
BRANCH   1  15
ATOM     15  C   UNL     1      33.555 -22.494 -18.463  0.00  0.00    +0.034 C 
BRANCH  15  16
ATOM     16  C   UNL     1      34.997 -21.983 -18.651  0.00  0.00    +0.064 C 
BRANCH  16  18
ATOM     17  N   UNL     1      36.338 -20.372 -19.864  0.00  0.00    -0.396 NA
ATOM     18  C   UNL     1      35.112 -20.897 -19.693  0.00  0.00    +0.110 C 
ATOM     19  C   UNL     1      33.981 -20.521 -20.384  0.00  0.00    +0.023 C 
ATOM     20  C   UNL     1      34.121 -19.518 -21.338  0.00  0.00    -0.015 C 
ATOM     21  C   UNL     1      36.435 -19.400 -20.797  0.00  0.00    +0.158 C 
ATOM     22  C   UNL     1      35.367 -18.942 -21.554  0.00  0.00    +0.100 C 
ATOM     23  N   UNL     1      37.699 -18.803 -21.031  0.00  0.00    -0.336 N 
ATOM     24  H   UNL     1      38.484 -19.097 -20.517  0.00  0.00    +0.144 HD
ATOM     25  H   UNL     1      37.790 -18.093 -21.707  0.00  0.00    +0.144 HD
ENDBRANCH  16  18
ENDBRANCH  15  16
ENDBRANCH   1  15
TORSDOF 5
ENDMDL
MODEL 9
REMARK VINA RESULT:     -10.6      2.907      5.610
REMARK  Name = 11659487
REMARK  5 active torsions:
REMARK  status: ('A' for Active; 'I' for Inactive)
REMARK    1  A    between atoms: C_1  and  C_15
REMARK    2  A    between atoms: C_2  and  C_7
REMARK    3  A    between atoms: C_10  and  O_13
REMARK    4  A    between atoms: C_15  and  C_16
REMARK    5  A    between atoms: C_16  and  C_18
REMARK                            x       y       z     vdW  Elec       q    Type
REMARK                         _______ _______ _______ _____ _____    ______ ____
ROOT
ATOM      1  C   UNL     1      34.979 -16.646 -22.479  0.00  0.00    -0.022 C 
ATOM      2  C   UNL     1      33.881 -14.626 -23.220  0.00  0.00    -0.000 C 
ATOM      3  C   UNL     1      34.531 -15.352 -22.220  0.00  0.00    -0.004 C 
ATOM      4  C   UNL     1      34.776 -17.217 -23.736  0.00  0.00    -0.004 C 
ATOM      5  C   UNL     1      33.678 -15.196 -24.476  0.00  0.00    -0.000 C 
ATOM      6  C   UNL     1      34.125 -16.492 -24.734  0.00  0.00    -0.000 C 
ENDROOT
BRANCH   2   7
ATOM      7  C   UNL     1      33.417 -13.282 -22.952  0.00  0.00    +0.003 C 
ATOM      8  C   UNL     1      32.485 -13.054 -21.941  0.00  0.00    +0.037 C 
ATOM      9  C   UNL     1      33.904 -12.214 -23.705  0.00  0.00    +0.000 C 
ATOM     10  C   UNL     1      32.039 -11.758 -21.683  0.00  0.00    +0.139 C 
ATOM     11  C   UNL     1      33.458 -10.918 -23.448  0.00  0.00    +0.003 C 
ATOM     12  C   UNL     1      32.526 -10.689 -22.436  0.00  0.00    +0.037 C 
BRANCH  10  13
ATOM     13  O   UNL     1      31.128 -11.535 -20.695  0.00  0.00    -0.471 OA
ATOM     14  C   UNL     1      31.451 -10.539 -19.726  0.00  0.00    +0.252 C 
ENDBRANCH  10  13
ENDBRANCH   2   7
BRANCH   1  15
ATOM     15  C   UNL     1      35.675 -17.423 -21.412  0.00  0.00    +0.034 C 
BRANCH  15  16
ATOM     16  C   UNL     1      35.837 -18.922 -21.731  0.00  0.00    +0.064 C 
BRANCH  16  18
ATOM     17  N   UNL     1      35.699 -20.552 -19.945  0.00  0.00    -0.396 NA
ATOM     18  C   UNL     1      35.012 -19.813 -20.834  0.00  0.00    +0.110 C 
ATOM     19  C   UNL     1      33.642 -19.814 -20.981  0.00  0.00    +0.023 C 
ATOM     20  C   UNL     1      32.911 -20.646 -20.139  0.00  0.00    -0.015 C 
ATOM     21  C   UNL     1      34.956 -21.348 -19.145  0.00  0.00    +0.158 C 
ATOM     22  C   UNL     1      33.573 -21.430 -19.201  0.00  0.00    +0.100 C 
ATOM     23  N   UNL     1      35.615 -22.153 -18.182  0.00  0.00    -0.336 N 
ATOM     24  H   UNL     1      36.596 -22.126 -18.108  0.00  0.00    +0.144 HD
ATOM     25  H   UNL     1      35.091 -22.740 -17.590  0.00  0.00    +0.144 HD
ENDBRANCH  16  18
ENDBRANCH  15  16
ENDBRANCH   1  15
TORSDOF 5
ENDMDL
