MODEL 1
REMARK VINA RESULT:     -11.6      0.000      0.000
REMARK  Name = 447546
REMARK  10 active torsions:
REMARK  status: ('A' for Active; 'I' for Inactive)
REMARK    1  A    between atoms: N_1  and  C_23
REMARK    2  A    between atoms: C_8  and  N_11
REMARK    3  A    between atoms: N_12  and  C_16
REMARK    4  A    between atoms: C_16  and  C_17
REMARK    5  A    between atoms: C_23  and  C_24
REMARK    6  A    between atoms: C_24  and  C_25
REMARK    7  A    between atoms: C_25  and  N_26
REMARK    8  A    between atoms: C_25  and  C_36
REMARK    9  A    between atoms: C_30  and  C_33
REMARK   10  A    between atoms: C_36  and  O_37
REMARK                            x       y       z     vdW  Elec       q    Type
REMARK                         _______ _______ _______ _____ _____    ______ ____
ROOT
ATOM      1  N   UNL     1      32.388 -24.768 -13.632  0.00  0.00    -0.286 N 
ATOM      2  C   UNL     1      31.923 -24.041 -14.704  0.00  0.00    +0.053 C 
ATOM      3  C   UNL     1      30.540 -23.920 -14.549  0.00  0.00    +0.015 C 
ATOM      4  C   UNL     1      31.350 -25.109 -12.806  0.00  0.00    +0.065 C 
ATOM      5  C   UNL     1      30.194 -24.598 -13.347  0.00  0.00    +0.017 C 
ATOM      6  C   UNL     1      32.614 -23.487 -15.788  0.00  0.00    +0.030 C 
ATOM      7  C   UNL     1      29.808 -23.212 -15.523  0.00  0.00    +0.003 C 
ATOM      8  C   UNL     1      31.866 -22.789 -16.741  0.00  0.00    +0.053 C 
ATOM      9  C   UNL     1      30.485 -22.652 -16.612  0.00  0.00    +0.015 C 
ENDROOT
BRANCH   8  11
ATOM     10  O   UNL     1      34.779 -22.733 -17.460  0.00  0.00    -0.252 OA
ATOM     11  N   UNL     1      32.516 -22.219 -17.837  0.00  0.00    -0.268 N 
ATOM     12  N   UNL     1      34.142 -21.536 -19.333  0.00  0.00    -0.285 N 
ATOM     13  C   UNL     1      33.893 -22.218 -18.136  0.00  0.00    +0.305 C 
ATOM     14  H   UNL     1      31.936 -21.759 -18.487  0.00  0.00    +0.156 HD
ATOM     15  H   UNL     1      33.380 -21.150 -19.820  0.00  0.00    +0.151 HD
BRANCH  12  16
ATOM     16  C   UNL     1      35.467 -21.376 -19.887  0.00  0.00    +0.118 C 
BRANCH  16  17
ATOM     17  C   UNL     1      35.570 -20.153 -20.752  0.00  0.00    -0.003 C 
ATOM     18  C   UNL     1      36.739 -19.395 -20.753  0.00  0.00    -0.003 C 
ATOM     19  C   UNL     1      34.493 -19.775 -21.556  0.00  0.00    -0.003 C 
ATOM     20  C   UNL     1      36.835 -18.259 -21.556  0.00  0.00    -0.000 C 
ATOM     21  C   UNL     1      34.588 -18.639 -22.359  0.00  0.00    -0.000 C 
ATOM     22  C   UNL     1      35.759 -17.881 -22.360  0.00  0.00    -0.000 C 
ENDBRANCH  16  17
ENDBRANCH  12  16
ENDBRANCH   8  11
BRANCH   1  23
ATOM     23  C   UNL     1      33.770 -25.130 -13.396  0.00  0.00    +0.097 C 
BRANCH  23  24
ATOM     24  C   UNL     1      34.513 -24.190 -12.437  0.00  0.00    +0.040 C 
BRANCH  24  25
ATOM     25  C   UNL     1      35.833 -24.751 -11.861  0.00  0.00    +0.091 C 
BRANCH  25  26
ATOM     26  N   UNL     1      36.955 -24.711 -12.814  0.00  0.00    -0.246 NA
ATOM     27  N   UNL     1      38.357 -24.109 -14.427  0.00  0.00    -0.251 NA
ATOM     28  C   UNL     1      37.964 -25.634 -12.930  0.00  0.00    +0.125 C 
ATOM     29  C   UNL     1      37.222 -23.806 -13.729  0.00  0.00    +0.201 C 
ATOM     30  C   UNL     1      38.847 -25.282 -13.925  0.00  0.00    +0.124 C 
BRANCH  30  33
ATOM     31  O   UNL     1      40.435 -25.914 -15.558  0.00  0.00    -0.269 OA
ATOM     32  N   UNL     1      40.771 -26.668 -13.434  0.00  0.00    -0.324 N 
ATOM     33  C   UNL     1      40.022 -25.950 -14.374  0.00  0.00    +0.257 C 
ATOM     34  H   UNL     1      41.587 -27.141 -13.713  0.00  0.00    +0.145 HD
ATOM     35  H   UNL     1      40.479 -26.701 -12.494  0.00  0.00    +0.145 HD
ENDBRANCH  30  33
ENDBRANCH  25  26
BRANCH  25  36
ATOM     36  C   UNL     1      36.208 -24.022 -10.559  0.00  0.00    +0.153 C 
BRANCH  36  37
ATOM     37  O   UNL     1      35.446 -24.548  -9.479  0.00  0.00    -0.381 OA
ATOM     38  H   UNL     1      34.520 -24.642  -9.753  0.00  0.00    +0.210 HD
ENDBRANCH  36  37
ENDBRANCH  25  36
ENDBRANCH  24  25
ENDBRANCH  23  24
ENDBRANCH   1  23
TORSDOF 10
ENDMDL
MODEL 2
REMARK VINA RESULT:     -11.5      7.609     12.292
REMARK  Name = 447546
REMARK  10 active torsions:
REMARK  status: ('A' for Active; 'I' for Inactive)
REMARK    1  A    between atoms: N_1  and  C_23
REMARK    2  A    between atoms: C_8  and  N_11
REMARK    3  A    between atoms: N_12  and  C_16
REMARK    4  A    between atoms: C_16  and  C_17
REMARK    5  A    between atoms: C_23  and  C_24
REMARK    6  A    between atoms: C_24  and  C_25
REMARK    7  A    between atoms: C_25  and  N_26
REMARK    8  A    between atoms: C_25  and  C_36
REMARK    9  A    between atoms: C_30  and  C_33
REMARK   10  A    between atoms: C_36  and  O_37
REMARK                            x       y       z     vdW  Elec       q    Type
REMARK                         _______ _______ _______ _____ _____    ______ ____
ROOT
ATOM      1  N   UNL     1      34.493 -16.263 -23.240  0.00  0.00    -0.286 N 
ATOM      2  C   UNL     1      34.150 -15.053 -23.801  0.00  0.00    +0.053 C 
ATOM      3  C   UNL     1      33.669 -15.319 -25.085  0.00  0.00    +0.015 C 
ATOM      4  C   UNL     1      34.245 -17.281 -24.122  0.00  0.00    +0.065 C 
ATOM      5  C   UNL     1      33.734 -16.727 -25.272  0.00  0.00    +0.017 C 
ATOM      6  C   UNL     1      34.229 -13.758 -23.275  0.00  0.00    +0.030 C 
ATOM      7  C   UNL     1      33.246 -14.240 -25.886  0.00  0.00    +0.003 C 
ATOM      8  C   UNL     1      33.803 -12.705 -24.089  0.00  0.00    +0.053 C 
ATOM      9  C   UNL     1      33.317 -12.939 -25.374  0.00  0.00    +0.015 C 
ENDROOT
BRANCH   8  11
ATOM     10  O   UNL     1      35.393 -10.346 -25.045  0.00  0.00    -0.252 OA
ATOM     11  N   UNL     1      33.862 -11.397 -23.603  0.00  0.00    -0.268 N 
ATOM     12  N   UNL     1      34.404  -9.167 -23.319  0.00  0.00    -0.285 N 
ATOM     13  C   UNL     1      34.626 -10.316 -24.086  0.00  0.00    +0.305 C 
ATOM     14  H   UNL     1      33.295 -11.206 -22.821  0.00  0.00    +0.156 HD
ATOM     15  H   UNL     1      33.774  -9.221 -22.565  0.00  0.00    +0.151 HD
BRANCH  12  16
ATOM     16  C   UNL     1      35.055  -7.905 -23.584  0.00  0.00    +0.118 C 
BRANCH  16  17
ATOM     17  C   UNL     1      34.069  -6.780 -23.712  0.00  0.00    -0.003 C 
ATOM     18  C   UNL     1      33.088  -6.597 -22.739  0.00  0.00    -0.003 C 
ATOM     19  C   UNL     1      34.135  -5.917 -24.807  0.00  0.00    -0.003 C 
ATOM     20  C   UNL     1      32.172  -5.552 -22.860  0.00  0.00    -0.000 C 
ATOM     21  C   UNL     1      33.219  -4.872 -24.927  0.00  0.00    -0.000 C 
ATOM     22  C   UNL     1      32.238  -4.690 -23.953  0.00  0.00    -0.000 C 
ENDBRANCH  16  17
ENDBRANCH  12  16
ENDBRANCH   8  11
BRANCH   1  23
ATOM     23  C   UNL     1      35.038 -16.450 -21.912  0.00  0.00    +0.097 C 
BRANCH  23  24
ATOM     24  C   UNL     1      34.802 -17.848 -21.323  0.00  0.00    +0.040 C 
BRANCH  24  25
ATOM     25  C   UNL     1      36.082 -18.617 -20.926  0.00  0.00    +0.091 C 
BRANCH  25  26
ATOM     26  N   UNL     1      35.815 -19.866 -20.192  0.00  0.00    -0.246 NA
ATOM     27  N   UNL     1      36.034 -21.694 -18.951  0.00  0.00    -0.251 NA
ATOM     28  C   UNL     1      34.611 -20.517 -20.095  0.00  0.00    +0.125 C 
ATOM     29  C   UNL     1      36.651 -20.600 -19.492  0.00  0.00    +0.201 C 
ATOM     30  C   UNL     1      34.722 -21.655 -19.330  0.00  0.00    +0.124 C 
BRANCH  30  33
ATOM     31  O   UNL     1      33.792 -23.827 -19.284  0.00  0.00    -0.269 OA
ATOM     32  N   UNL     1      32.630 -22.177 -18.227  0.00  0.00    -0.324 N 
ATOM     33  C   UNL     1      33.728 -22.613 -18.978  0.00  0.00    +0.257 C 
ATOM     34  H   UNL     1      31.926 -22.813 -17.968  0.00  0.00    +0.145 HD
ATOM     35  H   UNL     1      32.561 -21.231 -17.958  0.00  0.00    +0.145 HD
ENDBRANCH  30  33
ENDBRANCH  25  26
BRANCH  25  36
ATOM     36  C   UNL     1      36.952 -18.896 -22.163  0.00  0.00    +0.153 C 
BRANCH  36  37
ATOM     37  O   UNL     1      38.278 -18.434 -21.930  0.00  0.00    -0.381 OA
ATOM     38  H   UNL     1      38.561 -18.700 -21.041  0.00  0.00    +0.210 HD
ENDBRANCH  36  37
ENDBRANCH  25  36
ENDBRANCH  24  25
ENDBRANCH  23  24
ENDBRANCH   1  23
TORSDOF 10
ENDMDL
MODEL 3
REMARK VINA RESULT:     -11.4      2.641      6.558
REMARK  Name = 447546
REMARK  10 active torsions:
REMARK  status: ('A' for Active; 'I' for Inactive)
REMARK    1  A    between atoms: N_1  and  C_23
REMARK    2  A    between atoms: C_8  and  N_11
REMARK    3  A    between atoms: N_12  and  C_16
REMARK    4  A    between atoms: C_16  and  C_17
REMARK    5  A    between atoms: C_23  and  C_24
REMARK    6  A    between atoms: C_24  and  C_25
REMARK    7  A    between atoms: C_25  and  N_26
REMARK    8  A    between atoms: C_25  and  C_36
REMARK    9  A    between atoms: C_30  and  C_33
REMARK   10  A    between atoms: C_36  and  O_37
REMARK                            x       y       z     vdW  Elec       q    Type
REMARK                         _______ _______ _______ _____ _____    ______ ____
ROOT
ATOM      1  N   UNL     1      35.183 -24.498 -14.197  0.00  0.00    -0.286 N 
ATOM      2  C   UNL     1      35.965 -23.712 -15.014  0.00  0.00    +0.053 C 
ATOM      3  C   UNL     1      37.287 -23.864 -14.585  0.00  0.00    +0.015 C 
ATOM      4  C   UNL     1      35.962 -25.140 -13.272  0.00  0.00    +0.065 C 
ATOM      5  C   UNL     1      37.268 -24.768 -13.487  0.00  0.00    +0.017 C 
ATOM      6  C   UNL     1      35.608 -22.887 -16.086  0.00  0.00    +0.030 C 
ATOM      7  C   UNL     1      38.303 -23.158 -15.260  0.00  0.00    +0.003 C 
ATOM      8  C   UNL     1      36.634 -22.197 -16.739  0.00  0.00    +0.053 C 
ATOM      9  C   UNL     1      37.961 -22.330 -16.335  0.00  0.00    +0.015 C 
ENDROOT
BRANCH   8  11
ATOM     10  O   UNL     1      34.896 -22.690 -19.136  0.00  0.00    -0.252 OA
ATOM     11  N   UNL     1      36.322 -21.365 -17.816  0.00  0.00    -0.268 N 
ATOM     12  N   UNL     1      35.439 -20.538 -19.787  0.00  0.00    -0.285 N 
ATOM     13  C   UNL     1      35.497 -21.639 -18.925  0.00  0.00    +0.305 C 
ATOM     14  H   UNL     1      36.731 -20.470 -17.797  0.00  0.00    +0.156 HD
ATOM     15  H   UNL     1      35.948 -19.730 -19.550  0.00  0.00    +0.151 HD
BRANCH  12  16
ATOM     16  C   UNL     1      34.667 -20.534 -21.008  0.00  0.00    +0.118 C 
BRANCH  16  17
ATOM     17  C   UNL     1      34.756 -19.217 -21.724  0.00  0.00    -0.003 C 
ATOM     18  C   UNL     1      34.415 -19.131 -23.072  0.00  0.00    -0.003 C 
ATOM     19  C   UNL     1      35.179 -18.078 -21.038  0.00  0.00    -0.003 C 
ATOM     20  C   UNL     1      34.497 -17.908 -23.737  0.00  0.00    -0.000 C 
ATOM     21  C   UNL     1      35.262 -16.854 -21.702  0.00  0.00    -0.000 C 
ATOM     22  C   UNL     1      34.920 -16.770 -23.052  0.00  0.00    -0.000 C 
ENDBRANCH  16  17
ENDBRANCH  12  16
ENDBRANCH   8  11
BRANCH   1  23
ATOM     23  C   UNL     1      33.745 -24.636 -14.290  0.00  0.00    +0.097 C 
BRANCH  23  24
ATOM     24  C   UNL     1      32.962 -23.394 -13.845  0.00  0.00    +0.040 C 
BRANCH  24  25
ATOM     25  C   UNL     1      31.452 -23.621 -13.607  0.00  0.00    +0.091 C 
BRANCH  25  26
ATOM     26  N   UNL     1      30.611 -23.237 -14.753  0.00  0.00    -0.246 NA
ATOM     27  N   UNL     1      29.915 -22.550 -16.746  0.00  0.00    -0.251 NA
ATOM     28  C   UNL     1      29.239 -23.262 -14.808  0.00  0.00    +0.125 C 
ATOM     29  C   UNL     1      30.986 -22.804 -15.937  0.00  0.00    +0.201 C 
ATOM     30  C   UNL     1      28.784 -22.839 -16.036  0.00  0.00    +0.124 C 
BRANCH  30  33
ATOM     31  O   UNL     1      27.064 -23.136 -17.630  0.00  0.00    -0.269 OA
ATOM     32  N   UNL     1      26.507 -22.097 -15.680  0.00  0.00    -0.324 N 
ATOM     33  C   UNL     1      27.449 -22.712 -16.514  0.00  0.00    +0.257 C 
ATOM     34  H   UNL     1      25.576 -21.993 -15.981  0.00  0.00    +0.145 HD
ATOM     35  H   UNL     1      26.776 -21.767 -14.791  0.00  0.00    +0.145 HD
ENDBRANCH  30  33
ENDBRANCH  25  26
BRANCH  25  36
ATOM     36  C   UNL     1      31.181 -25.081 -13.207  0.00  0.00    +0.153 C 
BRANCH  36  37
ATOM     37  O   UNL     1      30.372 -25.115 -12.037  0.00  0.00    -0.381 OA
ATOM     38  H   UNL     1      30.340 -26.022 -11.693  0.00  0.00    +0.210 HD
ENDBRANCH  36  37
ENDBRANCH  25  36
ENDBRANCH  24  25
ENDBRANCH  23  24
ENDBRANCH   1  23
TORSDOF 10
ENDMDL
MODEL 4
REMARK VINA RESULT:     -11.3      2.515      4.620
REMARK  Name = 447546
REMARK  10 active torsions:
REMARK  status: ('A' for Active; 'I' for Inactive)
REMARK    1  A    between atoms: N_1  and  C_23
REMARK    2  A    between atoms: C_8  and  N_11
REMARK    3  A    between atoms: N_12  and  C_16
REMARK    4  A    between atoms: C_16  and  C_17
REMARK    5  A    between atoms: C_23  and  C_24
REMARK    6  A    between atoms: C_24  and  C_25
REMARK    7  A    between atoms: C_25  and  N_26
REMARK    8  A    between atoms: C_25  and  C_36
REMARK    9  A    between atoms: C_30  and  C_33
REMARK   10  A    between atoms: C_36  and  O_37
REMARK                            x       y       z     vdW  Elec       q    Type
REMARK                         _______ _______ _______ _____ _____    ______ ____
ROOT
ATOM      1  N   UNL     1      36.227 -23.077 -15.763  0.00  0.00    -0.286 N 
ATOM      2  C   UNL     1      35.632 -22.551 -16.888  0.00  0.00    +0.053 C 
ATOM      3  C   UNL     1      34.312 -23.010 -16.907  0.00  0.00    +0.015 C 
ATOM      4  C   UNL     1      35.331 -23.849 -15.072  0.00  0.00    +0.065 C 
ATOM      5  C   UNL     1      34.138 -23.826 -15.755  0.00  0.00    +0.017 C 
ATOM      6  C   UNL     1      36.155 -21.714 -17.880  0.00  0.00    +0.030 C 
ATOM      7  C   UNL     1      33.473 -22.614 -17.967  0.00  0.00    +0.003 C 
ATOM      8  C   UNL     1      35.303 -21.334 -18.921  0.00  0.00    +0.053 C 
ATOM      9  C   UNL     1      33.982 -21.775 -18.965  0.00  0.00    +0.015 C 
ENDROOT
BRANCH   8  11
ATOM     10  O   UNL     1      33.852 -19.939 -21.147  0.00  0.00    -0.252 OA
ATOM     11  N   UNL     1      35.784 -20.498 -19.929  0.00  0.00    -0.268 N 
ATOM     12  N   UNL     1      35.916 -19.104 -21.770  0.00  0.00    -0.285 N 
ATOM     13  C   UNL     1      35.063 -19.861 -20.958  0.00  0.00    +0.305 C 
ATOM     14  H   UNL     1      36.755 -20.330 -19.919  0.00  0.00    +0.156 HD
ATOM     15  H   UNL     1      36.876 -19.090 -21.556  0.00  0.00    +0.151 HD
BRANCH  12  16
ATOM     16  C   UNL     1      35.452 -18.341 -22.906  0.00  0.00    +0.118 C 
BRANCH  16  17
ATOM     17  C   UNL     1      35.040 -16.951 -22.519  0.00  0.00    -0.003 C 
ATOM     18  C   UNL     1      34.905 -16.612 -21.173  0.00  0.00    -0.003 C 
ATOM     19  C   UNL     1      34.792 -15.997 -23.506  0.00  0.00    -0.003 C 
ATOM     20  C   UNL     1      34.522 -15.319 -20.814  0.00  0.00    -0.000 C 
ATOM     21  C   UNL     1      34.409 -14.704 -23.147  0.00  0.00    -0.000 C 
ATOM     22  C   UNL     1      34.275 -14.366 -21.801  0.00  0.00    -0.000 C 
ENDBRANCH  16  17
ENDBRANCH  12  16
ENDBRANCH   8  11
BRANCH   1  23
ATOM     23  C   UNL     1      37.598 -22.858 -15.356  0.00  0.00    +0.097 C 
BRANCH  23  24
ATOM     24  C   UNL     1      38.495 -24.099 -15.463  0.00  0.00    +0.040 C 
BRANCH  24  25
ATOM     25  C   UNL     1      39.173 -24.533 -14.144  0.00  0.00    +0.091 C 
BRANCH  25  26
ATOM     26  N   UNL     1      38.222 -24.984 -13.114  0.00  0.00    -0.246 NA
ATOM     27  N   UNL     1      36.878 -26.224 -11.855  0.00  0.00    -0.251 NA
ATOM     28  C   UNL     1      37.646 -24.212 -12.136  0.00  0.00    +0.125 C 
ATOM     29  C   UNL     1      37.739 -26.191 -12.916  0.00  0.00    +0.201 C 
ATOM     30  C   UNL     1      36.808 -24.960 -11.343  0.00  0.00    +0.124 C 
BRANCH  30  33
ATOM     31  O   UNL     1      35.079 -25.245  -9.756  0.00  0.00    -0.269 OA
ATOM     32  N   UNL     1      36.326 -23.344  -9.605  0.00  0.00    -0.324 N 
ATOM     33  C   UNL     1      36.019 -24.560 -10.226  0.00  0.00    +0.257 C 
ATOM     34  H   UNL     1      35.800 -23.039  -8.831  0.00  0.00    +0.145 HD
ATOM     35  H   UNL     1      37.069 -22.792  -9.942  0.00  0.00    +0.145 HD
ENDBRANCH  30  33
ENDBRANCH  25  26
BRANCH  25  36
ATOM     36  C   UNL     1      40.230 -25.618 -14.411  0.00  0.00    +0.153 C 
BRANCH  36  37
ATOM     37  O   UNL     1      40.228 -25.958 -15.793  0.00  0.00    -0.381 OA
ATOM     38  H   UNL     1      41.134 -25.914 -16.137  0.00  0.00    +0.210 HD
ENDBRANCH  36  37
ENDBRANCH  25  36
ENDBRANCH  24  25
ENDBRANCH  23  24
ENDBRANCH   1  23
TORSDOF 10
ENDMDL
MODEL 5
REMARK VINA RESULT:     -11.2      9.334     14.015
REMARK  Name = 447546
REMARK  10 active torsions:
REMARK  status: ('A' for Active; 'I' for Inactive)
REMARK    1  A    between atoms: N_1  and  C_23
REMARK    2  A    between atoms: C_8  and  N_11
REMARK    3  A    between atoms: N_12  and  C_16
REMARK    4  A    between atoms: C_16  and  C_17
REMARK    5  A    between atoms: C_23  and  C_24
REMARK    6  A    between atoms: C_24  and  C_25
REMARK    7  A    between atoms: C_25  and  N_26
REMARK    8  A    between atoms: C_25  and  C_36
REMARK    9  A    between atoms: C_30  and  C_33
REMARK   10  A    between atoms: C_36  and  O_37
REMARK                            x       y       z     vdW  Elec       q    Type
REMARK                         _______ _______ _______ _____ _____    ______ ____
ROOT
ATOM      1  N   UNL     1      32.986 -13.419 -21.995  0.00  0.00    -0.286 N 
ATOM      2  C   UNL     1      32.426 -12.209 -21.654  0.00  0.00    +0.053 C 
ATOM      3  C   UNL     1      32.000 -12.313 -20.328  0.00  0.00    +0.015 C 
ATOM      4  C   UNL     1      32.931 -14.282 -20.933  0.00  0.00    +0.065 C 
ATOM      5  C   UNL     1      32.326 -13.625 -19.887  0.00  0.00    +0.017 C 
ATOM      6  C   UNL     1      32.265 -11.042 -22.411  0.00  0.00    +0.030 C 
ATOM      7  C   UNL     1      31.382 -11.199 -19.725  0.00  0.00    +0.003 C 
ATOM      8  C   UNL     1      31.649  -9.951 -21.791  0.00  0.00    +0.053 C 
ATOM      9  C   UNL     1      31.215 -10.025 -20.469  0.00  0.00    +0.015 C 
ENDROOT
BRANCH   8  11
ATOM     10  O   UNL     1      33.022  -7.294 -21.531  0.00  0.00    -0.252 OA
ATOM     11  N   UNL     1      31.471  -8.767 -22.509  0.00  0.00    -0.268 N 
ATOM     12  N   UNL     1      31.672  -6.593 -23.272  0.00  0.00    -0.285 N 
ATOM     13  C   UNL     1      32.142  -7.538 -22.353  0.00  0.00    +0.305 C 
ATOM     14  H   UNL     1      30.789  -8.795 -23.218  0.00  0.00    +0.156 HD
ATOM     15  H   UNL     1      30.964  -6.862 -23.900  0.00  0.00    +0.151 HD
BRANCH  12  16
ATOM     16  C   UNL     1      32.179  -5.242 -23.343  0.00  0.00    +0.118 C 
BRANCH  16  17
ATOM     17  C   UNL     1      33.141  -5.062 -24.481  0.00  0.00    -0.003 C 
ATOM     18  C   UNL     1      34.357  -5.743 -24.481  0.00  0.00    -0.003 C 
ATOM     19  C   UNL     1      32.817  -4.213 -25.540  0.00  0.00    -0.003 C 
ATOM     20  C   UNL     1      35.251  -5.575 -25.538  0.00  0.00    -0.000 C 
ATOM     21  C   UNL     1      33.711  -4.046 -26.598  0.00  0.00    -0.000 C 
ATOM     22  C   UNL     1      34.928  -4.727 -26.597  0.00  0.00    -0.000 C 
ENDBRANCH  16  17
ENDBRANCH  12  16
ENDBRANCH   8  11
BRANCH   1  23
ATOM     23  C   UNL     1      33.556 -13.749 -23.284  0.00  0.00    +0.097 C 
BRANCH  23  24
ATOM     24  C   UNL     1      34.734 -14.732 -23.221  0.00  0.00    +0.040 C 
BRANCH  24  25
ATOM     25  C   UNL     1      34.606 -15.969 -24.138  0.00  0.00    +0.091 C 
BRANCH  25  26
ATOM     26  N   UNL     1      34.765 -17.249 -23.426  0.00  0.00    -0.246 NA
ATOM     27  N   UNL     1      34.678 -19.393 -22.858  0.00  0.00    -0.251 NA
ATOM     28  C   UNL     1      35.412 -17.446 -22.232  0.00  0.00    +0.125 C 
ATOM     29  C   UNL     1      34.335 -18.441 -23.776  0.00  0.00    +0.201 C 
ATOM     30  C   UNL     1      35.372 -18.770 -21.859  0.00  0.00    +0.124 C 
BRANCH  30  33
ATOM     31  O   UNL     1      35.311 -20.290 -20.050  0.00  0.00    -0.269 OA
ATOM     32  N   UNL     1      37.197 -19.034 -20.290  0.00  0.00    -0.324 N 
ATOM     33  C   UNL     1      35.912 -19.404 -20.704  0.00  0.00    +0.257 C 
ATOM     34  H   UNL     1      37.599 -19.453 -19.496  0.00  0.00    +0.145 HD
ATOM     35  H   UNL     1      37.699 -18.352 -20.794  0.00  0.00    +0.145 HD
ENDBRANCH  30  33
ENDBRANCH  25  26
BRANCH  25  36
ATOM     36  C   UNL     1      33.270 -15.942 -24.900  0.00  0.00    +0.153 C 
BRANCH  36  37
ATOM     37  O   UNL     1      33.507 -15.640 -26.271  0.00  0.00    -0.381 OA
ATOM     38  H   UNL     1      33.265 -16.406 -26.815  0.00  0.00    +0.210 HD
ENDBRANCH  36  37
ENDBRANCH  25  36
ENDBRANCH  24  25
ENDBRANCH  23  24
ENDBRANCH   1  23
TORSDOF 10
ENDMDL
MODEL 6
REMARK VINA RESULT:     -11.1      3.870      7.615
REMARK  Name = 447546
REMARK  10 active torsions:
REMARK  status: ('A' for Active; 'I' for Inactive)
REMARK    1  A    between atoms: N_1  and  C_23
REMARK    2  A    between atoms: C_8  and  N_11
REMARK    3  A    between atoms: N_12  and  C_16
REMARK    4  A    between atoms: C_16  and  C_17
REMARK    5  A    between atoms: C_23  and  C_24
REMARK    6  A    between atoms: C_24  and  C_25
REMARK    7  A    between atoms: C_25  and  N_26
REMARK    8  A    between atoms: C_25  and  C_36
REMARK    9  A    between atoms: C_30  and  C_33
REMARK   10  A    between atoms: C_36  and  O_37
REMARK                            x       y       z     vdW  Elec       q    Type
REMARK                         _______ _______ _______ _____ _____    ______ ____
ROOT
ATOM      1  N   UNL     1      34.061 -22.474 -17.442  0.00  0.00    -0.286 N 
ATOM      2  C   UNL     1      34.595 -21.722 -18.464  0.00  0.00    +0.053 C 
ATOM      3  C   UNL     1      35.975 -21.665 -18.254  0.00  0.00    +0.015 C 
ATOM      4  C   UNL     1      35.052 -22.894 -16.597  0.00  0.00    +0.065 C 
ATOM      5  C   UNL     1      36.248 -22.409 -17.073  0.00  0.00    +0.017 C 
ATOM      6  C   UNL     1      33.969 -21.093 -19.547  0.00  0.00    +0.030 C 
ATOM      7  C   UNL     1      36.770 -20.945 -19.168  0.00  0.00    +0.003 C 
ATOM      8  C   UNL     1      34.779 -20.386 -20.440  0.00  0.00    +0.053 C 
ATOM      9  C   UNL     1      36.158 -20.313 -20.256  0.00  0.00    +0.015 C 
ENDROOT
BRANCH   8  11
ATOM     10  O   UNL     1      36.032 -18.816 -22.670  0.00  0.00    -0.252 OA
ATOM     11  N   UNL     1      34.195 -19.747 -21.535  0.00  0.00    -0.268 N 
ATOM     12  N   UNL     1      33.885 -18.533 -23.479  0.00  0.00    -0.285 N 
ATOM     13  C   UNL     1      34.826 -19.018 -22.563  0.00  0.00    +0.305 C 
ATOM     14  H   UNL     1      33.215 -19.815 -21.597  0.00  0.00    +0.156 HD
ATOM     15  H   UNL     1      32.934 -18.736 -23.326  0.00  0.00    +0.151 HD
BRANCH  12  16
ATOM     16  C   UNL     1      34.245 -17.749 -24.638  0.00  0.00    +0.118 C 
BRANCH  16  17
ATOM     17  C   UNL     1      34.038 -16.280 -24.409  0.00  0.00    -0.003 C 
ATOM     18  C   UNL     1      34.511 -15.682 -23.243  0.00  0.00    -0.003 C 
ATOM     19  C   UNL     1      33.371 -15.513 -25.366  0.00  0.00    -0.003 C 
ATOM     20  C   UNL     1      34.319 -14.317 -23.031  0.00  0.00    -0.000 C 
ATOM     21  C   UNL     1      33.179 -14.148 -25.154  0.00  0.00    -0.000 C 
ATOM     22  C   UNL     1      33.653 -13.550 -23.986  0.00  0.00    -0.000 C 
ENDBRANCH  16  17
ENDBRANCH  12  16
ENDBRANCH   8  11
BRANCH   1  23
ATOM     23  C   UNL     1      32.657 -22.785 -17.271  0.00  0.00    +0.097 C 
BRANCH  23  24
ATOM     24  C   UNL     1      32.365 -23.786 -16.145  0.00  0.00    +0.040 C 
BRANCH  24  25
ATOM     25  C   UNL     1      31.550 -23.221 -14.960  0.00  0.00    +0.091 C 
BRANCH  25  26
ATOM     26  N   UNL     1      30.096 -23.400 -15.107  0.00  0.00    -0.246 NA
ATOM     27  N   UNL     1      28.045 -24.249 -15.103  0.00  0.00    -0.251 NA
ATOM     28  C   UNL     1      29.198 -22.466 -15.562  0.00  0.00    +0.125 C 
ATOM     29  C   UNL     1      29.369 -24.462 -14.839  0.00  0.00    +0.201 C 
ATOM     30  C   UNL     1      27.918 -22.971 -15.568  0.00  0.00    +0.124 C 
BRANCH  30  33
ATOM     31  O   UNL     1      25.685 -22.275 -15.225  0.00  0.00    -0.269 OA
ATOM     32  N   UNL     1      26.637 -21.764 -17.232  0.00  0.00    -0.324 N 
ATOM     33  C   UNL     1      26.699 -22.348 -15.960  0.00  0.00    +0.257 C 
ATOM     34  H   UNL     1      25.809 -21.327 -17.532  0.00  0.00    +0.145 HD
ATOM     35  H   UNL     1      27.422 -21.793 -17.825  0.00  0.00    +0.145 HD
ENDBRANCH  30  33
ENDBRANCH  25  26
BRANCH  25  36
ATOM     36  C   UNL     1      32.034 -23.829 -13.633  0.00  0.00    +0.153 C 
BRANCH  36  37
ATOM     37  O   UNL     1      31.949 -22.854 -12.600  0.00  0.00    -0.381 OA
ATOM     38  H   UNL     1      31.115 -22.366 -12.686  0.00  0.00    +0.210 HD
ENDBRANCH  36  37
ENDBRANCH  25  36
ENDBRANCH  24  25
ENDBRANCH  23  24
ENDBRANCH   1  23
TORSDOF 10
ENDMDL
MODEL 7
REMARK VINA RESULT:     -10.8      8.541     14.949
REMARK  Name = 447546
REMARK  10 active torsions:
REMARK  status: ('A' for Active; 'I' for Inactive)
REMARK    1  A    between atoms: N_1  and  C_23
REMARK    2  A    between atoms: C_8  and  N_11
REMARK    3  A    between atoms: N_12  and  C_16
REMARK    4  A    between atoms: C_16  and  C_17
REMARK    5  A    between atoms: C_23  and  C_24
REMARK    6  A    between atoms: C_24  and  C_25
REMARK    7  A    between atoms: C_25  and  N_26
REMARK    8  A    between atoms: C_25  and  C_36
REMARK    9  A    between atoms: C_30  and  C_33
REMARK   10  A    between atoms: C_36  and  O_37
REMARK                            x       y       z     vdW  Elec       q    Type
REMARK                         _______ _______ _______ _____ _____    ______ ____
ROOT
ATOM      1  N   UNL     1      33.679 -12.462 -24.253  0.00  0.00    -0.286 N 
ATOM      2  C   UNL     1      33.921 -13.810 -24.112  0.00  0.00    +0.053 C 
ATOM      3  C   UNL     1      33.592 -14.414 -25.328  0.00  0.00    +0.015 C 
ATOM      4  C   UNL     1      33.211 -12.194 -25.512  0.00  0.00    +0.065 C 
ATOM      5  C   UNL     1      33.147 -13.383 -26.201  0.00  0.00    +0.017 C 
ATOM      6  C   UNL     1      34.400 -14.532 -23.014  0.00  0.00    +0.030 C 
ATOM      7  C   UNL     1      33.749 -15.809 -25.455  0.00  0.00    +0.003 C 
ATOM      8  C   UNL     1      34.546 -15.915 -23.164  0.00  0.00    +0.053 C 
ATOM      9  C   UNL     1      34.228 -16.545 -24.365  0.00  0.00    +0.015 C 
ENDROOT
BRANCH   8  11
ATOM     10  O   UNL     1      35.548 -18.742 -23.078  0.00  0.00    -0.252 OA
ATOM     11  N   UNL     1      35.023 -16.673 -22.094  0.00  0.00    -0.268 N 
ATOM     12  N   UNL     1      35.880 -18.399 -20.816  0.00  0.00    -0.285 N 
ATOM     13  C   UNL     1      35.487 -18.003 -22.099  0.00  0.00    +0.305 C 
ATOM     14  H   UNL     1      35.040 -16.217 -21.221  0.00  0.00    +0.156 HD
ATOM     15  H   UNL     1      35.801 -17.751 -20.080  0.00  0.00    +0.151 HD
BRANCH  12  16
ATOM     16  C   UNL     1      36.398 -19.716 -20.522  0.00  0.00    +0.118 C 
BRANCH  16  17
ATOM     17  C   UNL     1      35.369 -20.589 -19.863  0.00  0.00    -0.003 C 
ATOM     18  C   UNL     1      34.022 -20.452 -20.194  0.00  0.00    -0.003 C 
ATOM     19  C   UNL     1      35.763 -21.540 -18.920  0.00  0.00    -0.003 C 
ATOM     20  C   UNL     1      33.067 -21.264 -19.582  0.00  0.00    -0.000 C 
ATOM     21  C   UNL     1      34.808 -22.352 -18.308  0.00  0.00    -0.000 C 
ATOM     22  C   UNL     1      33.460 -22.214 -18.640  0.00  0.00    -0.000 C 
ENDBRANCH  16  17
ENDBRANCH  12  16
ENDBRANCH   8  11
BRANCH   1  23
ATOM     23  C   UNL     1      33.882 -11.459 -23.229  0.00  0.00    +0.097 C 
BRANCH  23  24
ATOM     24  C   UNL     1      32.733 -10.451 -23.095  0.00  0.00    +0.040 C 
BRANCH  24  25
ATOM     25  C   UNL     1      32.262 -10.182 -21.647  0.00  0.00    +0.091 C 
BRANCH  25  26
ATOM     26  N   UNL     1      32.095  -8.752 -21.339  0.00  0.00    -0.246 NA
ATOM     27  N   UNL     1      32.078  -6.785 -20.309  0.00  0.00    -0.251 NA
ATOM     28  C   UNL     1      31.618  -7.781 -22.184  0.00  0.00    +0.125 C 
ATOM     29  C   UNL     1      32.363  -8.118 -20.218  0.00  0.00    +0.201 C 
ATOM     30  C   UNL     1      31.598  -6.552 -21.567  0.00  0.00    +0.124 C 
BRANCH  30  33
ATOM     31  O   UNL     1      31.538  -4.833 -23.189  0.00  0.00    -0.269 OA
ATOM     32  N   UNL     1      30.308  -4.521 -21.296  0.00  0.00    -0.324 N 
ATOM     33  C   UNL     1      31.182  -5.288 -22.076  0.00  0.00    +0.257 C 
ATOM     34  H   UNL     1      30.002  -3.643 -21.619  0.00  0.00    +0.145 HD
ATOM     35  H   UNL     1      29.999  -4.859 -20.424  0.00  0.00    +0.145 HD
ENDBRANCH  30  33
ENDBRANCH  25  26
BRANCH  25  36
ATOM     36  C   UNL     1      30.964 -10.951 -21.349  0.00  0.00    +0.153 C 
BRANCH  36  37
ATOM     37  O   UNL     1      31.267 -12.312 -21.068  0.00  0.00    -0.381 OA
ATOM     38  H   UNL     1      31.290 -12.446 -20.107  0.00  0.00    +0.210 HD
ENDBRANCH  36  37
ENDBRANCH  25  36
ENDBRANCH  24  25
ENDBRANCH  23  24
ENDBRANCH   1  23
TORSDOF 10
ENDMDL
MODEL 8
REMARK VINA RESULT:     -10.8      7.148     11.740
REMARK  Name = 447546
REMARK  10 active torsions:
REMARK  status: ('A' for Active; 'I' for Inactive)
REMARK    1  A    between atoms: N_1  and  C_23
REMARK    2  A    between atoms: C_8  and  N_11
REMARK    3  A    between atoms: N_12  and  C_16
REMARK    4  A    between atoms: C_16  and  C_17
REMARK    5  A    between atoms: C_23  and  C_24
REMARK    6  A    between atoms: C_24  and  C_25
REMARK    7  A    between atoms: C_25  and  N_26
REMARK    8  A    between atoms: C_25  and  C_36
REMARK    9  A    between atoms: C_30  and  C_33
REMARK   10  A    between atoms: C_36  and  O_37
REMARK                            x       y       z     vdW  Elec       q    Type
REMARK                         _______ _______ _______ _____ _____    ______ ____
ROOT
ATOM      1  N   UNL     1      34.675 -16.601 -23.049  0.00  0.00    -0.286 N 
ATOM      2  C   UNL     1      34.201 -15.436 -23.608  0.00  0.00    +0.053 C 
ATOM      3  C   UNL     1      33.846 -15.729 -24.928  0.00  0.00    +0.015 C 
ATOM      4  C   UNL     1      34.632 -17.617 -23.965  0.00  0.00    +0.065 C 
ATOM      5  C   UNL     1      34.123 -17.108 -25.137  0.00  0.00    +0.017 C 
ATOM      6  C   UNL     1      34.061 -14.158 -23.054  0.00  0.00    +0.030 C 
ATOM      7  C   UNL     1      33.326 -14.698 -25.734  0.00  0.00    +0.003 C 
ATOM      8  C   UNL     1      33.542 -13.152 -23.874  0.00  0.00    +0.053 C 
ATOM      9  C   UNL     1      33.178 -13.416 -25.193  0.00  0.00    +0.015 C 
ENDROOT
BRANCH   8  11
ATOM     10  O   UNL     1      31.707 -12.127 -21.731  0.00  0.00    -0.252 OA
ATOM     11  N   UNL     1      33.383 -11.864 -23.360  0.00  0.00    -0.268 N 
ATOM     12  N   UNL     1      32.653 -10.053 -22.120  0.00  0.00    -0.285 N 
ATOM     13  C   UNL     1      32.505 -11.426 -22.348  0.00  0.00    +0.305 C 
ATOM     14  H   UNL     1      33.961 -11.171 -23.755  0.00  0.00    +0.156 HD
ATOM     15  H   UNL     1      33.314  -9.558 -22.654  0.00  0.00    +0.151 HD
BRANCH  12  16
ATOM     16  C   UNL     1      31.880  -9.330 -21.137  0.00  0.00    +0.118 C 
BRANCH  16  17
ATOM     17  C   UNL     1      31.704  -7.887 -21.511  0.00  0.00    -0.003 C 
ATOM     18  C   UNL     1      31.388  -7.539 -22.823  0.00  0.00    -0.003 C 
ATOM     19  C   UNL     1      31.856  -6.893 -20.543  0.00  0.00    -0.003 C 
ATOM     20  C   UNL     1      31.225  -6.198 -23.170  0.00  0.00    -0.000 C 
ATOM     21  C   UNL     1      31.693  -5.552 -20.890  0.00  0.00    -0.000 C 
ATOM     22  C   UNL     1      31.377  -5.205 -22.203  0.00  0.00    -0.000 C 
ENDBRANCH  16  17
ENDBRANCH  12  16
ENDBRANCH   8  11
BRANCH   1  23
ATOM     23  C   UNL     1      35.155 -16.747 -21.691  0.00  0.00    +0.097 C 
BRANCH  23  24
ATOM     24  C   UNL     1      34.884 -18.125 -21.071  0.00  0.00    +0.040 C 
BRANCH  24  25
ATOM     25  C   UNL     1      36.143 -18.911 -20.643  0.00  0.00    +0.091 C 
BRANCH  25  26
ATOM     26  N   UNL     1      35.841 -20.169 -19.938  0.00  0.00    -0.246 NA
ATOM     27  N   UNL     1      36.013 -22.042 -18.759  0.00  0.00    -0.251 NA
ATOM     28  C   UNL     1      34.611 -20.767 -19.820  0.00  0.00    +0.125 C 
ATOM     29  C   UNL     1      36.663 -20.962 -19.287  0.00  0.00    +0.201 C 
ATOM     30  C   UNL     1      34.693 -21.931 -19.092  0.00  0.00    +0.124 C 
BRANCH  30  33
ATOM     31  O   UNL     1      33.721 -24.083 -18.977  0.00  0.00    -0.269 OA
ATOM     32  N   UNL     1      32.546 -22.360 -18.058  0.00  0.00    -0.324 N 
ATOM     33  C   UNL     1      33.667 -22.853 -18.736  0.00  0.00    +0.257 C 
ATOM     34  H   UNL     1      31.820 -22.971 -17.798  0.00  0.00    +0.145 HD
ATOM     35  H   UNL     1      32.483 -21.401 -17.841  0.00  0.00    +0.145 HD
ENDBRANCH  30  33
ENDBRANCH  25  26
BRANCH  25  36
ATOM     36  C   UNL     1      37.050 -19.180 -21.855  0.00  0.00    +0.153 C 
BRANCH  36  37
ATOM     37  O   UNL     1      38.218 -18.371 -21.768  0.00  0.00    -0.381 OA
ATOM     38  H   UNL     1      38.076 -17.670 -21.113  0.00  0.00    +0.210 HD
ENDBRANCH  36  37
ENDBRANCH  25  36
ENDBRANCH  24  25
ENDBRANCH  23  24
ENDBRANCH   1  23
TORSDOF 10
ENDMDL
MODEL 9
REMARK VINA RESULT:     -10.5      3.968     10.191
REMARK  Name = 447546
REMARK  10 active torsions:
REMARK  status: ('A' for Active; 'I' for Inactive)
REMARK    1  A    between atoms: N_1  and  C_23
REMARK    2  A    between atoms: C_8  and  N_11
REMARK    3  A    between atoms: N_12  and  C_16
REMARK    4  A    between atoms: C_16  and  C_17
REMARK    5  A    between atoms: C_23  and  C_24
REMARK    6  A    between atoms: C_24  and  C_25
REMARK    7  A    between atoms: C_25  and  N_26
REMARK    8  A    between atoms: C_25  and  C_36
REMARK    9  A    between atoms: C_30  and  C_33
REMARK   10  A    between atoms: C_36  and  O_37
REMARK                            x       y       z     vdW  Elec       q    Type
REMARK                         _______ _______ _______ _____ _____    ______ ____
ROOT
ATOM      1  N   UNL     1      35.472 -21.580 -18.948  0.00  0.00    -0.286 N 
ATOM      2  C   UNL     1      34.896 -22.215 -17.870  0.00  0.00    +0.053 C 
ATOM      3  C   UNL     1      35.857 -22.255 -16.857  0.00  0.00    +0.015 C 
ATOM      4  C   UNL     1      36.759 -21.218 -18.651  0.00  0.00    +0.065 C 
ATOM      5  C   UNL     1      37.025 -21.622 -17.364  0.00  0.00    +0.017 C 
ATOM      6  C   UNL     1      33.613 -22.751 -17.717  0.00  0.00    +0.030 C 
ATOM      7  C   UNL     1      35.522 -22.860 -15.629  0.00  0.00    +0.003 C 
ATOM      8  C   UNL     1      33.304 -23.346 -16.490  0.00  0.00    +0.053 C 
ATOM      9  C   UNL     1      34.242 -23.400 -15.461  0.00  0.00    +0.015 C 
ENDROOT
BRANCH   8  11
ATOM     10  O   UNL     1      31.022 -22.397 -14.787  0.00  0.00    -0.252 OA
ATOM     11  N   UNL     1      32.034 -23.891 -16.294  0.00  0.00    -0.268 N 
ATOM     12  N   UNL     1      29.870 -24.246 -15.560  0.00  0.00    -0.285 N 
ATOM     13  C   UNL     1      30.989 -23.409 -15.482  0.00  0.00    +0.305 C 
ATOM     14  H   UNL     1      31.843 -24.721 -16.790  0.00  0.00    +0.156 HD
ATOM     15  H   UNL     1      29.918 -25.040 -16.139  0.00  0.00    +0.151 HD
BRANCH  12  16
ATOM     16  C   UNL     1      28.648 -23.998 -14.831  0.00  0.00    +0.118 C 
BRANCH  16  17
ATOM     17  C   UNL     1      27.690 -23.146 -15.613  0.00  0.00    -0.003 C 
ATOM     18  C   UNL     1      26.712 -22.408 -14.950  0.00  0.00    -0.003 C 
ATOM     19  C   UNL     1      27.781 -23.093 -17.004  0.00  0.00    -0.003 C 
ATOM     20  C   UNL     1      25.822 -21.616 -15.676  0.00  0.00    -0.000 C 
ATOM     21  C   UNL     1      26.891 -22.301 -17.731  0.00  0.00    -0.000 C 
ATOM     22  C   UNL     1      25.912 -21.563 -17.067  0.00  0.00    -0.000 C 
ENDBRANCH  16  17
ENDBRANCH  12  16
ENDBRANCH   8  11
BRANCH   1  23
ATOM     23  C   UNL     1      34.825 -21.325 -20.218  0.00  0.00    +0.097 C 
BRANCH  23  24
ATOM     24  C   UNL     1      34.687 -19.837 -20.568  0.00  0.00    +0.040 C 
BRANCH  24  25
ATOM     25  C   UNL     1      35.615 -19.340 -21.699  0.00  0.00    +0.091 C 
BRANCH  25  26
ATOM     26  N   UNL     1      34.897 -18.678 -22.802  0.00  0.00    -0.246 NA
ATOM     27  N   UNL     1      33.625 -18.279 -24.576  0.00  0.00    -0.251 NA
ATOM     28  C   UNL     1      34.904 -17.337 -23.095  0.00  0.00    +0.125 C 
ATOM     29  C   UNL     1      34.117 -19.216 -23.713  0.00  0.00    +0.201 C 
ATOM     30  C   UNL     1      34.121 -17.065 -24.193  0.00  0.00    +0.124 C 
BRANCH  30  33
ATOM     31  O   UNL     1      33.769 -15.677 -26.073  0.00  0.00    -0.269 OA
ATOM     32  N   UNL     1      33.643 -14.698 -24.020  0.00  0.00    -0.324 N 
ATOM     33  C   UNL     1      33.851 -15.820 -24.830  0.00  0.00    +0.257 C 
ATOM     34  H   UNL     1      33.455 -13.823 -24.429  0.00  0.00    +0.145 HD
ATOM     35  H   UNL     1      33.686 -14.783 -23.039  0.00  0.00    +0.145 HD
ENDBRANCH  30  33
ENDBRANCH  25  26
BRANCH  25  36
ATOM     36  C   UNL     1      36.706 -18.413 -21.135  0.00  0.00    +0.153 C 
BRANCH  36  37
ATOM     37  O   UNL     1      37.920 -18.614 -21.850  0.00  0.00    -0.381 OA
ATOM     38  H   UNL     1      38.160 -17.797 -22.314  0.00  0.00    +0.210 HD
ENDBRANCH  36  37
ENDBRANCH  25  36
ENDBRANCH  24  25
ENDBRANCH  23  24
ENDBRANCH   1  23
TORSDOF 10
ENDMDL
