MODEL 1
REMARK VINA RESULT:     -11.5      0.000      0.000
REMARK  Name = 11610526
REMARK  3 active torsions:
REMARK  status: ('A' for Active; 'I' for Inactive)
REMARK    1  A    between atoms: C_2  and  C_21
REMARK    2  A    between atoms: C_9  and  C_14
REMARK    3  A    between atoms: C_21  and  C_23
REMARK                            x       y       z     vdW  Elec       q    Type
REMARK                         _______ _______ _______ _____ _____    ______ ____
ROOT
ATOM      1  N   UNL     1      34.328 -21.225 -19.713  0.00  0.00    -0.388 NA
ATOM      2  C   UNL     1      34.797 -21.992 -18.725  0.00  0.00    +0.167 C 
ATOM      3  C   UNL     1      36.059 -21.968 -18.198  0.00  0.00    +0.031 C 
ATOM      4  C   UNL     1      35.218 -20.347 -20.225  0.00  0.00    +0.167 C 
ATOM      5  C   UNL     1      36.946 -21.051 -18.750  0.00  0.00    -0.015 C 
ATOM      6  C   UNL     1      36.525 -20.221 -19.784  0.00  0.00    +0.101 C 
ATOM      7  O   UNL     1      36.727 -18.236 -21.728  0.00  0.00    -0.270 OA
ATOM      8  N   UNL     1      34.804 -19.505 -21.265  0.00  0.00    -0.259 N 
ATOM      9  C   UNL     1      35.554 -18.534 -21.933  0.00  0.00    +0.255 C 
ATOM     10  H   UNL     1      33.871 -19.612 -21.562  0.00  0.00    +0.157 HD
ENDROOT
BRANCH   9  14
ATOM     11  F   UNL     1      35.166 -15.761 -21.776  0.00  0.00    -0.204 F 
ATOM     12  F   UNL     1      34.471 -19.789 -24.196  0.00  0.00    -0.204 F 
ATOM     13  F   UNL     1      32.801 -15.693 -25.873  0.00  0.00    -0.204 F 
ATOM     14  C   UNL     1      34.822 -17.778 -22.982  0.00  0.00    +0.109 C 
ATOM     15  C   UNL     1      34.670 -16.414 -22.836  0.00  0.00    +0.149 C 
ATOM     16  C   UNL     1      34.317 -18.463 -24.066  0.00  0.00    +0.149 C 
ATOM     17  C   UNL     1      33.982 -15.705 -23.821  0.00  0.00    +0.060 C 
ATOM     18  C   UNL     1      33.628 -17.753 -25.050  0.00  0.00    +0.060 C 
ATOM     19  C   UNL     1      33.460 -16.374 -24.927  0.00  0.00    +0.145 C 
ENDBRANCH   9  14
BRANCH   2  21
ATOM     20  O   UNL     1      33.440 -23.918 -18.845  0.00  0.00    -0.289 OA
ATOM     21  C   UNL     1      33.804 -22.955 -18.173  0.00  0.00    +0.202 C 
BRANCH  21  23
ATOM     22  N   UNL     1      31.914 -23.863 -14.459  0.00  0.00    +0.386 N 
ATOM     23  C   UNL     1      33.261 -22.732 -16.795  0.00  0.00    +0.060 C 
ATOM     24  C   UNL     1      33.978 -23.652 -15.807  0.00  0.00    -0.015 C 
ATOM     25  C   UNL     1      31.757 -22.994 -16.770  0.00  0.00    -0.015 C 
ATOM     26  C   UNL     1      33.352 -23.565 -14.414  0.00  0.00    -0.077 C 
ATOM     27  C   UNL     1      31.206 -22.928 -15.345  0.00  0.00    -0.077 C 
ATOM     28  C   UNL     1      31.341 -23.827 -13.114  0.00  0.00    -0.101 C 
ATOM     29  H   UNL     1      31.799 -24.804 -14.839  0.00  0.00    -0.080 HD
ENDBRANCH  21  23
ENDBRANCH   2  21
TORSDOF 3
ENDMDL
MODEL 2
REMARK VINA RESULT:     -11.5      0.018      1.593
REMARK  Name = 11610526
REMARK  3 active torsions:
REMARK  status: ('A' for Active; 'I' for Inactive)
REMARK    1  A    between atoms: C_2  and  C_21
REMARK    2  A    between atoms: C_9  and  C_14
REMARK    3  A    between atoms: C_21  and  C_23
REMARK                            x       y       z     vdW  Elec       q    Type
REMARK                         _______ _______ _______ _____ _____    ______ ____
ROOT
ATOM      1  N   UNL     1      34.336 -21.222 -19.725  0.00  0.00    -0.388 NA
ATOM      2  C   UNL     1      34.807 -21.988 -18.738  0.00  0.00    +0.167 C 
ATOM      3  C   UNL     1      36.069 -21.962 -18.211  0.00  0.00    +0.031 C 
ATOM      4  C   UNL     1      35.225 -20.341 -20.237  0.00  0.00    +0.167 C 
ATOM      5  C   UNL     1      36.955 -21.043 -18.763  0.00  0.00    -0.015 C 
ATOM      6  C   UNL     1      36.532 -20.213 -19.796  0.00  0.00    +0.101 C 
ATOM      7  O   UNL     1      36.730 -18.227 -21.739  0.00  0.00    -0.270 OA
ATOM      8  N   UNL     1      34.809 -19.500 -21.276  0.00  0.00    -0.259 N 
ATOM      9  C   UNL     1      35.558 -18.527 -21.944  0.00  0.00    +0.255 C 
ATOM     10  H   UNL     1      33.877 -19.609 -21.574  0.00  0.00    +0.157 HD
ENDROOT
BRANCH   9  14
ATOM     11  F   UNL     1      34.472 -19.783 -24.204  0.00  0.00    -0.204 F 
ATOM     12  F   UNL     1      35.170 -15.753 -21.789  0.00  0.00    -0.204 F 
ATOM     13  F   UNL     1      32.801 -15.688 -25.883  0.00  0.00    -0.204 F 
ATOM     14  C   UNL     1      34.824 -17.771 -22.992  0.00  0.00    +0.109 C 
ATOM     15  C   UNL     1      34.317 -18.458 -24.077  0.00  0.00    +0.149 C 
ATOM     16  C   UNL     1      34.673 -16.408 -22.848  0.00  0.00    +0.149 C 
ATOM     17  C   UNL     1      33.629 -17.748 -25.060  0.00  0.00    +0.060 C 
ATOM     18  C   UNL     1      33.984 -15.699 -23.833  0.00  0.00    +0.060 C 
ATOM     19  C   UNL     1      33.462 -16.369 -24.939  0.00  0.00    +0.145 C 
ENDBRANCH   9  14
BRANCH   2  21
ATOM     20  O   UNL     1      33.450 -23.913 -18.861  0.00  0.00    -0.289 OA
ATOM     21  C   UNL     1      33.816 -22.954 -18.186  0.00  0.00    +0.202 C 
BRANCH  21  23
ATOM     22  N   UNL     1      31.929 -23.874 -14.475  0.00  0.00    +0.386 N 
ATOM     23  C   UNL     1      33.278 -22.736 -16.806  0.00  0.00    +0.060 C 
ATOM     24  C   UNL     1      33.991 -23.668 -15.826  0.00  0.00    -0.015 C 
ATOM     25  C   UNL     1      31.772 -22.988 -16.779  0.00  0.00    -0.015 C 
ATOM     26  C   UNL     1      33.368 -23.586 -14.430  0.00  0.00    -0.077 C 
ATOM     27  C   UNL     1      31.225 -22.928 -15.352  0.00  0.00    -0.077 C 
ATOM     28  C   UNL     1      31.360 -23.843 -13.127  0.00  0.00    -0.101 C 
ATOM     29  H   UNL     1      31.806 -24.811 -14.860  0.00  0.00    -0.080 HD
ENDBRANCH  21  23
ENDBRANCH   2  21
TORSDOF 3
ENDMDL
MODEL 3
REMARK VINA RESULT:     -11.2      3.454      5.981
REMARK  Name = 11610526
REMARK  3 active torsions:
REMARK  status: ('A' for Active; 'I' for Inactive)
REMARK    1  A    between atoms: C_2  and  C_21
REMARK    2  A    between atoms: C_9  and  C_14
REMARK    3  A    between atoms: C_21  and  C_23
REMARK                            x       y       z     vdW  Elec       q    Type
REMARK                         _______ _______ _______ _____ _____    ______ ____
ROOT
ATOM      1  N   UNL     1      34.934 -16.844 -21.986  0.00  0.00    -0.388 NA
ATOM      2  C   UNL     1      35.246 -18.115 -22.252  0.00  0.00    +0.167 C 
ATOM      3  C   UNL     1      35.063 -18.773 -23.437  0.00  0.00    +0.031 C 
ATOM      4  C   UNL     1      34.380 -16.165 -23.015  0.00  0.00    +0.167 C 
ATOM      5  C   UNL     1      34.491 -18.041 -24.473  0.00  0.00    -0.015 C 
ATOM      6  C   UNL     1      34.141 -16.712 -24.265  0.00  0.00    +0.101 C 
ATOM      7  O   UNL     1      33.137 -14.191 -24.899  0.00  0.00    -0.270 OA
ATOM      8  N   UNL     1      34.025 -14.826 -22.817  0.00  0.00    -0.259 N 
ATOM      9  C   UNL     1      33.444 -13.947 -23.736  0.00  0.00    +0.255 C 
ATOM     10  H   UNL     1      34.204 -14.459 -21.921  0.00  0.00    +0.157 HD
ENDROOT
BRANCH   9  14
ATOM     11  F   UNL     1      31.864 -13.433 -21.476  0.00  0.00    -0.204 F 
ATOM     12  F   UNL     1      34.550 -11.693 -24.987  0.00  0.00    -0.204 F 
ATOM     13  F   UNL     1      32.557  -8.768 -21.848  0.00  0.00    -0.204 F 
ATOM     14  C   UNL     1      33.208 -12.569 -23.233  0.00  0.00    +0.109 C 
ATOM     15  C   UNL     1      32.419 -12.394 -22.115  0.00  0.00    +0.149 C 
ATOM     16  C   UNL     1      33.785 -11.509 -23.901  0.00  0.00    +0.149 C 
ATOM     17  C   UNL     1      32.198 -11.099 -21.644  0.00  0.00    +0.060 C 
ATOM     18  C   UNL     1      33.562 -10.215 -23.429  0.00  0.00    +0.060 C 
ATOM     19  C   UNL     1      32.769 -10.010 -22.301  0.00  0.00    +0.145 C 
ENDBRANCH   9  14
BRANCH   2  21
ATOM     20  O   UNL     1      36.812 -18.370 -20.507  0.00  0.00    -0.289 OA
ATOM     21  C   UNL     1      35.854 -18.850 -21.108  0.00  0.00    +0.202 C 
BRANCH  21  23
ATOM     22  N   UNL     1      34.074 -21.804 -18.599  0.00  0.00    +0.386 N 
ATOM     23  C   UNL     1      35.280 -20.173 -20.706  0.00  0.00    +0.060 C 
ATOM     24  C   UNL     1      33.829 -19.989 -20.263  0.00  0.00    -0.015 C 
ATOM     25  C   UNL     1      36.107 -20.787 -19.577  0.00  0.00    -0.015 C 
ATOM     26  C   UNL     1      33.251 -21.291 -19.702  0.00  0.00    -0.077 C 
ATOM     27  C   UNL     1      35.452 -22.061 -19.040  0.00  0.00    -0.077 C 
ATOM     28  C   UNL     1      33.481 -23.018 -18.040  0.00  0.00    -0.101 C 
ATOM     29  H   UNL     1      34.106 -21.089 -17.870  0.00  0.00    -0.080 HD
ENDBRANCH  21  23
ENDBRANCH   2  21
TORSDOF 3
ENDMDL
MODEL 4
REMARK VINA RESULT:     -10.8      4.732     10.006
REMARK  Name = 11610526
REMARK  3 active torsions:
REMARK  status: ('A' for Active; 'I' for Inactive)
REMARK    1  A    between atoms: C_2  and  C_21
REMARK    2  A    between atoms: C_9  and  C_14
REMARK    3  A    between atoms: C_21  and  C_23
REMARK                            x       y       z     vdW  Elec       q    Type
REMARK                         _______ _______ _______ _____ _____    ______ ____
ROOT
ATOM      1  N   UNL     1      35.555 -21.708 -18.395  0.00  0.00    -0.388 NA
ATOM      2  C   UNL     1      34.843 -21.096 -19.345  0.00  0.00    +0.167 C 
ATOM      3  C   UNL     1      33.488 -21.155 -19.520  0.00  0.00    +0.031 C 
ATOM      4  C   UNL     1      34.831 -22.456 -17.533  0.00  0.00    +0.167 C 
ATOM      5  C   UNL     1      32.778 -21.934 -18.613  0.00  0.00    -0.015 C 
ATOM      6  C   UNL     1      33.455 -22.600 -17.597  0.00  0.00    +0.101 C 
ATOM      7  O   UNL     1      33.772 -24.232 -15.362  0.00  0.00    -0.270 OA
ATOM      8  N   UNL     1      35.504 -23.129 -16.506  0.00  0.00    -0.259 N 
ATOM      9  C   UNL     1      34.956 -23.950 -15.516  0.00  0.00    +0.255 C 
ATOM     10  H   UNL     1      36.481 -23.013 -16.480  0.00  0.00    +0.157 HD
ENDROOT
BRANCH   9  14
ATOM     11  F   UNL     1      35.783 -26.628 -15.595  0.00  0.00    -0.204 F 
ATOM     12  F   UNL     1      36.087 -22.386 -13.480  0.00  0.00    -0.204 F 
ATOM     13  F   UNL     1      38.620 -26.036 -11.856  0.00  0.00    -0.204 F 
ATOM     14  C   UNL     1      35.931 -24.505 -14.542  0.00  0.00    +0.109 C 
ATOM     15  C   UNL     1      36.291 -25.833 -14.643  0.00  0.00    +0.149 C 
ATOM     16  C   UNL     1      36.445 -23.675 -13.568  0.00  0.00    +0.149 C 
ATOM     17  C   UNL     1      37.206 -26.354 -13.728  0.00  0.00    +0.060 C 
ATOM     18  C   UNL     1      37.360 -24.197 -12.653  0.00  0.00    +0.060 C 
ATOM     19  C   UNL     1      37.741 -25.537 -12.733  0.00  0.00    +0.145 C 
ENDBRANCH   9  14
BRANCH   2  21
ATOM     20  O   UNL     1      36.872 -20.437 -20.352  0.00  0.00    -0.289 OA
ATOM     21  C   UNL     1      35.656 -20.277 -20.288  0.00  0.00    +0.202 C 
BRANCH  21  23
ATOM     22  N   UNL     1      35.163 -17.377 -23.375  0.00  0.00    +0.386 N 
ATOM     23  C   UNL     1      34.968 -19.263 -21.149  0.00  0.00    +0.060 C 
ATOM     24  C   UNL     1      35.001 -19.723 -22.607  0.00  0.00    -0.015 C 
ATOM     25  C   UNL     1      35.646 -17.901 -21.006  0.00  0.00    -0.015 C 
ATOM     26  C   UNL     1      34.443 -18.646 -23.540  0.00  0.00    -0.077 C 
ATOM     27  C   UNL     1      35.065 -16.887 -21.993  0.00  0.00    -0.077 C 
ATOM     28  C   UNL     1      34.653 -16.374 -24.310  0.00  0.00    -0.101 C 
ATOM     29  H   UNL     1      36.148 -17.544 -23.580  0.00  0.00    -0.080 HD
ENDBRANCH  21  23
ENDBRANCH   2  21
TORSDOF 3
ENDMDL
MODEL 5
REMARK VINA RESULT:     -10.7      4.358      9.299
REMARK  Name = 11610526
REMARK  3 active torsions:
REMARK  status: ('A' for Active; 'I' for Inactive)
REMARK    1  A    between atoms: C_2  and  C_21
REMARK    2  A    between atoms: C_9  and  C_14
REMARK    3  A    between atoms: C_21  and  C_23
REMARK                            x       y       z     vdW  Elec       q    Type
REMARK                         _______ _______ _______ _____ _____    ______ ____
ROOT
ATOM      1  N   UNL     1      34.125 -14.818 -23.148  0.00  0.00    -0.388 NA
ATOM      2  C   UNL     1      33.674 -13.955 -24.063  0.00  0.00    +0.167 C 
ATOM      3  C   UNL     1      33.260 -14.249 -25.333  0.00  0.00    +0.031 C 
ATOM      4  C   UNL     1      34.166 -16.107 -23.552  0.00  0.00    +0.167 C 
ATOM      5  C   UNL     1      33.316 -15.586 -25.711  0.00  0.00    -0.015 C 
ATOM      6  C   UNL     1      33.776 -16.539 -24.809  0.00  0.00    +0.101 C 
ATOM      7  O   UNL     1      34.473 -19.072 -23.881  0.00  0.00    -0.270 OA
ATOM      8  N   UNL     1      34.627 -17.075 -22.651  0.00  0.00    -0.259 N 
ATOM      9  C   UNL     1      34.751 -18.452 -22.860  0.00  0.00    +0.255 C 
ATOM     10  H   UNL     1      34.898 -16.746 -21.764  0.00  0.00    +0.157 HD
ENDROOT
BRANCH   9  14
ATOM     11  F   UNL     1      37.428 -18.347 -22.032  0.00  0.00    -0.204 F 
ATOM     12  F   UNL     1      33.072 -20.113 -21.346  0.00  0.00    -0.204 F 
ATOM     13  F   UNL     1      36.620 -21.365 -18.479  0.00  0.00    -0.204 F 
ATOM     14  C   UNL     1      35.248 -19.227 -21.694  0.00  0.00    +0.109 C 
ATOM     15  C   UNL     1      36.579 -19.125 -21.346  0.00  0.00    +0.149 C 
ATOM     16  C   UNL     1      34.363 -20.023 -20.997  0.00  0.00    +0.149 C 
ATOM     17  C   UNL     1      37.046 -19.854 -20.251  0.00  0.00    +0.060 C 
ATOM     18  C   UNL     1      34.831 -20.752 -19.903  0.00  0.00    +0.060 C 
ATOM     19  C   UNL     1      36.173 -20.667 -19.530  0.00  0.00    +0.145 C 
ENDBRANCH   9  14
BRANCH   2  21
ATOM     20  O   UNL     1      34.476 -11.738 -24.008  0.00  0.00    -0.289 OA
ATOM     21  C   UNL     1      33.637 -12.539 -23.603  0.00  0.00    +0.202 C 
BRANCH  21  23
ATOM     22  N   UNL     1      31.894 -10.788 -20.127  0.00  0.00    +0.386 N 
ATOM     23  C   UNL     1      32.567 -12.112 -22.646  0.00  0.00    +0.060 C 
ATOM     24  C   UNL     1      32.595 -10.592 -22.492  0.00  0.00    -0.015 C 
ATOM     25  C   UNL     1      32.771 -12.787 -21.291  0.00  0.00    -0.015 C 
ATOM     26  C   UNL     1      31.618 -10.126 -21.410  0.00  0.00    -0.077 C 
ATOM     27  C   UNL     1      31.788 -12.248 -20.250  0.00  0.00    -0.077 C 
ATOM     28  C   UNL     1      30.987 -10.294 -19.092  0.00  0.00    -0.101 C 
ATOM     29  H   UNL     1      32.852 -10.564 -19.857  0.00  0.00    -0.080 HD
ENDBRANCH  21  23
ENDBRANCH   2  21
TORSDOF 3
ENDMDL
MODEL 6
REMARK VINA RESULT:     -10.5      3.643      6.138
REMARK  Name = 11610526
REMARK  3 active torsions:
REMARK  status: ('A' for Active; 'I' for Inactive)
REMARK    1  A    between atoms: C_2  and  C_21
REMARK    2  A    between atoms: C_9  and  C_14
REMARK    3  A    between atoms: C_21  and  C_23
REMARK                            x       y       z     vdW  Elec       q    Type
REMARK                         _______ _______ _______ _____ _____    ______ ____
ROOT
ATOM      1  N   UNL     1      34.499 -23.387 -14.835  0.00  0.00    -0.388 NA
ATOM      2  C   UNL     1      33.960 -24.109 -13.849  0.00  0.00    +0.167 C 
ATOM      3  C   UNL     1      32.705 -24.654 -13.823  0.00  0.00    +0.031 C 
ATOM      4  C   UNL     1      33.695 -23.191 -15.903  0.00  0.00    +0.167 C 
ATOM      5  C   UNL     1      31.908 -24.431 -14.940  0.00  0.00    -0.015 C 
ATOM      6  C   UNL     1      32.405 -23.687 -16.005  0.00  0.00    +0.101 C 
ATOM      7  O   UNL     1      32.391 -22.443 -18.497  0.00  0.00    -0.270 OA
ATOM      8  N   UNL     1      34.186 -22.444 -16.980  0.00  0.00    -0.259 N 
ATOM      9  C   UNL     1      33.530 -22.124 -18.172  0.00  0.00    +0.255 C 
ATOM     10  H   UNL     1      35.104 -22.102 -16.887  0.00  0.00    +0.157 HD
ENDROOT
BRANCH   9  14
ATOM     11  F   UNL     1      36.332 -22.230 -18.233  0.00  0.00    -0.204 F 
ATOM     12  F   UNL     1      32.335 -20.430 -20.062  0.00  0.00    -0.204 F 
ATOM     13  F   UNL     1      36.537 -19.153 -21.821  0.00  0.00    -0.204 F 
ATOM     14  C   UNL     1      34.330 -21.333 -19.144  0.00  0.00    +0.109 C 
ATOM     15  C   UNL     1      35.706 -21.437 -19.113  0.00  0.00    +0.149 C 
ATOM     16  C   UNL     1      33.672 -20.522 -20.044  0.00  0.00    +0.149 C 
ATOM     17  C   UNL     1      36.456 -20.694 -20.025  0.00  0.00    +0.060 C 
ATOM     18  C   UNL     1      34.424 -19.779 -20.955  0.00  0.00    +0.060 C 
ATOM     19  C   UNL     1      35.816 -19.865 -20.945  0.00  0.00    +0.145 C 
ENDBRANCH   9  14
BRANCH   2  21
ATOM     20  O   UNL     1      34.546 -23.866 -11.577  0.00  0.00    -0.289 OA
ATOM     21  C   UNL     1      34.858 -24.314 -12.678  0.00  0.00    +0.202 C 
BRANCH  21  23
ATOM     22  N   UNL     1      38.658 -25.333 -14.322  0.00  0.00    +0.386 N 
ATOM     23  C   UNL     1      36.136 -25.071 -12.865  0.00  0.00    +0.060 C 
ATOM     24  C   UNL     1      37.323 -24.140 -12.615  0.00  0.00    -0.015 C 
ATOM     25  C   UNL     1      36.205 -25.651 -14.277  0.00  0.00    -0.015 C 
ATOM     26  C   UNL     1      38.648 -24.832 -12.942  0.00  0.00    -0.077 C 
ATOM     27  C   UNL     1      37.567 -26.292 -14.547  0.00  0.00    -0.077 C 
ATOM     28  C   UNL     1      39.949 -25.944 -14.635  0.00  0.00    -0.101 C 
ATOM     29  H   UNL     1      38.512 -24.539 -14.947  0.00  0.00    -0.080 HD
ENDBRANCH  21  23
ENDBRANCH   2  21
TORSDOF 3
ENDMDL
MODEL 7
REMARK VINA RESULT:     -10.5      3.647      6.143
REMARK  Name = 11610526
REMARK  3 active torsions:
REMARK  status: ('A' for Active; 'I' for Inactive)
REMARK    1  A    between atoms: C_2  and  C_21
REMARK    2  A    between atoms: C_9  and  C_14
REMARK    3  A    between atoms: C_21  and  C_23
REMARK                            x       y       z     vdW  Elec       q    Type
REMARK                         _______ _______ _______ _____ _____    ______ ____
ROOT
ATOM      1  N   UNL     1      34.504 -23.388 -14.830  0.00  0.00    -0.388 NA
ATOM      2  C   UNL     1      33.965 -24.109 -13.844  0.00  0.00    +0.167 C 
ATOM      3  C   UNL     1      32.712 -24.656 -13.819  0.00  0.00    +0.031 C 
ATOM      4  C   UNL     1      33.701 -23.194 -15.899  0.00  0.00    +0.167 C 
ATOM      5  C   UNL     1      31.915 -24.436 -14.937  0.00  0.00    -0.015 C 
ATOM      6  C   UNL     1      32.412 -23.692 -16.002  0.00  0.00    +0.101 C 
ATOM      7  O   UNL     1      32.398 -22.450 -18.495  0.00  0.00    -0.270 OA
ATOM      8  N   UNL     1      34.192 -22.447 -16.977  0.00  0.00    -0.259 N 
ATOM      9  C   UNL     1      33.537 -22.129 -18.170  0.00  0.00    +0.255 C 
ATOM     10  H   UNL     1      35.110 -22.104 -16.882  0.00  0.00    +0.157 HD
ENDROOT
BRANCH   9  14
ATOM     11  F   UNL     1      32.341 -20.447 -20.069  0.00  0.00    -0.204 F 
ATOM     12  F   UNL     1      36.340 -22.223 -18.220  0.00  0.00    -0.204 F 
ATOM     13  F   UNL     1      36.544 -19.159 -21.819  0.00  0.00    -0.204 F 
ATOM     14  C   UNL     1      34.337 -21.338 -19.141  0.00  0.00    +0.109 C 
ATOM     15  C   UNL     1      33.678 -20.533 -20.047  0.00  0.00    +0.149 C 
ATOM     16  C   UNL     1      35.712 -21.436 -19.105  0.00  0.00    +0.149 C 
ATOM     17  C   UNL     1      34.431 -19.791 -20.958  0.00  0.00    +0.060 C 
ATOM     18  C   UNL     1      36.463 -20.694 -20.018  0.00  0.00    +0.060 C 
ATOM     19  C   UNL     1      35.822 -19.872 -20.944  0.00  0.00    +0.145 C 
ENDBRANCH   9  14
BRANCH   2  21
ATOM     20  O   UNL     1      34.552 -23.858 -11.573  0.00  0.00    -0.289 OA
ATOM     21  C   UNL     1      34.862 -24.312 -12.672  0.00  0.00    +0.202 C 
BRANCH  21  23
ATOM     22  N   UNL     1      38.657 -25.353 -14.316  0.00  0.00    +0.386 N 
ATOM     23  C   UNL     1      36.139 -25.073 -12.856  0.00  0.00    +0.060 C 
ATOM     24  C   UNL     1      37.328 -24.143 -12.616  0.00  0.00    -0.015 C 
ATOM     25  C   UNL     1      36.203 -25.665 -14.262  0.00  0.00    -0.015 C 
ATOM     26  C   UNL     1      38.651 -24.840 -12.939  0.00  0.00    -0.077 C 
ATOM     27  C   UNL     1      37.564 -26.311 -14.530  0.00  0.00    -0.077 C 
ATOM     28  C   UNL     1      39.946 -25.969 -14.626  0.00  0.00    -0.101 C 
ATOM     29  H   UNL     1      38.511 -24.564 -14.947  0.00  0.00    -0.080 HD
ENDBRANCH  21  23
ENDBRANCH   2  21
TORSDOF 3
ENDMDL
MODEL 8
REMARK VINA RESULT:     -10.4      8.155     11.809
REMARK  Name = 11610526
REMARK  3 active torsions:
REMARK  status: ('A' for Active; 'I' for Inactive)
REMARK    1  A    between atoms: C_2  and  C_21
REMARK    2  A    between atoms: C_9  and  C_14
REMARK    3  A    between atoms: C_21  and  C_23
REMARK                            x       y       z     vdW  Elec       q    Type
REMARK                         _______ _______ _______ _____ _____    ______ ____
ROOT
ATOM      1  N   UNL     1      32.546 -10.566 -21.496  0.00  0.00    -0.388 NA
ATOM      2  C   UNL     1      32.132 -11.359 -20.505  0.00  0.00    +0.167 C 
ATOM      3  C   UNL     1      31.645 -10.966 -19.289  0.00  0.00    +0.031 C 
ATOM      4  C   UNL     1      32.465  -9.242 -21.239  0.00  0.00    +0.167 C 
ATOM      5  C   UNL     1      31.576  -9.596 -19.061  0.00  0.00    -0.015 C 
ATOM      6  C   UNL     1      31.991  -8.710 -20.050  0.00  0.00    +0.101 C 
ATOM      7  O   UNL     1      32.514  -6.244 -21.235  0.00  0.00    -0.270 OA
ATOM      8  N   UNL     1      32.880  -8.342 -22.228  0.00  0.00    -0.259 N 
ATOM      9  C   UNL     1      32.882  -6.945 -22.172  0.00  0.00    +0.255 C 
ATOM     10  H   UNL     1      33.213  -8.742 -23.064  0.00  0.00    +0.157 HD
ENDROOT
BRANCH   9  14
ATOM     11  F   UNL     1      31.203  -5.322 -23.724  0.00  0.00    -0.204 F 
ATOM     12  F   UNL     1      35.520  -7.197 -23.089  0.00  0.00    -0.204 F 
ATOM     13  F   UNL     1      34.678  -4.379 -26.793  0.00  0.00    -0.204 F 
ATOM     14  C   UNL     1      33.360  -6.262 -23.402  0.00  0.00    +0.109 C 
ATOM     15  C   UNL     1      32.475  -5.479 -24.114  0.00  0.00    +0.149 C 
ATOM     16  C   UNL     1      34.672  -6.433 -23.791  0.00  0.00    +0.149 C 
ATOM     17  C   UNL     1      32.925  -4.838 -25.269  0.00  0.00    +0.060 C 
ATOM     18  C   UNL     1      35.120  -5.792 -24.946  0.00  0.00    +0.060 C 
ATOM     19  C   UNL     1      34.246  -4.995 -25.686  0.00  0.00    +0.145 C 
ENDBRANCH   9  14
BRANCH   2  21
ATOM     20  O   UNL     1      31.531 -13.618 -20.190  0.00  0.00    -0.289 OA
ATOM     21  C   UNL     1      32.229 -12.816 -20.804  0.00  0.00    +0.202 C 
BRANCH  21  23
ATOM     22  N   UNL     1      33.954 -15.378 -23.744  0.00  0.00    +0.386 N 
ATOM     23  C   UNL     1      33.187 -13.280 -21.858  0.00  0.00    +0.060 C 
ATOM     24  C   UNL     1      32.433 -13.515 -23.167  0.00  0.00    -0.015 C 
ATOM     25  C   UNL     1      33.886 -14.562 -21.410  0.00  0.00    -0.015 C 
ATOM     26  C   UNL     1      33.346 -14.133 -24.229  0.00  0.00    -0.077 C 
ATOM     27  C   UNL     1      34.749 -15.143 -22.531  0.00  0.00    -0.077 C 
ATOM     28  C   UNL     1      34.781 -15.983 -24.788  0.00  0.00    -0.101 C 
ATOM     29  H   UNL     1      33.202 -16.025 -23.507  0.00  0.00    -0.080 HD
ENDBRANCH  21  23
ENDBRANCH   2  21
TORSDOF 3
ENDMDL
MODEL 9
REMARK VINA RESULT:     -10.4      8.162     11.828
REMARK  Name = 11610526
REMARK  3 active torsions:
REMARK  status: ('A' for Active; 'I' for Inactive)
REMARK    1  A    between atoms: C_2  and  C_21
REMARK    2  A    between atoms: C_9  and  C_14
REMARK    3  A    between atoms: C_21  and  C_23
REMARK                            x       y       z     vdW  Elec       q    Type
REMARK                         _______ _______ _______ _____ _____    ______ ____
ROOT
ATOM      1  N   UNL     1      32.545 -10.560 -21.499  0.00  0.00    -0.388 NA
ATOM      2  C   UNL     1      32.131 -11.353 -20.507  0.00  0.00    +0.167 C 
ATOM      3  C   UNL     1      31.644 -10.959 -19.292  0.00  0.00    +0.031 C 
ATOM      4  C   UNL     1      32.463  -9.236 -21.242  0.00  0.00    +0.167 C 
ATOM      5  C   UNL     1      31.574  -9.589 -19.064  0.00  0.00    -0.015 C 
ATOM      6  C   UNL     1      31.990  -8.704 -20.054  0.00  0.00    +0.101 C 
ATOM      7  O   UNL     1      32.512  -6.238 -21.239  0.00  0.00    -0.270 OA
ATOM      8  N   UNL     1      32.878  -8.337 -22.232  0.00  0.00    -0.259 N 
ATOM      9  C   UNL     1      32.880  -6.940 -22.176  0.00  0.00    +0.255 C 
ATOM     10  H   UNL     1      33.211  -8.737 -23.067  0.00  0.00    +0.157 HD
ENDROOT
BRANCH   9  14
ATOM     11  F   UNL     1      35.520  -7.188 -23.089  0.00  0.00    -0.204 F 
ATOM     12  F   UNL     1      31.200  -5.321 -23.733  0.00  0.00    -0.204 F 
ATOM     13  F   UNL     1      34.676  -4.375 -26.798  0.00  0.00    -0.204 F 
ATOM     14  C   UNL     1      33.358  -6.258 -23.406  0.00  0.00    +0.109 C 
ATOM     15  C   UNL     1      34.672  -6.426 -23.794  0.00  0.00    +0.149 C 
ATOM     16  C   UNL     1      32.474  -5.477 -24.121  0.00  0.00    +0.149 C 
ATOM     17  C   UNL     1      35.120  -5.785 -24.949  0.00  0.00    +0.060 C 
ATOM     18  C   UNL     1      32.923  -4.836 -25.275  0.00  0.00    +0.060 C 
ATOM     19  C   UNL     1      34.246  -4.989 -25.689  0.00  0.00    +0.145 C 
ENDBRANCH   9  14
BRANCH   2  21
ATOM     20  O   UNL     1      31.532 -13.612 -20.188  0.00  0.00    -0.289 OA
ATOM     21  C   UNL     1      32.228 -12.810 -20.805  0.00  0.00    +0.202 C 
BRANCH  21  23
ATOM     22  N   UNL     1      33.946 -15.374 -23.748  0.00  0.00    +0.386 N 
ATOM     23  C   UNL     1      33.183 -13.274 -21.862  0.00  0.00    +0.060 C 
ATOM     24  C   UNL     1      32.424 -13.512 -23.168  0.00  0.00    -0.015 C 
ATOM     25  C   UNL     1      33.885 -14.554 -21.414  0.00  0.00    -0.015 C 
ATOM     26  C   UNL     1      33.334 -14.130 -24.232  0.00  0.00    -0.077 C 
ATOM     27  C   UNL     1      34.745 -15.136 -22.537  0.00  0.00    -0.077 C 
ATOM     28  C   UNL     1      34.770 -15.979 -24.794  0.00  0.00    -0.101 C 
ATOM     29  H   UNL     1      33.195 -16.022 -23.507  0.00  0.00    -0.080 HD
ENDBRANCH  21  23
ENDBRANCH   2  21
TORSDOF 3
ENDMDL
