MODEL 1
REMARK VINA RESULT:     -12.3      0.000      0.000
REMARK  Name = 11167602
REMARK  6 active torsions:
REMARK  status: ('A' for Active; 'I' for Inactive)
REMARK    1  A    between atoms: C_2  and  N_10
REMARK    2  A    between atoms: C_3  and  O_25
REMARK    3  A    between atoms: N_9  and  C_15
REMARK    4  A    between atoms: C_16  and  C_24
REMARK    5  A    between atoms: O_25  and  C_27
REMARK    6  A    between atoms: C_29  and  C_34
REMARK                            x       y       z     vdW  Elec       q    Type
REMARK                         _______ _______ _______ _____ _____    ______ ____
ROOT
ATOM      1  F   UNL     1      36.842 -21.311 -17.155  0.00  0.00    -0.203 F 
ATOM      2  C   UNL     1      34.901 -21.985 -18.345  0.00  0.00    +0.079 C 
ATOM      3  C   UNL     1      34.111 -23.494 -16.161  0.00  0.00    +0.148 C 
ATOM      4  C   UNL     1      35.698 -22.007 -17.212  0.00  0.00    +0.157 C 
ATOM      5  C   UNL     1      33.716 -22.701 -18.408  0.00  0.00    +0.020 C 
ATOM      6  C   UNL     1      35.300 -22.767 -16.112  0.00  0.00    +0.068 C 
ATOM      7  C   UNL     1      33.319 -23.462 -17.308  0.00  0.00    +0.039 C 
ENDROOT
BRANCH   2  10
ATOM      8  O   UNL     1      33.319 -20.134 -20.075  0.00  0.00    -0.252 OA
ATOM      9  N   UNL     1      35.303 -19.775 -21.269  0.00  0.00    -0.268 N 
ATOM     10  N   UNL     1      35.300 -21.213 -19.462  0.00  0.00    -0.266 N 
ATOM     11  C   UNL     1      34.514 -20.355 -20.246  0.00  0.00    +0.308 C 
ATOM     12  H   UNL     1      36.250 -20.046 -21.282  0.00  0.00    +0.156 HD
ATOM     13  H   UNL     1      36.247 -21.289 -19.721  0.00  0.00    +0.156 HD
BRANCH   9  15
ATOM     14 CL   UNL     1      33.669 -15.977 -25.493  0.00  0.00    -0.082 Cl
ATOM     15  C   UNL     1      34.918 -18.871 -22.259  0.00  0.00    +0.052 C 
ATOM     16  C   UNL     1      34.466 -16.605 -22.963  0.00  0.00    +0.083 C 
ATOM     17  C   UNL     1      34.851 -17.508 -21.972  0.00  0.00    +0.019 C 
ATOM     18  C   UNL     1      34.599 -19.332 -23.536  0.00  0.00    +0.016 C 
ATOM     19  C   UNL     1      34.148 -17.065 -24.240  0.00  0.00    +0.062 C 
ATOM     20  C   UNL     1      34.214 -18.428 -24.527  0.00  0.00    +0.013 C 
BRANCH  16  24
ATOM     21  F   UNL     1      35.223 -14.376 -23.388  0.00  0.00    -0.166 F 
ATOM     22  F   UNL     1      33.165 -14.609 -22.746  0.00  0.00    -0.166 F 
ATOM     23  F   UNL     1      34.785 -14.910 -21.327  0.00  0.00    -0.166 F 
ATOM     24  C   UNL     1      34.410 -15.152 -22.616  0.00  0.00    +0.419 C 
ENDBRANCH  16  24
ENDBRANCH   9  15
ENDBRANCH   2  10
BRANCH   3  25
ATOM     25  O   UNL     1      33.723 -24.236 -15.087  0.00  0.00    -0.453 OA
BRANCH  25  27
ATOM     26  N   UNL     1      36.622 -25.240 -12.284  0.00  0.00    -0.239 NA
ATOM     27  C   UNL     1      34.689 -24.572 -14.154  0.00  0.00    +0.149 C 
ATOM     28  C   UNL     1      35.828 -25.228 -14.568  0.00  0.00    +0.061 C 
ATOM     29  C   UNL     1      36.765 -25.539 -13.595  0.00  0.00    +0.137 C 
ATOM     30  C   UNL     1      34.489 -24.241 -12.830  0.00  0.00    +0.058 C 
ATOM     31  C   UNL     1      35.485 -24.597 -11.935  0.00  0.00    +0.102 C 
BRANCH  29  34
ATOM     32  O   UNL     1      37.951 -27.319 -14.556  0.00  0.00    -0.268 OA
ATOM     33  N   UNL     1      39.197 -25.606 -13.613  0.00  0.00    -0.298 N 
ATOM     34  C   UNL     1      37.991 -26.230 -13.954  0.00  0.00    +0.264 C 
ATOM     35  C   UNL     1      40.498 -26.154 -13.922  0.00  0.00    +0.111 C 
ATOM     36  H   UNL     1      39.157 -24.746 -13.136  0.00  0.00    +0.150 HD
ENDBRANCH  29  34
ENDBRANCH  25  27
ENDBRANCH   3  25
TORSDOF 6
ENDMDL
MODEL 2
REMARK VINA RESULT:     -12.2      5.649      9.581
REMARK  Name = 11167602
REMARK  6 active torsions:
REMARK  status: ('A' for Active; 'I' for Inactive)
REMARK    1  A    between atoms: C_2  and  N_10
REMARK    2  A    between atoms: C_3  and  O_25
REMARK    3  A    between atoms: N_9  and  C_15
REMARK    4  A    between atoms: C_16  and  C_24
REMARK    5  A    between atoms: O_25  and  C_27
REMARK    6  A    between atoms: C_29  and  C_34
REMARK                            x       y       z     vdW  Elec       q    Type
REMARK                         _______ _______ _______ _____ _____    ______ ____
ROOT
ATOM      1  F   UNL     1      34.296 -14.203 -20.352  0.00  0.00    -0.203 F 
ATOM      2  C   UNL     1      33.529 -14.134 -22.598  0.00  0.00    +0.079 C 
ATOM      3  C   UNL     1      34.736 -16.584 -23.064  0.00  0.00    +0.148 C 
ATOM      4  C   UNL     1      34.211 -14.761 -21.568  0.00  0.00    +0.157 C 
ATOM      5  C   UNL     1      33.437 -14.708 -23.856  0.00  0.00    +0.020 C 
ATOM      6  C   UNL     1      34.818 -15.994 -21.802  0.00  0.00    +0.068 C 
ATOM      7  C   UNL     1      34.046 -15.940 -24.091  0.00  0.00    +0.039 C 
ENDROOT
BRANCH   2  10
ATOM      8  O   UNL     1      34.155 -11.433 -23.709  0.00  0.00    -0.252 OA
ATOM      9  N   UNL     1      32.372 -10.638 -22.414  0.00  0.00    -0.268 N 
ATOM     10  N   UNL     1      32.910 -12.884 -22.363  0.00  0.00    -0.266 N 
ATOM     11  C   UNL     1      33.244 -11.636 -22.913  0.00  0.00    +0.308 C 
ATOM     12  H   UNL     1      31.686 -10.949 -21.780  0.00  0.00    +0.156 HD
ATOM     13  H   UNL     1      32.150 -12.890 -21.736  0.00  0.00    +0.156 HD
BRANCH   9  15
ATOM     14 CL   UNL     1      32.267  -4.853 -23.623  0.00  0.00    -0.082 Cl
ATOM     15  C   UNL     1      32.357  -9.273 -22.701  0.00  0.00    +0.052 C 
ATOM     16  C   UNL     1      33.489  -7.284 -23.476  0.00  0.00    +0.083 C 
ATOM     17  C   UNL     1      33.506  -8.650 -23.188  0.00  0.00    +0.019 C 
ATOM     18  C   UNL     1      31.193  -8.532 -22.500  0.00  0.00    +0.016 C 
ATOM     19  C   UNL     1      32.325  -6.544 -23.276  0.00  0.00    +0.062 C 
ATOM     20  C   UNL     1      31.177  -7.167 -22.788  0.00  0.00    +0.013 C 
BRANCH  16  24
ATOM     21  F   UNL     1      35.244  -7.280 -25.102  0.00  0.00    -0.166 F 
ATOM     22  F   UNL     1      34.580  -5.350 -24.367  0.00  0.00    -0.166 F 
ATOM     23  F   UNL     1      35.748  -6.658 -23.080  0.00  0.00    -0.166 F 
ATOM     24  C   UNL     1      34.740  -6.655 -23.999  0.00  0.00    +0.419 C 
ENDBRANCH  16  24
ENDBRANCH   9  15
ENDBRANCH   2  10
BRANCH   3  25
ATOM     25  O   UNL     1      35.329 -17.787 -23.293  0.00  0.00    -0.453 OA
BRANCH  25  27
ATOM     26  N   UNL     1      36.157 -20.192 -20.006  0.00  0.00    -0.239 NA
ATOM     27  C   UNL     1      35.604 -18.588 -22.197  0.00  0.00    +0.149 C 
ATOM     28  C   UNL     1      34.587 -19.321 -21.625  0.00  0.00    +0.061 C 
ATOM     29  C   UNL     1      34.914 -20.108 -20.532  0.00  0.00    +0.137 C 
ATOM     30  C   UNL     1      36.891 -18.634 -21.703  0.00  0.00    +0.058 C 
ATOM     31  C   UNL     1      37.115 -19.450 -20.606  0.00  0.00    +0.102 C 
BRANCH  29  34
ATOM     32  O   UNL     1      32.699 -20.798 -20.196  0.00  0.00    -0.268 OA
ATOM     33  N   UNL     1      34.330 -21.815 -18.899  0.00  0.00    -0.298 N 
ATOM     34  C   UNL     1      33.897 -20.910 -19.876  0.00  0.00    +0.264 C 
ATOM     35  C   UNL     1      33.444 -22.697 -18.175  0.00  0.00    +0.111 C 
ATOM     36  H   UNL     1      35.292 -21.851 -18.693  0.00  0.00    +0.150 HD
ENDBRANCH  29  34
ENDBRANCH  25  27
ENDBRANCH   3  25
TORSDOF 6
ENDMDL
MODEL 3
REMARK VINA RESULT:     -12.0      4.434      7.664
REMARK  Name = 11167602
REMARK  6 active torsions:
REMARK  status: ('A' for Active; 'I' for Inactive)
REMARK    1  A    between atoms: C_2  and  N_10
REMARK    2  A    between atoms: C_3  and  O_25
REMARK    3  A    between atoms: N_9  and  C_15
REMARK    4  A    between atoms: C_16  and  C_24
REMARK    5  A    between atoms: O_25  and  C_27
REMARK    6  A    between atoms: C_29  and  C_34
REMARK                            x       y       z     vdW  Elec       q    Type
REMARK                         _______ _______ _______ _____ _____    ______ ____
ROOT
ATOM      1  F   UNL     1      34.251 -17.185 -25.122  0.00  0.00    -0.203 F 
ATOM      2  C   UNL     1      34.582 -16.174 -22.999  0.00  0.00    +0.079 C 
ATOM      3  C   UNL     1      35.279 -18.643 -21.954  0.00  0.00    +0.148 C 
ATOM      4  C   UNL     1      34.581 -17.284 -23.827  0.00  0.00    +0.157 C 
ATOM      5  C   UNL     1      34.925 -16.271 -21.660  0.00  0.00    +0.020 C 
ATOM      6  C   UNL     1      34.932 -18.527 -23.301  0.00  0.00    +0.068 C 
ATOM      7  C   UNL     1      35.275 -17.515 -21.134  0.00  0.00    +0.039 C 
ENDROOT
BRANCH   2  10
ATOM      8  O   UNL     1      34.811 -13.446 -21.803  0.00  0.00    -0.252 OA
ATOM      9  N   UNL     1      33.882 -12.643 -23.798  0.00  0.00    -0.268 N 
ATOM     10  N   UNL     1      34.228 -14.911 -23.530  0.00  0.00    -0.266 N 
ATOM     11  C   UNL     1      34.356 -13.651 -22.923  0.00  0.00    +0.308 C 
ATOM     12  H   UNL     1      33.546 -12.956 -24.668  0.00  0.00    +0.156 HD
ATOM     13  H   UNL     1      33.844 -14.916 -24.437  0.00  0.00    +0.156 HD
BRANCH   9  15
ATOM     14 CL   UNL     1      33.696  -6.798 -22.932  0.00  0.00    -0.082 Cl
ATOM     15  C   UNL     1      33.829 -11.264 -23.589  0.00  0.00    +0.052 C 
ATOM     16  C   UNL     1      32.713  -9.327 -22.674  0.00  0.00    +0.083 C 
ATOM     17  C   UNL     1      32.765 -10.706 -22.882  0.00  0.00    +0.019 C 
ATOM     18  C   UNL     1      34.842 -10.445 -24.089  0.00  0.00    +0.016 C 
ATOM     19  C   UNL     1      33.726  -8.508 -23.172  0.00  0.00    +0.062 C 
ATOM     20  C   UNL     1      34.790  -9.067 -23.880  0.00  0.00    +0.013 C 
BRANCH  16  24
ATOM     21  F   UNL     1      31.921  -8.141 -20.753  0.00  0.00    -0.166 F 
ATOM     22  F   UNL     1      30.837  -7.844 -22.608  0.00  0.00    -0.166 F 
ATOM     23  F   UNL     1      30.664  -9.730 -21.539  0.00  0.00    -0.166 F 
ATOM     24  C   UNL     1      31.557  -8.768 -21.908  0.00  0.00    +0.419 C 
ENDBRANCH  16  24
ENDBRANCH   9  15
ENDBRANCH   2  10
BRANCH   3  25
ATOM     25  O   UNL     1      35.621 -19.856 -21.441  0.00  0.00    -0.453 OA
BRANCH  25  27
ATOM     26  N   UNL     1      33.002 -21.612 -18.734  0.00  0.00    -0.239 NA
ATOM     27  C   UNL     1      34.749 -20.442 -20.539  0.00  0.00    +0.149 C 
ATOM     28  C   UNL     1      35.256 -21.192 -19.501  0.00  0.00    +0.061 C 
ATOM     29  C   UNL     1      34.342 -21.756 -18.624  0.00  0.00    +0.137 C 
ATOM     30  C   UNL     1      33.391 -20.261 -20.700  0.00  0.00    +0.058 C 
ATOM     31  C   UNL     1      32.561 -20.866 -19.772  0.00  0.00    +0.102 C 
BRANCH  29  34
ATOM     32  O   UNL     1      34.131 -23.533 -17.109  0.00  0.00    -0.268 OA
ATOM     33  N   UNL     1      36.021 -22.202 -16.921  0.00  0.00    -0.298 N 
ATOM     34  C   UNL     1      34.800 -22.560 -17.505  0.00  0.00    +0.264 C 
ATOM     35  C   UNL     1      36.620 -22.916 -15.816  0.00  0.00    +0.111 C 
ATOM     36  H   UNL     1      36.498 -21.420 -17.282  0.00  0.00    +0.150 HD
ENDBRANCH  29  34
ENDBRANCH  25  27
ENDBRANCH   3  25
TORSDOF 6
ENDMDL
MODEL 4
REMARK VINA RESULT:     -11.7      4.485     11.734
REMARK  Name = 11167602
REMARK  6 active torsions:
REMARK  status: ('A' for Active; 'I' for Inactive)
REMARK    1  A    between atoms: C_2  and  N_10
REMARK    2  A    between atoms: C_3  and  O_25
REMARK    3  A    between atoms: N_9  and  C_15
REMARK    4  A    between atoms: C_16  and  C_24
REMARK    5  A    between atoms: O_25  and  C_27
REMARK    6  A    between atoms: C_29  and  C_34
REMARK                            x       y       z     vdW  Elec       q    Type
REMARK                         _______ _______ _______ _____ _____    ______ ____
ROOT
ATOM      1  F   UNL     1      32.702 -20.889 -20.092  0.00  0.00    -0.203 F 
ATOM      2  C   UNL     1      34.988 -21.113 -19.490  0.00  0.00    +0.079 C 
ATOM      3  C   UNL     1      35.676 -19.387 -21.544  0.00  0.00    +0.148 C 
ATOM      4  C   UNL     1      33.991 -20.583 -20.293  0.00  0.00    +0.157 C 
ATOM      5  C   UNL     1      36.322 -20.798 -19.693  0.00  0.00    +0.020 C 
ATOM      6  C   UNL     1      34.338 -19.714 -21.326  0.00  0.00    +0.068 C 
ATOM      7  C   UNL     1      36.668 -19.929 -20.728  0.00  0.00    +0.039 C 
ENDROOT
BRANCH   2  10
ATOM      8  O   UNL     1      36.322 -21.604 -16.863  0.00  0.00    -0.252 OA
ATOM      9  N   UNL     1      34.625 -23.165 -16.448  0.00  0.00    -0.268 N 
ATOM     10  N   UNL     1      34.640 -21.994 -18.439  0.00  0.00    -0.266 N 
ATOM     11  C   UNL     1      35.304 -22.189 -17.218  0.00  0.00    +0.308 C 
ATOM     12  H   UNL     1      33.819 -23.550 -16.862  0.00  0.00    +0.156 HD
ATOM     13  H   UNL     1      33.832 -22.538 -18.583  0.00  0.00    +0.156 HD
BRANCH   9  15
ATOM     14 CL   UNL     1      35.949 -25.219 -11.066  0.00  0.00    -0.082 Cl
ATOM     15  C   UNL     1      34.946 -23.652 -15.181  0.00  0.00    +0.052 C 
ATOM     16  C   UNL     1      36.560 -24.586 -13.645  0.00  0.00    +0.083 C 
ATOM     17  C   UNL     1      36.240 -24.100 -14.913  0.00  0.00    +0.019 C 
ATOM     18  C   UNL     1      33.973 -23.692 -14.182  0.00  0.00    +0.016 C 
ATOM     19  C   UNL     1      35.588 -24.625 -12.647  0.00  0.00    +0.062 C 
ATOM     20  C   UNL     1      34.294 -24.178 -12.915  0.00  0.00    +0.013 C 
BRANCH  16  24
ATOM     21  F   UNL     1      38.578 -24.399 -12.374  0.00  0.00    -0.166 F 
ATOM     22  F   UNL     1      38.041 -26.378 -13.080  0.00  0.00    -0.166 F 
ATOM     23  F   UNL     1      38.764 -24.884 -14.485  0.00  0.00    -0.166 F 
ATOM     24  C   UNL     1      37.958 -25.054 -13.398  0.00  0.00    +0.419 C 
ENDBRANCH  16  24
ENDBRANCH   9  15
ENDBRANCH   2  10
BRANCH   3  25
ATOM     25  O   UNL     1      36.015 -18.538 -22.554  0.00  0.00    -0.453 OA
BRANCH  25  27
ATOM     26  N   UNL     1      34.004 -14.909 -22.777  0.00  0.00    -0.239 NA
ATOM     27  C   UNL     1      35.346 -17.329 -22.629  0.00  0.00    +0.149 C 
ATOM     28  C   UNL     1      34.881 -16.890 -23.850  0.00  0.00    +0.061 C 
ATOM     29  C   UNL     1      34.216 -15.674 -23.871  0.00  0.00    +0.137 C 
ATOM     30  C   UNL     1      35.159 -16.590 -21.480  0.00  0.00    +0.058 C 
ATOM     31  C   UNL     1      34.483 -15.388 -21.607  0.00  0.00    +0.102 C 
BRANCH  29  34
ATOM     32  O   UNL     1      33.459 -15.904 -26.078  0.00  0.00    -0.268 OA
ATOM     33  N   UNL     1      33.461 -13.766 -25.179  0.00  0.00    -0.298 N 
ATOM     34  C   UNL     1      33.696 -15.145 -25.120  0.00  0.00    +0.264 C 
ATOM     35  C   UNL     1      32.925 -13.095 -26.341  0.00  0.00    +0.111 C 
ATOM     36  H   UNL     1      33.672 -13.224 -24.386  0.00  0.00    +0.150 HD
ENDBRANCH  29  34
ENDBRANCH  25  27
ENDBRANCH   3  25
TORSDOF 6
ENDMDL
MODEL 5
REMARK VINA RESULT:     -11.6      4.579     11.051
REMARK  Name = 11167602
REMARK  6 active torsions:
REMARK  status: ('A' for Active; 'I' for Inactive)
REMARK    1  A    between atoms: C_2  and  N_10
REMARK    2  A    between atoms: C_3  and  O_25
REMARK    3  A    between atoms: N_9  and  C_15
REMARK    4  A    between atoms: C_16  and  C_24
REMARK    5  A    between atoms: O_25  and  C_27
REMARK    6  A    between atoms: C_29  and  C_34
REMARK                            x       y       z     vdW  Elec       q    Type
REMARK                         _______ _______ _______ _____ _____    ______ ____
ROOT
ATOM      1  F   UNL     1      37.475 -19.435 -20.107  0.00  0.00    -0.203 F 
ATOM      2  C   UNL     1      35.263 -20.143 -20.602  0.00  0.00    +0.079 C 
ATOM      3  C   UNL     1      35.274 -18.531 -22.854  0.00  0.00    +0.148 C 
ATOM      4  C   UNL     1      36.391 -19.393 -20.893  0.00  0.00    +0.157 C 
ATOM      5  C   UNL     1      34.141 -20.104 -21.414  0.00  0.00    +0.020 C 
ATOM      6  C   UNL     1      36.397 -18.582 -22.028  0.00  0.00    +0.068 C 
ATOM      7  C   UNL     1      34.146 -19.291 -22.547  0.00  0.00    +0.039 C 
ENDROOT
BRANCH   2  10
ATOM      8  O   UNL     1      32.973 -21.195 -19.000  0.00  0.00    -0.252 OA
ATOM      9  N   UNL     1      34.576 -22.237 -17.646  0.00  0.00    -0.268 N 
ATOM     10  N   UNL     1      35.255 -20.969 -19.453  0.00  0.00    -0.266 N 
ATOM     11  C   UNL     1      34.145 -21.437 -18.733  0.00  0.00    +0.308 C 
ATOM     12  H   UNL     1      35.550 -22.345 -17.556  0.00  0.00    +0.156 HD
ATOM     13  H   UNL     1      36.137 -21.249 -19.117  0.00  0.00    +0.156 HD
BRANCH   9  15
ATOM     14 CL   UNL     1      31.334 -25.032 -13.570  0.00  0.00    -0.082 Cl
ATOM     15  C   UNL     1      33.803 -22.892 -16.687  0.00  0.00    +0.052 C 
ATOM     16  C   UNL     1      31.643 -23.403 -15.732  0.00  0.00    +0.083 C 
ATOM     17  C   UNL     1      32.415 -22.747 -16.691  0.00  0.00    +0.019 C 
ATOM     18  C   UNL     1      34.417 -23.693 -15.725  0.00  0.00    +0.016 C 
ATOM     19  C   UNL     1      32.258 -24.204 -14.771  0.00  0.00    +0.062 C 
ATOM     20  C   UNL     1      33.645 -24.349 -14.766  0.00  0.00    +0.013 C 
BRANCH  16  24
ATOM     21  F   UNL     1      29.474 -24.391 -15.934  0.00  0.00    -0.166 F 
ATOM     22  F   UNL     1      29.649 -22.660 -14.639  0.00  0.00    -0.166 F 
ATOM     23  F   UNL     1      29.761 -22.417 -16.798  0.00  0.00    -0.166 F 
ATOM     24  C   UNL     1      30.160 -23.223 -15.773  0.00  0.00    +0.419 C 
ENDBRANCH  16  24
ENDBRANCH   9  15
ENDBRANCH   2  10
BRANCH   3  25
ATOM     25  O   UNL     1      35.279 -17.738 -23.961  0.00  0.00    -0.453 OA
BRANCH  25  27
ATOM     26  N   UNL     1      33.166 -14.164 -23.791  0.00  0.00    -0.239 NA
ATOM     27  C   UNL     1      34.574 -16.548 -23.904  0.00  0.00    +0.149 C 
ATOM     28  C   UNL     1      34.437 -15.904 -22.694  0.00  0.00    +0.061 C 
ATOM     29  C   UNL     1      33.724 -14.715 -22.689  0.00  0.00    +0.137 C 
ATOM     30  C   UNL     1      34.027 -16.033 -25.060  0.00  0.00    +0.058 C 
ATOM     31  C   UNL     1      33.332 -14.840 -24.950  0.00  0.00    +0.102 C 
BRANCH  29  34
ATOM     32  O   UNL     1      34.393 -14.027 -20.550  0.00  0.00    -0.268 OA
ATOM     33  N   UNL     1      32.373 -13.205 -21.340  0.00  0.00    -0.298 N 
ATOM     34  C   UNL     1      33.536 -13.977 -21.452  0.00  0.00    +0.264 C 
ATOM     35  C   UNL     1      32.056 -12.399 -20.184  0.00  0.00    +0.111 C 
ATOM     36  H   UNL     1      31.737 -13.213 -22.091  0.00  0.00    +0.150 HD
ENDBRANCH  29  34
ENDBRANCH  25  27
ENDBRANCH   3  25
TORSDOF 6
ENDMDL
MODEL 6
REMARK VINA RESULT:     -11.6      4.468     11.722
REMARK  Name = 11167602
REMARK  6 active torsions:
REMARK  status: ('A' for Active; 'I' for Inactive)
REMARK    1  A    between atoms: C_2  and  N_10
REMARK    2  A    between atoms: C_3  and  O_25
REMARK    3  A    between atoms: N_9  and  C_15
REMARK    4  A    between atoms: C_16  and  C_24
REMARK    5  A    between atoms: O_25  and  C_27
REMARK    6  A    between atoms: C_29  and  C_34
REMARK                            x       y       z     vdW  Elec       q    Type
REMARK                         _______ _______ _______ _____ _____    ______ ____
ROOT
ATOM      1  F   UNL     1      32.817 -20.785 -19.872  0.00  0.00    -0.203 F 
ATOM      2  C   UNL     1      35.111 -21.146 -19.375  0.00  0.00    +0.079 C 
ATOM      3  C   UNL     1      35.803 -19.334 -21.353  0.00  0.00    +0.148 C 
ATOM      4  C   UNL     1      34.111 -20.525 -20.105  0.00  0.00    +0.157 C 
ATOM      5  C   UNL     1      36.449 -20.879 -19.612  0.00  0.00    +0.020 C 
ATOM      6  C   UNL     1      34.459 -19.613 -21.101  0.00  0.00    +0.068 C 
ATOM      7  C   UNL     1      36.798 -19.968 -20.609  0.00  0.00    +0.039 C 
ENDROOT
BRANCH   2  10
ATOM      8  O   UNL     1      36.241 -21.528 -16.637  0.00  0.00    -0.252 OA
ATOM      9  N   UNL     1      34.684 -23.261 -16.385  0.00  0.00    -0.268 N 
ATOM     10  N   UNL     1      34.761 -22.071 -18.363  0.00  0.00    -0.266 N 
ATOM     11  C   UNL     1      35.326 -22.211 -17.086  0.00  0.00    +0.308 C 
ATOM     12  H   UNL     1      33.964 -23.722 -16.872  0.00  0.00    +0.156 HD
ATOM     13  H   UNL     1      34.030 -22.694 -18.583  0.00  0.00    +0.156 HD
BRANCH   9  15
ATOM     14 CL   UNL     1      35.715 -25.228 -10.907  0.00  0.00    -0.082 Cl
ATOM     15  C   UNL     1      34.937 -23.728 -15.094  0.00  0.00    +0.052 C 
ATOM     16  C   UNL     1      36.466 -24.634 -13.458  0.00  0.00    +0.083 C 
ATOM     17  C   UNL     1      36.214 -24.168 -14.749  0.00  0.00    +0.019 C 
ATOM     18  C   UNL     1      33.911 -23.753 -14.150  0.00  0.00    +0.016 C 
ATOM     19  C   UNL     1      35.440 -24.659 -12.514  0.00  0.00    +0.062 C 
ATOM     20  C   UNL     1      34.163 -24.219 -12.859  0.00  0.00    +0.013 C 
BRANCH  16  24
ATOM     21  F   UNL     1      38.722 -24.987 -14.170  0.00  0.00    -0.166 F 
ATOM     22  F   UNL     1      38.423 -24.400 -12.104  0.00  0.00    -0.166 F 
ATOM     23  F   UNL     1      37.885 -26.405 -12.751  0.00  0.00    -0.166 F 
ATOM     24  C   UNL     1      37.848 -25.095 -13.128  0.00  0.00    +0.419 C 
ENDBRANCH  16  24
ENDBRANCH   9  15
ENDBRANCH   2  10
BRANCH   3  25
ATOM     25  O   UNL     1      36.143 -18.444 -22.325  0.00  0.00    -0.453 OA
BRANCH  25  27
ATOM     26  N   UNL     1      33.181 -17.273 -24.994  0.00  0.00    -0.239 NA
ATOM     27  C   UNL     1      35.155 -18.053 -23.213  0.00  0.00    +0.149 C 
ATOM     28  C   UNL     1      34.931 -16.710 -23.424  0.00  0.00    +0.061 C 
ATOM     29  C   UNL     1      33.933 -16.371 -24.324  0.00  0.00    +0.137 C 
ATOM     30  C   UNL     1      34.420 -19.018 -23.868  0.00  0.00    +0.058 C 
ATOM     31  C   UNL     1      33.444 -18.576 -24.748  0.00  0.00    +0.102 C 
BRANCH  29  34
ATOM     32  O   UNL     1      33.066 -14.647 -25.655  0.00  0.00    -0.268 OA
ATOM     33  N   UNL     1      34.003 -14.042 -23.622  0.00  0.00    -0.298 N 
ATOM     34  C   UNL     1      33.637 -14.976 -24.600  0.00  0.00    +0.264 C 
ATOM     35  C   UNL     1      33.756 -12.624 -23.738  0.00  0.00    +0.111 C 
ATOM     36  H   UNL     1      34.453 -14.371 -22.811  0.00  0.00    +0.150 HD
ENDBRANCH  29  34
ENDBRANCH  25  27
ENDBRANCH   3  25
TORSDOF 6
ENDMDL
MODEL 7
REMARK VINA RESULT:     -11.6      5.536      9.738
REMARK  Name = 11167602
REMARK  6 active torsions:
REMARK  status: ('A' for Active; 'I' for Inactive)
REMARK    1  A    between atoms: C_2  and  N_10
REMARK    2  A    between atoms: C_3  and  O_25
REMARK    3  A    between atoms: N_9  and  C_15
REMARK    4  A    between atoms: C_16  and  C_24
REMARK    5  A    between atoms: O_25  and  C_27
REMARK    6  A    between atoms: C_29  and  C_34
REMARK                            x       y       z     vdW  Elec       q    Type
REMARK                         _______ _______ _______ _____ _____    ______ ____
ROOT
ATOM      1  F   UNL     1      34.947 -13.849 -21.823  0.00  0.00    -0.203 F 
ATOM      2  C   UNL     1      33.987 -14.022 -23.988  0.00  0.00    +0.079 C 
ATOM      3  C   UNL     1      34.317 -16.770 -23.892  0.00  0.00    +0.148 C 
ATOM      4  C   UNL     1      34.555 -14.597 -22.863  0.00  0.00    +0.157 C 
ATOM      5  C   UNL     1      33.579 -14.792 -25.065  0.00  0.00    +0.020 C 
ATOM      6  C   UNL     1      34.722 -15.981 -22.815  0.00  0.00    +0.068 C 
ATOM      7  C   UNL     1      33.747 -16.176 -25.017  0.00  0.00    +0.039 C 
ENDROOT
BRANCH   2  10
ATOM      8  O   UNL     1      32.463 -12.197 -22.179  0.00  0.00    -0.252 OA
ATOM      9  N   UNL     1      33.169 -10.450 -23.572  0.00  0.00    -0.268 N 
ATOM     10  N   UNL     1      33.815 -12.618 -24.040  0.00  0.00    -0.266 N 
ATOM     11  C   UNL     1      33.085 -11.803 -23.161  0.00  0.00    +0.308 C 
ATOM     12  H   UNL     1      33.705 -10.283 -24.380  0.00  0.00    +0.156 HD
ATOM     13  H   UNL     1      34.263 -12.156 -24.785  0.00  0.00    +0.156 HD
BRANCH   9  15
ATOM     14 CL   UNL     1      30.722  -5.664 -21.114  0.00  0.00    -0.082 Cl
ATOM     15  C   UNL     1      32.594  -9.324 -22.983  0.00  0.00    +0.052 C 
ATOM     16  C   UNL     1      32.111  -8.006 -21.016  0.00  0.00    +0.083 C 
ATOM     17  C   UNL     1      32.687  -9.133 -21.604  0.00  0.00    +0.019 C 
ATOM     18  C   UNL     1      31.926  -8.389 -23.773  0.00  0.00    +0.016 C 
ATOM     19  C   UNL     1      31.445  -7.071 -21.807  0.00  0.00    +0.062 C 
ATOM     20  C   UNL     1      31.351  -7.262 -23.185  0.00  0.00    +0.013 C 
BRANCH  16  24
ATOM     21  F   UNL     1      32.825  -8.899 -18.915  0.00  0.00    -0.166 F 
ATOM     22  F   UNL     1      32.977  -6.751 -19.173  0.00  0.00    -0.166 F 
ATOM     23  F   UNL     1      31.026  -7.679 -18.927  0.00  0.00    -0.166 F 
ATOM     24  C   UNL     1      32.236  -7.837 -19.537  0.00  0.00    +0.419 C 
ENDBRANCH  16  24
ENDBRANCH   9  15
ENDBRANCH   2  10
BRANCH   3  25
ATOM     25  O   UNL     1      34.480 -18.121 -23.845  0.00  0.00    -0.453 OA
BRANCH  25  27
ATOM     26  N   UNL     1      35.791 -19.787 -20.271  0.00  0.00    -0.239 NA
ATOM     27  C   UNL     1      34.916 -18.676 -22.654  0.00  0.00    +0.149 C 
ATOM     28  C   UNL     1      34.042 -19.429 -21.901  0.00  0.00    +0.061 C 
ATOM     29  C   UNL     1      34.527 -19.964 -20.718  0.00  0.00    +0.137 C 
ATOM     30  C   UNL     1      36.216 -18.461 -22.248  0.00  0.00    +0.058 C 
ATOM     31  C   UNL     1      36.604 -19.038 -21.049  0.00  0.00    +0.102 C 
BRANCH  29  34
ATOM     32  O   UNL     1      32.429 -20.645 -19.925  0.00  0.00    -0.268 OA
ATOM     33  N   UNL     1      34.290 -21.694 -19.023  0.00  0.00    -0.298 N 
ATOM     34  C   UNL     1      33.666 -20.770 -19.870  0.00  0.00    +0.264 C 
ATOM     35  C   UNL     1      33.571 -22.582 -18.139  0.00  0.00    +0.111 C 
ATOM     36  H   UNL     1      35.274 -21.740 -19.029  0.00  0.00    +0.150 HD
ENDBRANCH  29  34
ENDBRANCH  25  27
ENDBRANCH   3  25
TORSDOF 6
ENDMDL
MODEL 8
REMARK VINA RESULT:     -11.4      4.346     11.653
REMARK  Name = 11167602
REMARK  6 active torsions:
REMARK  status: ('A' for Active; 'I' for Inactive)
REMARK    1  A    between atoms: C_2  and  N_10
REMARK    2  A    between atoms: C_3  and  O_25
REMARK    3  A    between atoms: N_9  and  C_15
REMARK    4  A    between atoms: C_16  and  C_24
REMARK    5  A    between atoms: O_25  and  C_27
REMARK    6  A    between atoms: C_29  and  C_34
REMARK                            x       y       z     vdW  Elec       q    Type
REMARK                         _______ _______ _______ _____ _____    ______ ____
ROOT
ATOM      1  F   UNL     1      36.038 -17.229 -21.479  0.00  0.00    -0.203 F 
ATOM      2  C   UNL     1      34.891 -18.924 -22.682  0.00  0.00    +0.079 C 
ATOM      3  C   UNL     1      34.194 -17.059 -24.607  0.00  0.00    +0.148 C 
ATOM      4  C   UNL     1      35.306 -17.611 -22.534  0.00  0.00    +0.157 C 
ATOM      5  C   UNL     1      34.136 -19.325 -23.772  0.00  0.00    +0.020 C 
ATOM      6  C   UNL     1      34.955 -16.672 -23.504  0.00  0.00    +0.068 C 
ATOM      7  C   UNL     1      33.784 -18.385 -24.741  0.00  0.00    +0.039 C 
ENDROOT
BRANCH   2  10
ATOM      8  O   UNL     1      33.422 -19.821 -20.240  0.00  0.00    -0.252 OA
ATOM      9  N   UNL     1      35.231 -21.255 -19.845  0.00  0.00    -0.268 N 
ATOM     10  N   UNL     1      35.246 -19.880 -21.701  0.00  0.00    -0.266 N 
ATOM     11  C   UNL     1      34.517 -20.267 -20.566  0.00  0.00    +0.308 C 
ATOM     12  H   UNL     1      36.099 -21.518 -20.227  0.00  0.00    +0.156 HD
ATOM     13  H   UNL     1      36.113 -20.330 -21.831  0.00  0.00    +0.156 HD
BRANCH   9  15
ATOM     14 CL   UNL     1      33.650 -24.012 -14.861  0.00  0.00    -0.082 Cl
ATOM     15  C   UNL     1      34.867 -21.905 -18.665  0.00  0.00    +0.052 C 
ATOM     16  C   UNL     1      35.444 -22.747 -16.475  0.00  0.00    +0.083 C 
ATOM     17  C   UNL     1      35.809 -22.096 -17.655  0.00  0.00    +0.019 C 
ATOM     18  C   UNL     1      33.561 -22.365 -18.498  0.00  0.00    +0.016 C 
ATOM     19  C   UNL     1      34.138 -23.205 -16.307  0.00  0.00    +0.062 C 
ATOM     20  C   UNL     1      33.196 -23.014 -17.318  0.00  0.00    +0.013 C 
BRANCH  16  24
ATOM     21  F   UNL     1      37.653 -22.281 -15.683  0.00  0.00    -0.166 F 
ATOM     22  F   UNL     1      36.093 -22.476 -14.189  0.00  0.00    -0.166 F 
ATOM     23  F   UNL     1      36.819 -24.238 -15.236  0.00  0.00    -0.166 F 
ATOM     24  C   UNL     1      36.482 -22.929 -15.416  0.00  0.00    +0.419 C 
ENDBRANCH  16  24
ENDBRANCH   9  15
ENDBRANCH   2  10
BRANCH   3  25
ATOM     25  O   UNL     1      33.851 -16.142 -25.553  0.00  0.00    -0.453 OA
BRANCH  25  27
ATOM     26  N   UNL     1      33.202 -12.231 -24.307  0.00  0.00    -0.239 NA
ATOM     27  C   UNL     1      33.634 -14.839 -25.137  0.00  0.00    +0.149 C 
ATOM     28  C   UNL     1      33.293 -14.598 -23.824  0.00  0.00    +0.061 C 
ATOM     29  C   UNL     1      33.088 -13.277 -23.458  0.00  0.00    +0.137 C 
ATOM     30  C   UNL     1      33.764 -13.812 -26.048  0.00  0.00    +0.058 C 
ATOM     31  C   UNL     1      33.537 -12.527 -25.583  0.00  0.00    +0.102 C 
BRANCH  29  34
ATOM     32  O   UNL     1      33.101 -13.661 -21.145  0.00  0.00    -0.268 OA
ATOM     33  N   UNL     1      31.969 -11.782 -21.898  0.00  0.00    -0.298 N 
ATOM     34  C   UNL     1      32.727 -12.943 -22.091  0.00  0.00    +0.264 C 
ATOM     35  C   UNL     1      31.552 -11.305 -20.599  0.00  0.00    +0.111 C 
ATOM     36  H   UNL     1      31.706 -11.261 -22.691  0.00  0.00    +0.150 HD
ENDBRANCH  29  34
ENDBRANCH  25  27
ENDBRANCH   3  25
TORSDOF 6
ENDMDL
MODEL 9
REMARK VINA RESULT:     -11.4      4.382     11.491
REMARK  Name = 11167602
REMARK  6 active torsions:
REMARK  status: ('A' for Active; 'I' for Inactive)
REMARK    1  A    between atoms: C_2  and  N_10
REMARK    2  A    between atoms: C_3  and  O_25
REMARK    3  A    between atoms: N_9  and  C_15
REMARK    4  A    between atoms: C_16  and  C_24
REMARK    5  A    between atoms: O_25  and  C_27
REMARK    6  A    between atoms: C_29  and  C_34
REMARK                            x       y       z     vdW  Elec       q    Type
REMARK                         _______ _______ _______ _____ _____    ______ ____
ROOT
ATOM      1  F   UNL     1      32.724 -20.543 -20.539  0.00  0.00    -0.203 F 
ATOM      2  C   UNL     1      34.988 -20.736 -19.850  0.00  0.00    +0.079 C 
ATOM      3  C   UNL     1      35.729 -18.991 -21.870  0.00  0.00    +0.148 C 
ATOM      4  C   UNL     1      34.014 -20.217 -20.688  0.00  0.00    +0.157 C 
ATOM      5  C   UNL     1      36.324 -20.399 -20.000  0.00  0.00    +0.020 C 
ATOM      6  C   UNL     1      34.388 -19.339 -21.705  0.00  0.00    +0.068 C 
ATOM      7  C   UNL     1      36.696 -19.522 -21.018  0.00  0.00    +0.039 C 
ENDROOT
BRANCH   2  10
ATOM      8  O   UNL     1      36.352 -21.383 -17.273  0.00  0.00    -0.252 OA
ATOM      9  N   UNL     1      34.575 -22.852 -16.859  0.00  0.00    -0.268 N 
ATOM     10  N   UNL     1      34.613 -21.626 -18.816  0.00  0.00    -0.266 N 
ATOM     11  C   UNL     1      35.293 -21.896 -17.618  0.00  0.00    +0.308 C 
ATOM     12  H   UNL     1      33.738 -23.176 -17.263  0.00  0.00    +0.156 HD
ATOM     13  H   UNL     1      33.770 -22.116 -18.955  0.00  0.00    +0.156 HD
BRANCH   9  15
ATOM     14 CL   UNL     1      35.901 -25.144 -11.574  0.00  0.00    -0.082 Cl
ATOM     15  C   UNL     1      34.897 -23.396 -15.615  0.00  0.00    +0.052 C 
ATOM     16  C   UNL     1      36.513 -24.393 -14.122  0.00  0.00    +0.083 C 
ATOM     17  C   UNL     1      36.192 -23.850 -15.366  0.00  0.00    +0.019 C 
ATOM     18  C   UNL     1      33.923 -23.485 -14.621  0.00  0.00    +0.016 C 
ATOM     19  C   UNL     1      35.540 -24.480 -13.127  0.00  0.00    +0.062 C 
ATOM     20  C   UNL     1      34.245 -24.027 -13.377  0.00  0.00    +0.013 C 
BRANCH  16  24
ATOM     21  F   UNL     1      38.779 -24.498 -14.881  0.00  0.00    -0.166 F 
ATOM     22  F   UNL     1      38.465 -24.394 -12.738  0.00  0.00    -0.166 F 
ATOM     23  F   UNL     1      37.997 -26.224 -13.816  0.00  0.00    -0.166 F 
ATOM     24  C   UNL     1      37.912 -24.865 -13.894  0.00  0.00    +0.419 C 
ENDBRANCH  16  24
ENDBRANCH   9  15
ENDBRANCH   2  10
BRANCH   3  25
ATOM     25  O   UNL     1      36.093 -18.134 -22.863  0.00  0.00    -0.453 OA
BRANCH  25  27
ATOM     26  N   UNL     1      33.444 -15.091 -23.860  0.00  0.00    -0.239 NA
ATOM     27  C   UNL     1      35.210 -17.120 -23.194  0.00  0.00    +0.149 C 
ATOM     28  C   UNL     1      34.908 -16.156 -22.258  0.00  0.00    +0.061 C 
ATOM     29  C   UNL     1      34.020 -15.162 -22.639  0.00  0.00    +0.137 C 
ATOM     30  C   UNL     1      34.652 -17.099 -24.455  0.00  0.00    +0.058 C 
ATOM     31  C   UNL     1      33.775 -16.065 -24.738  0.00  0.00    +0.102 C 
BRANCH  29  34
ATOM     32  O   UNL     1      34.282 -13.961 -20.642  0.00  0.00    -0.268 OA
ATOM     33  N   UNL     1      32.593 -13.274 -22.075  0.00  0.00    -0.298 N 
ATOM     34  C   UNL     1      33.654 -14.110 -21.707  0.00  0.00    +0.264 C 
ATOM     35  C   UNL     1      32.126 -12.170 -21.268  0.00  0.00    +0.111 C 
ATOM     36  H   UNL     1      32.139 -13.448 -22.931  0.00  0.00    +0.150 HD
ENDBRANCH  29  34
ENDBRANCH  25  27
ENDBRANCH   3  25
TORSDOF 6
ENDMDL
