MODEL 1
REMARK VINA RESULT:     -11.3      0.000      0.000
REMARK  Name = 10200651
REMARK  5 active torsions:
REMARK  status: ('A' for Active; 'I' for Inactive)
REMARK    1  A    between atoms: C_1  and  C_7
REMARK    2  A    between atoms: C_4  and  C_22
REMARK    3  A    between atoms: C_10  and  C_17
REMARK    4  A    between atoms: N_21  and  C_24
REMARK    5  A    between atoms: C_27  and  C_31
REMARK                            x       y       z     vdW  Elec       q    Type
REMARK                         _______ _______ _______ _____ _____    ______ ____
ROOT
ATOM      1  C   UNL     1      34.740 -19.365 -21.468  0.00  0.00    -0.000 C 
ATOM      2  C   UNL     1      33.595 -19.966 -20.945  0.00  0.00    +0.000 C 
ATOM      3  C   UNL     1      35.994 -19.685 -20.952  0.00  0.00    +0.000 C 
ATOM      4  C   UNL     1      34.959 -21.189 -19.413  0.00  0.00    +0.054 C 
ATOM      5  C   UNL     1      33.706 -20.889 -19.905  0.00  0.00    +0.005 C 
ATOM      6  C   UNL     1      36.106 -20.608 -19.912  0.00  0.00    +0.005 C 
ENDROOT
BRANCH   1   7
ATOM      7  C   UNL     1      34.624 -18.407 -22.546  0.00  0.00    -0.004 C 
ATOM      8  C   UNL     1      34.632 -18.817 -23.881  0.00  0.00    -0.022 C 
ATOM      9  C   UNL     1      34.502 -17.050 -22.238  0.00  0.00    +0.004 C 
ATOM     10  C   UNL     1      34.391 -16.107 -23.260  0.00  0.00    +0.055 C 
ATOM     11  C   UNL     1      34.521 -17.874 -24.903  0.00  0.00    -0.004 C 
ATOM     12  C   UNL     1      34.399 -16.520 -24.593  0.00  0.00    +0.004 C 
ATOM     13  C   UNL     1      34.761 -20.259 -24.252  0.00  0.00    +0.031 C 
BRANCH  10  17
ATOM     14  O   UNL     1      34.165 -13.867 -24.003  0.00  0.00    -0.420 OA
ATOM     15  N   UNL     1      34.236 -14.106 -21.780  0.00  0.00    -0.107 NA
ATOM     16  N   UNL     1      34.104 -12.759 -22.061  0.00  0.00    -0.111 NA
ATOM     17  C   UNL     1      34.266 -14.707 -22.940  0.00  0.00    +0.250 A 
ATOM     18  C   UNL     1      34.069 -12.666 -23.370  0.00  0.00    +0.227 A 
ATOM     19  C   UNL     1      33.941 -11.478 -24.221  0.00  0.00    +0.097 C 
ENDBRANCH  10  17
ENDBRANCH   1   7
BRANCH   4  22
ATOM     20  O   UNL     1      34.455 -23.224 -18.406  0.00  0.00    -0.270 OA
ATOM     21  N   UNL     1      35.921 -21.793 -17.252  0.00  0.00    -0.280 N 
ATOM     22  C   UNL     1      35.077 -22.172 -18.304  0.00  0.00    +0.249 C 
ATOM     23  H   UNL     1      36.342 -20.907 -17.334  0.00  0.00    +0.155 HD
BRANCH  21  24
ATOM     24  C   UNL     1      36.239 -22.517 -16.102  0.00  0.00    +0.051 C 
ATOM     25  C   UNL     1      35.230 -22.909 -15.222  0.00  0.00    +0.025 C 
ATOM     26  C   UNL     1      37.566 -22.850 -15.833  0.00  0.00    +0.015 C 
ATOM     27  C   UNL     1      35.549 -23.633 -14.073  0.00  0.00    +0.070 C 
ATOM     28  C   UNL     1      37.886 -23.574 -14.684  0.00  0.00    +0.002 C 
ATOM     29  C   UNL     1      36.877 -23.964 -13.804  0.00  0.00    +0.010 C 
BRANCH  27  31
ATOM     30  N   UNL     1      33.676 -24.360 -12.438  0.00  0.00    -0.191 NA
ATOM     31  C   UNL     1      34.516 -24.034 -13.171  0.00  0.00    +0.100 C 
ENDBRANCH  27  31
ENDBRANCH  21  24
ENDBRANCH   4  22
TORSDOF 5
ENDMDL
MODEL 2
REMARK VINA RESULT:     -11.2      1.196      1.872
REMARK  Name = 10200651
REMARK  5 active torsions:
REMARK  status: ('A' for Active; 'I' for Inactive)
REMARK    1  A    between atoms: C_1  and  C_7
REMARK    2  A    between atoms: C_4  and  C_22
REMARK    3  A    between atoms: C_10  and  C_17
REMARK    4  A    between atoms: N_21  and  C_24
REMARK    5  A    between atoms: C_27  and  C_31
REMARK                            x       y       z     vdW  Elec       q    Type
REMARK                         _______ _______ _______ _____ _____    ______ ____
ROOT
ATOM      1  C   UNL     1      34.513 -19.653 -21.287  0.00  0.00    -0.000 C 
ATOM      2  C   UNL     1      35.700 -20.150 -20.748  0.00  0.00    +0.000 C 
ATOM      3  C   UNL     1      33.285 -20.098 -20.800  0.00  0.00    +0.000 C 
ATOM      4  C   UNL     1      34.430 -21.516 -19.257  0.00  0.00    +0.054 C 
ATOM      5  C   UNL     1      35.658 -21.093 -19.721  0.00  0.00    +0.005 C 
ATOM      6  C   UNL     1      33.243 -21.041 -19.773  0.00  0.00    +0.005 C 
ENDROOT
BRANCH   1   7
ATOM      7  C   UNL     1      34.558 -18.674 -22.353  0.00  0.00    -0.004 C 
ATOM      8  C   UNL     1      34.718 -19.063 -23.684  0.00  0.00    -0.022 C 
ATOM      9  C   UNL     1      34.437 -17.320 -22.035  0.00  0.00    +0.004 C 
ATOM     10  C   UNL     1      34.478 -16.358 -23.045  0.00  0.00    +0.055 C 
ATOM     11  C   UNL     1      34.759 -18.102 -24.693  0.00  0.00    -0.004 C 
ATOM     12  C   UNL     1      34.638 -16.750 -24.374  0.00  0.00    +0.004 C 
ATOM     13  C   UNL     1      34.850 -20.502 -24.065  0.00  0.00    +0.031 C 
BRANCH  10  17
ATOM     14  O   UNL     1      34.177 -14.120 -23.768  0.00  0.00    -0.420 OA
ATOM     15  N   UNL     1      34.387 -14.360 -21.554  0.00  0.00    -0.107 NA
ATOM     16  N   UNL     1      34.221 -13.015 -21.824  0.00  0.00    -0.111 NA
ATOM     17  C   UNL     1      34.354 -14.960 -22.715  0.00  0.00    +0.250 A 
ATOM     18  C   UNL     1      34.103 -12.922 -23.127  0.00  0.00    +0.227 A 
ATOM     19  C   UNL     1      33.907 -11.734 -23.967  0.00  0.00    +0.097 C 
ENDBRANCH  10  17
ENDBRANCH   1   7
BRANCH   4  22
ATOM     20  O   UNL     1      33.724 -23.538 -18.349  0.00  0.00    -0.270 OA
ATOM     21  N   UNL     1      35.136 -22.204 -17.024  0.00  0.00    -0.280 N 
ATOM     22  C   UNL     1      34.385 -22.522 -18.164  0.00  0.00    +0.249 C 
ATOM     23  H   UNL     1      35.609 -21.340 -17.046  0.00  0.00    +0.155 HD
BRANCH  21  24
ATOM     24  C   UNL     1      35.300 -22.962 -15.864  0.00  0.00    +0.051 C 
ATOM     25  C   UNL     1      36.575 -23.360 -15.465  0.00  0.00    +0.025 C 
ATOM     26  C   UNL     1      34.188 -23.321 -15.103  0.00  0.00    +0.015 C 
ATOM     27  C   UNL     1      36.739 -24.118 -14.305  0.00  0.00    +0.070 C 
ATOM     28  C   UNL     1      34.350 -24.078 -13.943  0.00  0.00    +0.002 C 
ATOM     29  C   UNL     1      35.626 -24.477 -13.545  0.00  0.00    +0.010 C 
BRANCH  27  31
ATOM     30  N   UNL     1      39.108 -24.859 -13.563  0.00  0.00    -0.191 NA
ATOM     31  C   UNL     1      38.045 -24.527 -13.896  0.00  0.00    +0.100 C 
ENDBRANCH  27  31
ENDBRANCH  21  24
ENDBRANCH   4  22
TORSDOF 5
ENDMDL
MODEL 3
REMARK VINA RESULT:     -11.0      4.511     12.985
REMARK  Name = 10200651
REMARK  5 active torsions:
REMARK  status: ('A' for Active; 'I' for Inactive)
REMARK    1  A    between atoms: C_1  and  C_7
REMARK    2  A    between atoms: C_4  and  C_22
REMARK    3  A    between atoms: C_10  and  C_17
REMARK    4  A    between atoms: N_21  and  C_24
REMARK    5  A    between atoms: C_27  and  C_31
REMARK                            x       y       z     vdW  Elec       q    Type
REMARK                         _______ _______ _______ _____ _____    ______ ____
ROOT
ATOM      1  C   UNL     1      33.392 -13.208 -23.220  0.00  0.00    -0.000 C 
ATOM      2  C   UNL     1      33.943 -12.102 -23.868  0.00  0.00    +0.000 C 
ATOM      3  C   UNL     1      32.493 -13.025 -22.170  0.00  0.00    +0.000 C 
ATOM      4  C   UNL     1      32.704 -10.660 -22.423  0.00  0.00    +0.054 C 
ATOM      5  C   UNL     1      33.595 -10.813 -23.465  0.00  0.00    +0.005 C 
ATOM      6  C   UNL     1      32.146 -11.736 -21.766  0.00  0.00    +0.005 C 
ENDROOT
BRANCH   1   7
ATOM      7  C   UNL     1      33.753 -14.545 -23.639  0.00  0.00    -0.004 C 
ATOM      8  C   UNL     1      33.561 -14.966 -24.956  0.00  0.00    -0.022 C 
ATOM      9  C   UNL     1      34.302 -15.424 -22.702  0.00  0.00    +0.004 C 
ATOM     10  C   UNL     1      34.657 -16.718 -23.081  0.00  0.00    +0.055 C 
ATOM     11  C   UNL     1      33.916 -16.261 -25.335  0.00  0.00    -0.004 C 
ATOM     12  C   UNL     1      34.465 -17.136 -24.398  0.00  0.00    +0.004 C 
ATOM     13  C   UNL     1      32.976 -14.057 -25.987  0.00  0.00    +0.031 C 
BRANCH  10  17
ATOM     14  O   UNL     1      34.448 -18.687 -21.778  0.00  0.00    -0.420 OA
ATOM     15  N   UNL     1      36.375 -17.587 -21.495  0.00  0.00    -0.107 NA
ATOM     16  N   UNL     1      36.396 -18.702 -20.678  0.00  0.00    -0.111 NA
ATOM     17  C   UNL     1      35.224 -17.624 -22.113  0.00  0.00    +0.250 A 
ATOM     18  C   UNL     1      35.252 -19.313 -20.875  0.00  0.00    +0.227 A 
ATOM     19  C   UNL     1      34.734 -20.547 -20.272  0.00  0.00    +0.097 C 
ENDBRANCH  10  17
ENDBRANCH   1   7
BRANCH   4  22
ATOM     20  O   UNL     1      32.303  -9.054 -20.789  0.00  0.00    -0.270 OA
ATOM     21  N   UNL     1      32.078  -8.380 -23.030  0.00  0.00    -0.280 N 
ATOM     22  C   UNL     1      32.334  -9.286 -21.993  0.00  0.00    +0.249 C 
ATOM     23  H   UNL     1      32.149  -8.739 -23.945  0.00  0.00    +0.155 HD
BRANCH  21  24
ATOM     24  C   UNL     1      31.737  -7.030 -22.929  0.00  0.00    +0.051 C 
ATOM     25  C   UNL     1      32.226  -6.115 -23.860  0.00  0.00    +0.025 C 
ATOM     26  C   UNL     1      30.907  -6.597 -21.895  0.00  0.00    +0.015 C 
ATOM     27  C   UNL     1      31.885  -4.766 -23.758  0.00  0.00    +0.070 C 
ATOM     28  C   UNL     1      30.565  -5.249 -21.792  0.00  0.00    +0.002 C 
ATOM     29  C   UNL     1      31.055  -4.334 -22.723  0.00  0.00    +0.010 C 
BRANCH  27  31
ATOM     30  N   UNL     1      32.793  -3.064 -25.487  0.00  0.00    -0.191 NA
ATOM     31  C   UNL     1      32.385  -3.828 -24.711  0.00  0.00    +0.100 C 
ENDBRANCH  27  31
ENDBRANCH  21  24
ENDBRANCH   4  22
TORSDOF 5
ENDMDL
MODEL 4
REMARK VINA RESULT:     -11.0      2.401     11.042
REMARK  Name = 10200651
REMARK  5 active torsions:
REMARK  status: ('A' for Active; 'I' for Inactive)
REMARK    1  A    between atoms: C_1  and  C_7
REMARK    2  A    between atoms: C_4  and  C_22
REMARK    3  A    between atoms: C_10  and  C_17
REMARK    4  A    between atoms: N_21  and  C_24
REMARK    5  A    between atoms: C_27  and  C_31
REMARK                            x       y       z     vdW  Elec       q    Type
REMARK                         _______ _______ _______ _____ _____    ______ ____
ROOT
ATOM      1  C   UNL     1      35.146 -22.421 -17.272  0.00  0.00    -0.000 C 
ATOM      2  C   UNL     1      36.386 -21.812 -17.465  0.00  0.00    +0.000 C 
ATOM      3  C   UNL     1      34.121 -22.226 -18.197  0.00  0.00    +0.000 C 
ATOM      4  C   UNL     1      35.571 -20.831 -19.484  0.00  0.00    +0.054 C 
ATOM      5  C   UNL     1      36.601 -21.008 -18.584  0.00  0.00    +0.005 C 
ATOM      6  C   UNL     1      34.336 -21.422 -19.316  0.00  0.00    +0.005 C 
ENDROOT
BRANCH   1   7
ATOM      7  C   UNL     1      34.923 -23.255 -16.111  0.00  0.00    -0.004 C 
ATOM      8  C   UNL     1      33.633 -23.502 -15.635  0.00  0.00    -0.022 C 
ATOM      9  C   UNL     1      36.022 -23.820 -15.461  0.00  0.00    +0.004 C 
ATOM     10  C   UNL     1      35.833 -24.627 -14.338  0.00  0.00    +0.055 C 
ATOM     11  C   UNL     1      33.444 -24.308 -14.513  0.00  0.00    -0.004 C 
ATOM     12  C   UNL     1      34.543 -24.872 -13.866  0.00  0.00    +0.004 C 
ATOM     13  C   UNL     1      32.432 -22.916 -16.303  0.00  0.00    +0.031 C 
BRANCH  10  17
ATOM     14  O   UNL     1      38.144 -25.156 -14.348  0.00  0.00    -0.420 OA
ATOM     15  N   UNL     1      37.054 -25.788 -12.499  0.00  0.00    -0.107 NA
ATOM     16  N   UNL     1      38.378 -26.160 -12.363  0.00  0.00    -0.111 NA
ATOM     17  C   UNL     1      36.969 -25.209 -13.668  0.00  0.00    +0.250 A 
ATOM     18  C   UNL     1      38.976 -25.773 -13.465  0.00  0.00    +0.227 A 
ATOM     19  C   UNL     1      40.381 -25.908 -13.865  0.00  0.00    +0.097 C 
ENDBRANCH  10  17
ENDBRANCH   1   7
BRANCH   4  22
ATOM     20  O   UNL     1      36.953 -19.845 -21.073  0.00  0.00    -0.270 OA
ATOM     21  N   UNL     1      34.648 -19.410 -21.242  0.00  0.00    -0.280 N 
ATOM     22  C   UNL     1      35.800 -19.973 -20.676  0.00  0.00    +0.249 C 
ATOM     23  H   UNL     1      33.799 -19.619 -20.789  0.00  0.00    +0.155 HD
BRANCH  21  24
ATOM     24  C   UNL     1      34.557 -18.591 -22.368  0.00  0.00    +0.051 C 
ATOM     25  C   UNL     1      34.631 -17.206 -22.232  0.00  0.00    +0.025 C 
ATOM     26  C   UNL     1      34.391 -19.159 -23.631  0.00  0.00    +0.015 C 
ATOM     27  C   UNL     1      34.539 -16.387 -23.358  0.00  0.00    +0.070 C 
ATOM     28  C   UNL     1      34.298 -18.343 -24.758  0.00  0.00    +0.002 C 
ATOM     29  C   UNL     1      34.372 -16.956 -24.620  0.00  0.00    +0.010 C 
BRANCH  27  31
ATOM     30  N   UNL     1      34.677 -13.813 -23.105  0.00  0.00    -0.191 NA
ATOM     31  C   UNL     1      34.615 -14.968 -23.219  0.00  0.00    +0.100 C 
ENDBRANCH  27  31
ENDBRANCH  21  24
ENDBRANCH   4  22
TORSDOF 5
ENDMDL
MODEL 5
REMARK VINA RESULT:     -10.8      2.268     10.715
REMARK  Name = 10200651
REMARK  5 active torsions:
REMARK  status: ('A' for Active; 'I' for Inactive)
REMARK    1  A    between atoms: C_1  and  C_7
REMARK    2  A    between atoms: C_4  and  C_22
REMARK    3  A    between atoms: C_10  and  C_17
REMARK    4  A    between atoms: N_21  and  C_24
REMARK    5  A    between atoms: C_27  and  C_31
REMARK                            x       y       z     vdW  Elec       q    Type
REMARK                         _______ _______ _______ _____ _____    ______ ____
ROOT
ATOM      1  C   UNL     1      35.510 -22.367 -17.004  0.00  0.00    -0.000 C 
ATOM      2  C   UNL     1      36.680 -21.634 -17.204  0.00  0.00    +0.000 C 
ATOM      3  C   UNL     1      34.498 -22.343 -17.962  0.00  0.00    +0.000 C 
ATOM      4  C   UNL     1      35.822 -20.871 -19.298  0.00  0.00    +0.054 C 
ATOM      5  C   UNL     1      36.838 -20.877 -18.365  0.00  0.00    +0.005 C 
ATOM      6  C   UNL     1      34.656 -21.586 -19.123  0.00  0.00    +0.005 C 
ENDROOT
BRANCH   1   7
ATOM      7  C   UNL     1      35.347 -23.152 -15.799  0.00  0.00    -0.004 C 
ATOM      8  C   UNL     1      36.452 -23.592 -15.068  0.00  0.00    -0.022 C 
ATOM      9  C   UNL     1      34.058 -23.471 -15.367  0.00  0.00    +0.004 C 
ATOM     10  C   UNL     1      33.874 -24.228 -14.210  0.00  0.00    +0.055 C 
ATOM     11  C   UNL     1      36.268 -24.349 -13.911  0.00  0.00    -0.004 C 
ATOM     12  C   UNL     1      34.980 -24.666 -13.481  0.00  0.00    +0.004 C 
ATOM     13  C   UNL     1      37.847 -23.272 -15.497  0.00  0.00    +0.031 C 
BRANCH  10  17
ATOM     14  O   UNL     1      31.554 -24.367 -14.678  0.00  0.00    -0.420 OA
ATOM     15  N   UNL     1      32.125 -25.010 -12.613  0.00  0.00    -0.107 NA
ATOM     16  N   UNL     1      30.755 -25.144 -12.739  0.00  0.00    -0.111 NA
ATOM     17  C   UNL     1      32.542 -24.557 -13.765  0.00  0.00    +0.250 A 
ATOM     18  C   UNL     1      30.466 -24.757 -13.959  0.00  0.00    +0.227 A 
ATOM     19  C   UNL     1      29.167 -24.689 -14.637  0.00  0.00    +0.097 C 
ENDBRANCH  10  17
ENDBRANCH   1   7
BRANCH   4  22
ATOM     20  O   UNL     1      37.120 -19.962 -21.001  0.00  0.00    -0.270 OA
ATOM     21  N   UNL     1      34.812 -19.512 -21.058  0.00  0.00    -0.280 N 
ATOM     22  C   UNL     1      35.990 -20.064 -20.535  0.00  0.00    +0.249 C 
ATOM     23  H   UNL     1      33.988 -19.695 -20.550  0.00  0.00    +0.155 HD
BRANCH  21  24
ATOM     24  C   UNL     1      34.663 -18.739 -22.209  0.00  0.00    +0.051 C 
ATOM     25  C   UNL     1      34.726 -17.348 -22.128  0.00  0.00    +0.025 C 
ATOM     26  C   UNL     1      34.452 -19.357 -23.441  0.00  0.00    +0.015 C 
ATOM     27  C   UNL     1      34.577 -16.574 -23.280  0.00  0.00    +0.070 C 
ATOM     28  C   UNL     1      34.302 -18.584 -24.593  0.00  0.00    +0.002 C 
ATOM     29  C   UNL     1      34.364 -17.193 -24.512  0.00  0.00    +0.010 C 
BRANCH  27  31
ATOM     30  N   UNL     1      34.692 -13.991 -23.131  0.00  0.00    -0.191 NA
ATOM     31  C   UNL     1      34.640 -15.150 -23.198  0.00  0.00    +0.100 C 
ENDBRANCH  27  31
ENDBRANCH  21  24
ENDBRANCH   4  22
TORSDOF 5
ENDMDL
MODEL 6
REMARK VINA RESULT:     -10.7      2.773      3.759
REMARK  Name = 10200651
REMARK  5 active torsions:
REMARK  status: ('A' for Active; 'I' for Inactive)
REMARK    1  A    between atoms: C_1  and  C_7
REMARK    2  A    between atoms: C_4  and  C_22
REMARK    3  A    between atoms: C_10  and  C_17
REMARK    4  A    between atoms: N_21  and  C_24
REMARK    5  A    between atoms: C_27  and  C_31
REMARK                            x       y       z     vdW  Elec       q    Type
REMARK                         _______ _______ _______ _____ _____    ______ ____
ROOT
ATOM      1  C   UNL     1      34.694 -20.209 -20.416  0.00  0.00    -0.000 C 
ATOM      2  C   UNL     1      35.628 -21.043 -19.800  0.00  0.00    +0.000 C 
ATOM      3  C   UNL     1      33.334 -20.370 -20.154  0.00  0.00    +0.000 C 
ATOM      4  C   UNL     1      33.849 -22.176 -18.680  0.00  0.00    +0.054 C 
ATOM      5  C   UNL     1      35.200 -22.038 -18.921  0.00  0.00    +0.005 C 
ATOM      6  C   UNL     1      32.907 -21.365 -19.276  0.00  0.00    +0.005 C 
ENDROOT
BRANCH   1   7
ATOM      7  C   UNL     1      35.139 -19.176 -21.327  0.00  0.00    -0.004 C 
ATOM      8  C   UNL     1      36.398 -18.588 -21.194  0.00  0.00    -0.022 C 
ATOM      9  C   UNL     1      34.287 -18.766 -22.355  0.00  0.00    +0.004 C 
ATOM     10  C   UNL     1      34.692 -17.772 -23.245  0.00  0.00    +0.055 C 
ATOM     11  C   UNL     1      36.803 -17.593 -22.084  0.00  0.00    -0.004 C 
ATOM     12  C   UNL     1      35.951 -17.186 -23.110  0.00  0.00    +0.004 C 
ATOM     13  C   UNL     1      37.338 -18.998 -20.107  0.00  0.00    +0.031 C 
BRANCH  10  17
ATOM     14  O   UNL     1      33.883 -16.036 -24.644  0.00  0.00    -0.420 OA
ATOM     15  N   UNL     1      32.940 -18.033 -25.002  0.00  0.00    -0.107 NA
ATOM     16  N   UNL     1      32.374 -17.129 -25.882  0.00  0.00    -0.111 NA
ATOM     17  C   UNL     1      33.810 -17.350 -24.306  0.00  0.00    +0.250 A 
ATOM     18  C   UNL     1      32.953 -15.978 -25.636  0.00  0.00    +0.227 A 
ATOM     19  C   UNL     1      32.743 -14.670 -26.268  0.00  0.00    +0.097 C 
ENDBRANCH  10  17
ENDBRANCH   1   7
BRANCH   4  22
ATOM     20  O   UNL     1      33.447 -24.400 -18.130  0.00  0.00    -0.270 OA
ATOM     21  N   UNL     1      32.963 -22.788 -16.489  0.00  0.00    -0.280 N 
ATOM     22  C   UNL     1      33.393 -23.238 -17.744  0.00  0.00    +0.249 C 
ATOM     23  H   UNL     1      32.986 -21.813 -16.348  0.00  0.00    +0.155 HD
BRANCH  21  24
ATOM     24  C   UNL     1      32.509 -23.551 -15.412  0.00  0.00    +0.051 C 
ATOM     25  C   UNL     1      31.182 -23.978 -15.369  0.00  0.00    +0.025 C 
ATOM     26  C   UNL     1      33.383 -23.887 -14.378  0.00  0.00    +0.015 C 
ATOM     27  C   UNL     1      30.729 -24.741 -14.293  0.00  0.00    +0.070 C 
ATOM     28  C   UNL     1      32.931 -24.649 -13.301  0.00  0.00    +0.002 C 
ATOM     29  C   UNL     1      31.603 -25.076 -13.259  0.00  0.00    +0.010 C 
BRANCH  27  31
ATOM     30  N   UNL     1      28.264 -25.533 -14.212  0.00  0.00    -0.191 NA
ATOM     31  C   UNL     1      29.370 -25.178 -14.248  0.00  0.00    +0.100 C 
ENDBRANCH  27  31
ENDBRANCH  21  24
ENDBRANCH   4  22
TORSDOF 5
ENDMDL
MODEL 7
REMARK VINA RESULT:     -10.5      2.445     11.082
REMARK  Name = 10200651
REMARK  5 active torsions:
REMARK  status: ('A' for Active; 'I' for Inactive)
REMARK    1  A    between atoms: C_1  and  C_7
REMARK    2  A    between atoms: C_4  and  C_22
REMARK    3  A    between atoms: C_10  and  C_17
REMARK    4  A    between atoms: N_21  and  C_24
REMARK    5  A    between atoms: C_27  and  C_31
REMARK                            x       y       z     vdW  Elec       q    Type
REMARK                         _______ _______ _______ _____ _____    ______ ____
ROOT
ATOM      1  C   UNL     1      33.928 -22.657 -16.817  0.00  0.00    -0.000 C 
ATOM      2  C   UNL     1      35.280 -22.362 -16.996  0.00  0.00    +0.000 C 
ATOM      3  C   UNL     1      33.001 -22.302 -17.796  0.00  0.00    +0.000 C 
ATOM      4  C   UNL     1      34.767 -21.372 -19.108  0.00  0.00    +0.054 C 
ATOM      5  C   UNL     1      35.705 -21.712 -18.155  0.00  0.00    +0.005 C 
ATOM      6  C   UNL     1      33.426 -21.652 -18.955  0.00  0.00    +0.005 C 
ENDROOT
BRANCH   1   7
ATOM      7  C   UNL     1      33.488 -23.332 -15.615  0.00  0.00    -0.004 C 
ATOM      8  C   UNL     1      32.134 -23.573 -15.377  0.00  0.00    -0.022 C 
ATOM      9  C   UNL     1      34.442 -23.744 -14.681  0.00  0.00    +0.004 C 
ATOM     10  C   UNL     1      34.042 -24.395 -13.514  0.00  0.00    +0.055 C 
ATOM     11  C   UNL     1      31.735 -24.224 -14.209  0.00  0.00    -0.004 C 
ATOM     12  C   UNL     1      32.688 -24.636 -13.279  0.00  0.00    +0.004 C 
ATOM     13  C   UNL     1      31.084 -23.147 -16.351  0.00  0.00    +0.031 C 
BRANCH  10  17
ATOM     14  O   UNL     1      36.255 -25.113 -13.055  0.00  0.00    -0.420 OA
ATOM     15  N   UNL     1      34.932 -24.974 -11.257  0.00  0.00    -0.107 NA
ATOM     16  N   UNL     1      36.178 -25.402 -10.839  0.00  0.00    -0.111 NA
ATOM     17  C   UNL     1      35.028 -24.820 -12.551  0.00  0.00    +0.250 A 
ATOM     18  C   UNL     1      36.917 -25.469 -11.921  0.00  0.00    +0.227 A 
ATOM     19  C   UNL     1      38.322 -25.865 -12.072  0.00  0.00    +0.097 C 
ENDBRANCH  10  17
ENDBRANCH   1   7
BRANCH   4  22
ATOM     20  O   UNL     1      36.341 -20.939 -20.765  0.00  0.00    -0.270 OA
ATOM     21  N   UNL     1      34.289 -19.800 -20.913  0.00  0.00    -0.280 N 
ATOM     22  C   UNL     1      35.219 -20.678 -20.342  0.00  0.00    +0.249 C 
ATOM     23  H   UNL     1      33.431 -19.710 -20.437  0.00  0.00    +0.155 HD
BRANCH  21  24
ATOM     24  C   UNL     1      34.427 -19.039 -22.075  0.00  0.00    +0.051 C 
ATOM     25  C   UNL     1      34.525 -17.650 -21.992  0.00  0.00    +0.025 C 
ATOM     26  C   UNL     1      34.467 -19.667 -23.319  0.00  0.00    +0.015 C 
ATOM     27  C   UNL     1      34.662 -16.889 -23.153  0.00  0.00    +0.070 C 
ATOM     28  C   UNL     1      34.604 -18.908 -24.481  0.00  0.00    +0.002 C 
ATOM     29  C   UNL     1      34.701 -17.519 -24.397  0.00  0.00    +0.010 C 
BRANCH  27  31
ATOM     30  N   UNL     1      34.844 -14.310 -22.999  0.00  0.00    -0.191 NA
ATOM     31  C   UNL     1      34.762 -15.467 -23.069  0.00  0.00    +0.100 C 
ENDBRANCH  27  31
ENDBRANCH  21  24
ENDBRANCH   4  22
TORSDOF 5
ENDMDL
MODEL 8
REMARK VINA RESULT:     -10.5      1.838      2.258
REMARK  Name = 10200651
REMARK  5 active torsions:
REMARK  status: ('A' for Active; 'I' for Inactive)
REMARK    1  A    between atoms: C_1  and  C_7
REMARK    2  A    between atoms: C_4  and  C_22
REMARK    3  A    between atoms: C_10  and  C_17
REMARK    4  A    between atoms: N_21  and  C_24
REMARK    5  A    between atoms: C_27  and  C_31
REMARK                            x       y       z     vdW  Elec       q    Type
REMARK                         _______ _______ _______ _____ _____    ______ ____
ROOT
ATOM      1  C   UNL     1      34.546 -19.523 -21.342  0.00  0.00    -0.000 C 
ATOM      2  C   UNL     1      33.340 -20.010 -20.836  0.00  0.00    +0.000 C 
ATOM      3  C   UNL     1      35.753 -19.918 -20.768  0.00  0.00    +0.000 C 
ATOM      4  C   UNL     1      34.551 -21.268 -19.207  0.00  0.00    +0.054 C 
ATOM      5  C   UNL     1      33.342 -20.892 -19.757  0.00  0.00    +0.005 C 
ATOM      6  C   UNL     1      35.756 -20.801 -19.688  0.00  0.00    +0.005 C 
ENDROOT
BRANCH   1   7
ATOM      7  C   UNL     1      34.543 -18.607 -22.462  0.00  0.00    -0.004 C 
ATOM      8  C   UNL     1      34.660 -19.070 -23.774  0.00  0.00    -0.022 C 
ATOM      9  C   UNL     1      34.420 -17.237 -22.218  0.00  0.00    +0.004 C 
ATOM     10  C   UNL     1      34.416 -16.334 -23.281  0.00  0.00    +0.055 C 
ATOM     11  C   UNL     1      34.656 -18.167 -24.837  0.00  0.00    -0.004 C 
ATOM     12  C   UNL     1      34.533 -16.800 -24.591  0.00  0.00    +0.004 C 
ATOM     13  C   UNL     1      34.793 -20.527 -24.077  0.00  0.00    +0.031 C 
BRANCH  10  17
ATOM     14  O   UNL     1      34.129 -14.137 -24.125  0.00  0.00    -0.420 OA
ATOM     15  N   UNL     1      34.309 -14.261 -21.898  0.00  0.00    -0.107 NA
ATOM     16  N   UNL     1      34.148 -12.931 -22.241  0.00  0.00    -0.111 NA
ATOM     17  C   UNL     1      34.290 -14.920 -23.027  0.00  0.00    +0.250 A 
ATOM     18  C   UNL     1      34.049 -12.907 -23.549  0.00  0.00    +0.227 A 
ATOM     19  C   UNL     1      33.866 -11.765 -24.452  0.00  0.00    +0.097 C 
ENDBRANCH  10  17
ENDBRANCH   1   7
BRANCH   4  22
ATOM     20  O   UNL     1      35.613 -22.752 -17.765  0.00  0.00    -0.270 OA
ATOM     21  N   UNL     1      33.324 -22.358 -17.400  0.00  0.00    -0.280 N 
ATOM     22  C   UNL     1      34.553 -22.208 -18.056  0.00  0.00    +0.249 C 
ATOM     23  H   UNL     1      32.571 -21.843 -17.771  0.00  0.00    +0.155 HD
BRANCH  21  24
ATOM     24  C   UNL     1      33.035 -23.146 -16.285  0.00  0.00    +0.051 C 
ATOM     25  C   UNL     1      31.725 -23.553 -16.038  0.00  0.00    +0.025 C 
ATOM     26  C   UNL     1      34.059 -23.526 -15.417  0.00  0.00    +0.015 C 
ATOM     27  C   UNL     1      31.436 -24.340 -14.923  0.00  0.00    +0.070 C 
ATOM     28  C   UNL     1      33.772 -24.313 -14.301  0.00  0.00    +0.002 C 
ATOM     29  C   UNL     1      32.460 -24.719 -14.055  0.00  0.00    +0.010 C 
BRANCH  27  31
ATOM     30  N   UNL     1      29.002 -25.096 -14.464  0.00  0.00    -0.191 NA
ATOM     31  C   UNL     1      30.094 -24.758 -14.670  0.00  0.00    +0.100 C 
ENDBRANCH  27  31
ENDBRANCH  21  24
ENDBRANCH   4  22
TORSDOF 5
ENDMDL
MODEL 9
REMARK VINA RESULT:     -10.5      3.683     12.016
REMARK  Name = 10200651
REMARK  5 active torsions:
REMARK  status: ('A' for Active; 'I' for Inactive)
REMARK    1  A    between atoms: C_1  and  C_7
REMARK    2  A    between atoms: C_4  and  C_22
REMARK    3  A    between atoms: C_10  and  C_17
REMARK    4  A    between atoms: N_21  and  C_24
REMARK    5  A    between atoms: C_27  and  C_31
REMARK                            x       y       z     vdW  Elec       q    Type
REMARK                         _______ _______ _______ _____ _____    ______ ____
ROOT
ATOM      1  C   UNL     1      33.795 -14.525 -23.058  0.00  0.00    -0.000 C 
ATOM      2  C   UNL     1      33.057 -14.168 -21.929  0.00  0.00    +0.000 C 
ATOM      3  C   UNL     1      34.181 -13.551 -23.977  0.00  0.00    +0.000 C 
ATOM      4  C   UNL     1      33.100 -11.890 -22.645  0.00  0.00    +0.054 C 
ATOM      5  C   UNL     1      32.706 -12.835 -21.720  0.00  0.00    +0.005 C 
ATOM      6  C   UNL     1      33.829 -12.218 -23.768  0.00  0.00    +0.005 C 
ENDROOT
BRANCH   1   7
ATOM      7  C   UNL     1      34.160 -15.909 -23.275  0.00  0.00    -0.004 C 
ATOM      8  C   UNL     1      33.861 -16.555 -24.476  0.00  0.00    -0.022 C 
ATOM      9  C   UNL     1      34.822 -16.603 -22.260  0.00  0.00    +0.004 C 
ATOM     10  C   UNL     1      35.183 -17.938 -22.444  0.00  0.00    +0.055 C 
ATOM     11  C   UNL     1      34.221 -17.890 -24.660  0.00  0.00    -0.004 C 
ATOM     12  C   UNL     1      34.883 -18.581 -23.646  0.00  0.00    +0.004 C 
ATOM     13  C   UNL     1      33.153 -15.848 -25.586  0.00  0.00    +0.031 C 
BRANCH  10  17
ATOM     14  O   UNL     1      35.297 -19.826 -21.016  0.00  0.00    -0.420 OA
ATOM     15  N   UNL     1      36.955 -18.351 -20.739  0.00  0.00    -0.107 NA
ATOM     16  N   UNL     1      37.153 -19.387 -19.846  0.00  0.00    -0.111 NA
ATOM     17  C   UNL     1      35.866 -18.653 -21.395  0.00  0.00    +0.250 A 
ATOM     18  C   UNL     1      36.162 -20.224 -20.043  0.00  0.00    +0.227 A 
ATOM     19  C   UNL     1      35.865 -21.497 -19.376  0.00  0.00    +0.097 C 
ENDBRANCH  10  17
ENDBRANCH   1   7
BRANCH   4  22
ATOM     20  O   UNL     1      31.889 -10.228 -21.557  0.00  0.00    -0.270 OA
ATOM     21  N   UNL     1      33.394  -9.537 -23.226  0.00  0.00    -0.280 N 
ATOM     22  C   UNL     1      32.724 -10.469 -22.422  0.00  0.00    +0.249 C 
ATOM     23  H   UNL     1      34.037  -9.909 -23.874  0.00  0.00    +0.155 HD
BRANCH  21  24
ATOM     24  C   UNL     1      33.265  -8.147 -23.220  0.00  0.00    +0.051 C 
ATOM     25  C   UNL     1      32.186  -7.550 -22.571  0.00  0.00    +0.025 C 
ATOM     26  C   UNL     1      34.217  -7.357 -23.864  0.00  0.00    +0.015 C 
ATOM     27  C   UNL     1      32.058  -6.160 -22.565  0.00  0.00    +0.070 C 
ATOM     28  C   UNL     1      34.089  -5.968 -23.860  0.00  0.00    +0.002 C 
ATOM     29  C   UNL     1      33.009  -5.370 -23.210  0.00  0.00    +0.010 C 
BRANCH  27  31
ATOM     30  N   UNL     1      30.053  -5.049 -21.359  0.00  0.00    -0.191 NA
ATOM     31  C   UNL     1      30.952  -5.547 -21.900  0.00  0.00    +0.100 C 
ENDBRANCH  27  31
ENDBRANCH  21  24
ENDBRANCH   4  22
TORSDOF 5
ENDMDL
