MODEL 1
REMARK VINA RESULT:     -13.0      0.000      0.000
REMARK  Name = 76958312
REMARK  3 active torsions:
REMARK  status: ('A' for Active; 'I' for Inactive)
REMARK    1  A    between atoms: C_16  and  C_21
REMARK    2  A    between atoms: C_26  and  N_28
REMARK    3  A    between atoms: N_29  and  C_34
REMARK                            x       y       z     vdW  Elec       q    Type
REMARK                         _______ _______ _______ _____ _____    ______ ____
ROOT
ATOM      1  O   UNL     1      30.359 -23.092 -12.937  0.00  0.00    -0.350 OA
ATOM      2  O   UNL     1      38.254 -25.341 -12.191  0.00  0.00    -0.350 OA
ATOM      3  N   UNL     1      31.626 -24.624 -14.951  0.00  0.00    -0.231 N 
ATOM      4  N   UNL     1      33.867 -24.707 -14.420  0.00  0.00    -0.246 NA
ATOM      5  N   UNL     1      33.081 -23.499 -16.340  0.00  0.00    -0.260 NA
ATOM      6  N   UNL     1      36.155 -24.734 -13.959  0.00  0.00    -0.228 N 
ATOM      7  N   UNL     1      35.425 -23.550 -15.832  0.00  0.00    -0.260 NA
ATOM      8  C   UNL     1      31.268 -25.252 -13.678  0.00  0.00    +0.114 C 
ATOM      9  C   UNL     1      30.479 -23.782 -15.292  0.00  0.00    +0.114 C 
ATOM     10  C   UNL     1      29.823 -25.706 -13.952  0.00  0.00    +0.025 C 
ATOM     11  C   UNL     1      29.302 -24.735 -15.019  0.00  0.00    +0.025 C 
ATOM     12  C   UNL     1      30.487 -22.615 -14.287  0.00  0.00    +0.163 C 
ATOM     13  C   UNL     1      31.300 -24.132 -12.622  0.00  0.00    +0.163 C 
ATOM     14  C   UNL     1      32.908 -24.263 -15.249  0.00  0.00    +0.224 C 
ATOM     15  C   UNL     1      35.101 -24.310 -14.774  0.00  0.00    +0.224 C 
ATOM     16  C   UNL     1      34.364 -23.181 -16.568  0.00  0.00    +0.163 C 
ATOM     17  C   UNL     1      37.532 -24.342 -14.281  0.00  0.00    +0.135 C 
ATOM     18  C   UNL     1      35.884 -24.953 -12.531  0.00  0.00    +0.135 C 
ATOM     19  C   UNL     1      36.951 -25.866 -11.940  0.00  0.00    +0.164 C 
ATOM     20  C   UNL     1      38.511 -25.287 -13.594  0.00  0.00    +0.164 C 
ENDROOT
BRANCH  16  21
ATOM     21  C   UNL     1      34.633 -22.362 -17.721  0.00  0.00    +0.087 C 
ATOM     22  C   UNL     1      35.936 -21.945 -17.993  0.00  0.00    +0.013 C 
ATOM     23  C   UNL     1      33.589 -21.984 -18.566  0.00  0.00    +0.013 C 
ATOM     24  C   UNL     1      36.195 -21.151 -19.111  0.00  0.00    +0.015 C 
ATOM     25  C   UNL     1      33.849 -21.190 -19.683  0.00  0.00    +0.015 C 
ATOM     26  C   UNL     1      35.152 -20.774 -19.955  0.00  0.00    +0.052 C 
BRANCH  26  28
ATOM     27  O   UNL     1      33.331 -19.004 -21.527  0.00  0.00    -0.252 OA
ATOM     28  N   UNL     1      35.411 -19.980 -21.073  0.00  0.00    -0.268 N 
ATOM     29  N   UNL     1      35.196 -18.525 -22.855  0.00  0.00    -0.268 N 
ATOM     30  C   UNL     1      34.519 -19.150 -21.794  0.00  0.00    +0.308 C 
ATOM     31  H   UNL     1      36.339 -19.999 -21.404  0.00  0.00    +0.156 HD
ATOM     32  H   UNL     1      36.152 -18.742 -22.943  0.00  0.00    +0.156 HD
BRANCH  29  34
ATOM     33  N   UNL     1      33.638 -15.840 -25.698  0.00  0.00    -0.242 NA
ATOM     34  C   UNL     1      34.672 -17.623 -23.811  0.00  0.00    +0.055 C 
ATOM     35  C   UNL     1      35.149 -16.318 -23.873  0.00  0.00    +0.035 C 
ATOM     36  C   UNL     1      33.679 -18.038 -24.691  0.00  0.00    +0.035 C 
ATOM     37  C   UNL     1      34.604 -15.474 -24.825  0.00  0.00    +0.100 C 
ATOM     38  C   UNL     1      33.200 -17.115 -25.608  0.00  0.00    +0.100 C 
ENDBRANCH  29  34
ENDBRANCH  26  28
ENDBRANCH  16  21
TORSDOF 3
ENDMDL
