MODEL 1
REMARK VINA RESULT:     -12.2      0.000      0.000
REMARK  Name = 657077
REMARK  7 active torsions:
REMARK  status: ('A' for Active; 'I' for Inactive)
REMARK    1  A    between atoms: C_3  and  C_23
REMARK    2  A    between atoms: C_8  and  C_10
REMARK    3  A    between atoms: C_12  and  C_15
REMARK    4  A    between atoms: C_15  and  C_16
REMARK    5  A    between atoms: C_16  and  C_17
REMARK    6  A    between atoms: C_26  and  C_29
REMARK    7  A    between atoms: C_29  and  N_30
REMARK                            x       y       z     vdW  Elec       q    Type
REMARK                         _______ _______ _______ _____ _____    ______ ____
ROOT
ATOM      1  O   UNL     1      32.770 -16.017 -25.807  0.00  0.00    -0.270 OA
ATOM      2  N   UNL     1      34.334 -16.697 -24.206  0.00  0.00    -0.276 N 
ATOM      3  C   UNL     1      34.970 -18.804 -22.327  0.00  0.00    +0.026 C 
ATOM      4  C   UNL     1      34.918 -17.324 -21.899  0.00  0.00    +0.026 C 
ATOM      5  C   UNL     1      34.057 -19.048 -23.544  0.00  0.00    +0.026 C 
ATOM      6  C   UNL     1      35.228 -16.403 -23.079  0.00  0.00    +0.094 C 
ATOM      7  C   UNL     1      34.384 -18.080 -24.681  0.00  0.00    +0.094 C 
ATOM      8  C   UNL     1      33.500 -15.777 -24.845  0.00  0.00    +0.251 C 
ENDROOT
BRANCH   8  10
ATOM      9  N   UNL     1      33.851 -12.052 -24.717  0.00  0.00    -0.242 NA
ATOM     10  C   UNL     1      33.465 -14.402 -24.333  0.00  0.00    +0.072 C 
ATOM     11  C   UNL     1      33.037 -14.136 -23.041  0.00  0.00    +0.003 C 
ATOM     12  C   UNL     1      33.015 -12.823 -22.583  0.00  0.00    -0.003 C 
ATOM     13  C   UNL     1      33.858 -13.341 -25.126  0.00  0.00    +0.103 C 
ATOM     14  C   UNL     1      33.428 -11.826 -23.453  0.00  0.00    +0.095 C 
BRANCH  12  15
ATOM     15  C   UNL     1      32.562 -12.498 -21.204  0.00  0.00    +0.033 C 
BRANCH  15  16
ATOM     16  C   UNL     1      31.262 -11.668 -21.146  0.00  0.00    +0.031 C 
BRANCH  16  17
ATOM     17  C   UNL     1      31.506 -10.202 -20.878  0.00  0.00    -0.022 C 
ATOM     18  C   UNL     1      31.700  -9.772 -19.575  0.00  0.00    -0.004 C 
ATOM     19  C   UNL     1      31.533  -9.314 -21.941  0.00  0.00    -0.004 C 
ATOM     20  C   UNL     1      31.925  -8.418 -19.328  0.00  0.00    -0.000 C 
ATOM     21  C   UNL     1      31.760  -7.959 -21.694  0.00  0.00    -0.000 C 
ATOM     22  C   UNL     1      31.955  -7.512 -20.387  0.00  0.00    -0.000 C 
ENDBRANCH  16  17
ENDBRANCH  15  16
ENDBRANCH  12  15
ENDBRANCH   8  10
BRANCH   3  23
ATOM     23  C   UNL     1      34.648 -19.740 -21.178  0.00  0.00    -0.023 C 
ATOM     24  C   UNL     1      35.681 -20.299 -20.427  0.00  0.00    -0.011 C 
ATOM     25  C   UNL     1      33.321 -20.037 -20.875  0.00  0.00    -0.004 C 
ATOM     26  C   UNL     1      35.385 -21.158 -19.370  0.00  0.00    -0.045 C 
ATOM     27  C   UNL     1      33.025 -20.898 -19.817  0.00  0.00    -0.001 C 
ATOM     28  C   UNL     1      34.057 -21.457 -19.064  0.00  0.00    -0.006 C 
BRANCH  26  29
ATOM     29  C   UNL     1      36.489 -21.757 -18.563  0.00  0.00    -0.059 C 
BRANCH  29  30
ATOM     30  N   UNL     1      36.050 -22.146 -17.221  0.00  0.00    +0.383 N 
ATOM     31  H   UNL     1      36.861 -22.402 -16.659  0.00  0.00    -0.089 HD
ATOM     32  H   UNL     1      35.417 -22.943 -17.289  0.00  0.00    -0.089 HD
ATOM     33  H   UNL     1      35.566 -21.363 -16.782  0.00  0.00    -0.089 HD
ENDBRANCH  29  30
ENDBRANCH  26  29
ENDBRANCH   3  23
TORSDOF 7
ENDMDL
MODEL 2
REMARK VINA RESULT:     -11.7      1.635      2.348
REMARK  Name = 657077
REMARK  7 active torsions:
REMARK  status: ('A' for Active; 'I' for Inactive)
REMARK    1  A    between atoms: C_3  and  C_23
REMARK    2  A    between atoms: C_8  and  C_10
REMARK    3  A    between atoms: C_12  and  C_15
REMARK    4  A    between atoms: C_15  and  C_16
REMARK    5  A    between atoms: C_16  and  C_17
REMARK    6  A    between atoms: C_26  and  C_29
REMARK    7  A    between atoms: C_29  and  N_30
REMARK                            x       y       z     vdW  Elec       q    Type
REMARK                         _______ _______ _______ _____ _____    ______ ____
ROOT
ATOM      1  O   UNL     1      32.960 -15.859 -25.493  0.00  0.00    -0.270 OA
ATOM      2  N   UNL     1      34.474 -16.559 -23.854  0.00  0.00    -0.276 N 
ATOM      3  C   UNL     1      35.115 -18.739 -22.062  0.00  0.00    +0.026 C 
ATOM      4  C   UNL     1      34.974 -17.289 -21.558  0.00  0.00    +0.026 C 
ATOM      5  C   UNL     1      34.275 -18.953 -23.336  0.00  0.00    +0.026 C 
ATOM      6  C   UNL     1      35.298 -16.291 -22.669  0.00  0.00    +0.094 C 
ATOM      7  C   UNL     1      34.612 -17.910 -24.400  0.00  0.00    +0.094 C 
ATOM      8  C   UNL     1      33.630 -15.641 -24.484  0.00  0.00    +0.251 C 
ENDROOT
BRANCH   8  10
ATOM      9  N   UNL     1      32.803 -12.915 -22.056  0.00  0.00    -0.242 NA
ATOM     10  C   UNL     1      33.507 -14.301 -23.901  0.00  0.00    +0.072 C 
ATOM     11  C   UNL     1      33.952 -13.182 -24.590  0.00  0.00    +0.003 C 
ATOM     12  C   UNL     1      33.822 -11.924 -24.011  0.00  0.00    -0.003 C 
ATOM     13  C   UNL     1      32.946 -14.121 -22.651  0.00  0.00    +0.103 C 
ATOM     14  C   UNL     1      33.246 -11.846 -22.753  0.00  0.00    +0.095 C 
BRANCH  12  15
ATOM     15  C   UNL     1      34.288 -10.702 -24.719  0.00  0.00    +0.033 C 
BRANCH  15  16
ATOM     16  C   UNL     1      35.098  -9.730 -23.835  0.00  0.00    +0.031 C 
BRANCH  16  17
ATOM     17  C   UNL     1      34.393  -8.416 -23.597  0.00  0.00    -0.022 C 
ATOM     18  C   UNL     1      33.232  -8.396 -22.840  0.00  0.00    -0.004 C 
ATOM     19  C   UNL     1      34.919  -7.256 -24.141  0.00  0.00    -0.004 C 
ATOM     20  C   UNL     1      32.581  -7.182 -22.621  0.00  0.00    -0.000 C 
ATOM     21  C   UNL     1      34.267  -6.042 -23.920  0.00  0.00    -0.000 C 
ATOM     22  C   UNL     1      33.098  -6.006 -23.161  0.00  0.00    -0.000 C 
ENDBRANCH  16  17
ENDBRANCH  15  16
ENDBRANCH  12  15
ENDBRANCH   8  10
BRANCH   3  23
ATOM     23  C   UNL     1      34.782 -19.751 -20.983  0.00  0.00    -0.023 C 
ATOM     24  C   UNL     1      35.804 -20.328 -20.232  0.00  0.00    -0.011 C 
ATOM     25  C   UNL     1      33.454 -20.101 -20.744  0.00  0.00    -0.004 C 
ATOM     26  C   UNL     1      35.498 -21.258 -19.239  0.00  0.00    -0.045 C 
ATOM     27  C   UNL     1      33.148 -21.031 -19.751  0.00  0.00    -0.001 C 
ATOM     28  C   UNL     1      34.169 -21.609 -18.998  0.00  0.00    -0.006 C 
BRANCH  26  29
ATOM     29  C   UNL     1      36.590 -21.876 -18.432  0.00  0.00    -0.059 C 
BRANCH  29  30
ATOM     30  N   UNL     1      36.810 -21.177 -17.164  0.00  0.00    +0.383 N 
ATOM     31  H   UNL     1      37.781 -21.295 -16.875  0.00  0.00    -0.089 HD
ATOM     32  H   UNL     1      36.193 -21.565 -16.451  0.00  0.00    -0.089 HD
ATOM     33  H   UNL     1      36.609 -20.184 -17.284  0.00  0.00    -0.089 HD
ENDBRANCH  29  30
ENDBRANCH  26  29
ENDBRANCH   3  23
TORSDOF 7
ENDMDL
MODEL 3
REMARK VINA RESULT:     -11.4      1.910      2.923
REMARK  Name = 657077
REMARK  7 active torsions:
REMARK  status: ('A' for Active; 'I' for Inactive)
REMARK    1  A    between atoms: C_3  and  C_23
REMARK    2  A    between atoms: C_8  and  C_10
REMARK    3  A    between atoms: C_12  and  C_15
REMARK    4  A    between atoms: C_15  and  C_16
REMARK    5  A    between atoms: C_16  and  C_17
REMARK    6  A    between atoms: C_26  and  C_29
REMARK    7  A    between atoms: C_29  and  N_30
REMARK                            x       y       z     vdW  Elec       q    Type
REMARK                         _______ _______ _______ _____ _____    ______ ____
ROOT
ATOM      1  O   UNL     1      32.573 -15.547 -25.455  0.00  0.00    -0.270 OA
ATOM      2  N   UNL     1      34.367 -16.199 -24.106  0.00  0.00    -0.276 N 
ATOM      3  C   UNL     1      35.375 -18.358 -22.463  0.00  0.00    +0.026 C 
ATOM      4  C   UNL     1      35.277 -16.914 -21.933  0.00  0.00    +0.026 C 
ATOM      5  C   UNL     1      34.335 -18.599 -23.573  0.00  0.00    +0.026 C 
ATOM      6  C   UNL     1      35.374 -15.905 -23.078  0.00  0.00    +0.094 C 
ATOM      7  C   UNL     1      34.450 -17.545 -24.675  0.00  0.00    +0.094 C 
ATOM      8  C   UNL     1      33.399 -15.309 -24.576  0.00  0.00    +0.251 C 
ENDROOT
BRANCH   8  10
ATOM      9  N   UNL     1      32.608 -12.568 -22.152  0.00  0.00    -0.242 NA
ATOM     10  C   UNL     1      33.337 -13.973 -23.973  0.00  0.00    +0.072 C 
ATOM     11  C   UNL     1      33.915 -12.881 -24.603  0.00  0.00    +0.003 C 
ATOM     12  C   UNL     1      33.841 -11.626 -24.007  0.00  0.00    -0.003 C 
ATOM     13  C   UNL     1      32.701 -13.771 -22.763  0.00  0.00    +0.103 C 
ATOM     14  C   UNL     1      33.182 -11.524 -22.792  0.00  0.00    +0.095 C 
BRANCH  12  15
ATOM     15  C   UNL     1      34.449 -10.432 -24.652  0.00  0.00    +0.033 C 
BRANCH  15  16
ATOM     16  C   UNL     1      35.066  -9.424 -23.659  0.00  0.00    +0.031 C 
BRANCH  16  17
ATOM     17  C   UNL     1      34.374  -8.082 -23.672  0.00  0.00    -0.022 C 
ATOM     18  C   UNL     1      34.917  -7.045 -24.414  0.00  0.00    -0.004 C 
ATOM     19  C   UNL     1      33.210  -7.912 -22.941  0.00  0.00    -0.004 C 
ATOM     20  C   UNL     1      34.278  -5.805 -24.425  0.00  0.00    -0.000 C 
ATOM     21  C   UNL     1      32.570  -6.671 -22.953  0.00  0.00    -0.000 C 
ATOM     22  C   UNL     1      33.105  -5.618 -23.695  0.00  0.00    -0.000 C 
ENDBRANCH  16  17
ENDBRANCH  15  16
ENDBRANCH  12  15
ENDBRANCH   8  10
BRANCH   3  23
ATOM     23  C   UNL     1      35.264 -19.381 -21.348  0.00  0.00    -0.023 C 
ATOM     24  C   UNL     1      34.010 -19.826 -20.936  0.00  0.00    -0.011 C 
ATOM     25  C   UNL     1      36.418 -19.873 -20.739  0.00  0.00    -0.004 C 
ATOM     26  C   UNL     1      33.907 -20.767 -19.912  0.00  0.00    -0.045 C 
ATOM     27  C   UNL     1      36.315 -20.814 -19.714  0.00  0.00    -0.001 C 
ATOM     28  C   UNL     1      35.060 -21.261 -19.301  0.00  0.00    -0.006 C 
BRANCH  26  29
ATOM     29  C   UNL     1      32.566 -21.247 -19.470  0.00  0.00    -0.059 C 
BRANCH  29  30
ATOM     30  N   UNL     1      32.652 -22.192 -18.354  0.00  0.00    +0.383 N 
ATOM     31  H   UNL     1      32.622 -21.679 -17.472  0.00  0.00    -0.089 HD
ATOM     32  H   UNL     1      33.527 -22.711 -18.416  0.00  0.00    -0.089 HD
ATOM     33  H   UNL     1      31.867 -22.841 -18.396  0.00  0.00    -0.089 HD
ENDBRANCH  29  30
ENDBRANCH  26  29
ENDBRANCH   3  23
TORSDOF 7
ENDMDL
MODEL 4
REMARK VINA RESULT:     -10.8      2.125     10.018
REMARK  Name = 657077
REMARK  7 active torsions:
REMARK  status: ('A' for Active; 'I' for Inactive)
REMARK    1  A    between atoms: C_3  and  C_23
REMARK    2  A    between atoms: C_8  and  C_10
REMARK    3  A    between atoms: C_12  and  C_15
REMARK    4  A    between atoms: C_15  and  C_16
REMARK    5  A    between atoms: C_16  and  C_17
REMARK    6  A    between atoms: C_26  and  C_29
REMARK    7  A    between atoms: C_29  and  N_30
REMARK                            x       y       z     vdW  Elec       q    Type
REMARK                         _______ _______ _______ _____ _____    ______ ____
ROOT
ATOM      1  O   UNL     1      34.983 -15.390 -25.292  0.00  0.00    -0.270 OA
ATOM      2  N   UNL     1      33.642 -13.870 -24.126  0.00  0.00    -0.276 N 
ATOM      3  C   UNL     1      33.170 -11.049 -23.686  0.00  0.00    +0.026 C 
ATOM      4  C   UNL     1      33.377 -12.029 -22.515  0.00  0.00    +0.026 C 
ATOM      5  C   UNL     1      33.871 -11.568 -24.956  0.00  0.00    +0.026 C 
ATOM      6  C   UNL     1      32.949 -13.444 -22.904  0.00  0.00    +0.094 C 
ATOM      7  C   UNL     1      33.435 -12.996 -25.282  0.00  0.00    +0.094 C 
ATOM      8  C   UNL     1      34.424 -15.019 -24.260  0.00  0.00    +0.251 C 
ENDROOT
BRANCH   8  10
ATOM      9  N   UNL     1      34.765 -16.043 -20.675  0.00  0.00    -0.242 NA
ATOM     10  C   UNL     1      34.620 -15.865 -23.077  0.00  0.00    +0.072 C 
ATOM     11  C   UNL     1      34.838 -17.229 -23.206  0.00  0.00    +0.003 C 
ATOM     12  C   UNL     1      35.021 -18.005 -22.066  0.00  0.00    -0.003 C 
ATOM     13  C   UNL     1      34.592 -15.322 -21.807  0.00  0.00    +0.103 C 
ATOM     14  C   UNL     1      34.975 -17.369 -20.835  0.00  0.00    +0.095 C 
BRANCH  12  15
ATOM     15  C   UNL     1      35.256 -19.470 -22.164  0.00  0.00    +0.033 C 
BRANCH  15  16
ATOM     16  C   UNL     1      35.968 -20.078 -20.938  0.00  0.00    +0.031 C 
BRANCH  16  17
ATOM     17  C   UNL     1      35.033 -20.833 -20.024  0.00  0.00    -0.022 C 
ATOM     18  C   UNL     1      33.665 -20.644 -20.144  0.00  0.00    -0.004 C 
ATOM     19  C   UNL     1      35.559 -21.701 -19.081  0.00  0.00    -0.004 C 
ATOM     20  C   UNL     1      32.802 -21.341 -19.300  0.00  0.00    -0.000 C 
ATOM     21  C   UNL     1      34.695 -22.399 -18.236  0.00  0.00    -0.000 C 
ATOM     22  C   UNL     1      33.316 -22.218 -18.346  0.00  0.00    -0.000 C 
ENDBRANCH  16  17
ENDBRANCH  15  16
ENDBRANCH  12  15
ENDBRANCH   8  10
BRANCH   3  23
ATOM     23  C   UNL     1      33.604  -9.640 -23.331  0.00  0.00    -0.023 C 
ATOM     24  C   UNL     1      32.914  -8.926 -22.354  0.00  0.00    -0.011 C 
ATOM     25  C   UNL     1      34.693  -9.064 -23.983  0.00  0.00    -0.004 C 
ATOM     26  C   UNL     1      33.313  -7.631 -22.027  0.00  0.00    -0.045 C 
ATOM     27  C   UNL     1      35.093  -7.768 -23.656  0.00  0.00    -0.001 C 
ATOM     28  C   UNL     1      34.403  -7.051 -22.678  0.00  0.00    -0.006 C 
BRANCH  26  29
ATOM     29  C   UNL     1      32.577  -6.863 -20.980  0.00  0.00    -0.059 C 
BRANCH  29  30
ATOM     30  N   UNL     1      32.979  -7.244 -19.624  0.00  0.00    +0.383 N 
ATOM     31  H   UNL     1      32.831  -8.245 -19.495  0.00  0.00    -0.089 HD
ATOM     32  H   UNL     1      32.421  -6.727 -18.946  0.00  0.00    -0.089 HD
ATOM     33  H   UNL     1      33.967  -7.027 -19.490  0.00  0.00    -0.089 HD
ENDBRANCH  29  30
ENDBRANCH  26  29
ENDBRANCH   3  23
TORSDOF 7
ENDMDL
MODEL 5
REMARK VINA RESULT:     -10.7      4.183     11.568
REMARK  Name = 657077
REMARK  7 active torsions:
REMARK  status: ('A' for Active; 'I' for Inactive)
REMARK    1  A    between atoms: C_3  and  C_23
REMARK    2  A    between atoms: C_8  and  C_10
REMARK    3  A    between atoms: C_12  and  C_15
REMARK    4  A    between atoms: C_15  and  C_16
REMARK    5  A    between atoms: C_16  and  C_17
REMARK    6  A    between atoms: C_26  and  C_29
REMARK    7  A    between atoms: C_29  and  N_30
REMARK                            x       y       z     vdW  Elec       q    Type
REMARK                         _______ _______ _______ _____ _____    ______ ____
ROOT
ATOM      1  O   UNL     1      37.117 -21.378 -17.775  0.00  0.00    -0.270 OA
ATOM      2  N   UNL     1      35.953 -20.914 -19.749  0.00  0.00    -0.276 N 
ATOM      3  C   UNL     1      35.426 -18.848 -21.706  0.00  0.00    +0.026 C 
ATOM      4  C   UNL     1      34.285 -19.614 -21.009  0.00  0.00    +0.026 C 
ATOM      5  C   UNL     1      36.685 -18.824 -20.817  0.00  0.00    +0.026 C 
ATOM      6  C   UNL     1      34.746 -21.007 -20.579  0.00  0.00    +0.094 C 
ATOM      7  C   UNL     1      37.082 -20.236 -20.387  0.00  0.00    +0.094 C 
ATOM      8  C   UNL     1      36.097 -21.433 -18.460  0.00  0.00    +0.251 C 
ENDROOT
BRANCH   8  10
ATOM      9  N   UNL     1      32.607 -22.698 -17.975  0.00  0.00    -0.242 NA
ATOM     10  C   UNL     1      34.939 -22.094 -17.847  0.00  0.00    +0.072 C 
ATOM     11  C   UNL     1      35.049 -22.721 -16.615  0.00  0.00    +0.003 C 
ATOM     12  C   UNL     1      33.934 -23.339 -16.058  0.00  0.00    -0.003 C 
ATOM     13  C   UNL     1      33.713 -22.108 -18.484  0.00  0.00    +0.103 C 
ATOM     14  C   UNL     1      32.747 -23.300 -16.773  0.00  0.00    +0.095 C 
BRANCH  12  15
ATOM     15  C   UNL     1      34.013 -24.022 -14.739  0.00  0.00    +0.033 C 
BRANCH  15  16
ATOM     16  C   UNL     1      35.152 -25.058 -14.632  0.00  0.00    +0.031 C 
BRANCH  16  17
ATOM     17  C   UNL     1      36.123 -24.759 -13.515  0.00  0.00    -0.022 C 
ATOM     18  C   UNL     1      36.998 -25.747 -13.093  0.00  0.00    -0.004 C 
ATOM     19  C   UNL     1      36.120 -23.502 -12.932  0.00  0.00    -0.004 C 
ATOM     20  C   UNL     1      37.894 -25.471 -12.060  0.00  0.00    -0.000 C 
ATOM     21  C   UNL     1      37.017 -23.226 -11.900  0.00  0.00    -0.000 C 
ATOM     22  C   UNL     1      37.904 -24.211 -11.463  0.00  0.00    -0.000 C 
ENDBRANCH  16  17
ENDBRANCH  15  16
ENDBRANCH  12  15
ENDBRANCH   8  10
BRANCH   3  23
ATOM     23  C   UNL     1      35.001 -17.454 -22.127  0.00  0.00    -0.023 C 
ATOM     24  C   UNL     1      34.692 -17.195 -23.461  0.00  0.00    -0.011 C 
ATOM     25  C   UNL     1      34.918 -16.436 -21.177  0.00  0.00    -0.004 C 
ATOM     26  C   UNL     1      34.299 -15.914 -23.848  0.00  0.00    -0.045 C 
ATOM     27  C   UNL     1      34.525 -15.155 -21.565  0.00  0.00    -0.001 C 
ATOM     28  C   UNL     1      34.216 -14.894 -22.900  0.00  0.00    -0.006 C 
BRANCH  26  29
ATOM     29  C   UNL     1      33.967 -15.634 -25.275  0.00  0.00    -0.059 C 
BRANCH  29  30
ATOM     30  N   UNL     1      32.937 -14.603 -25.415  0.00  0.00    +0.383 N 
ATOM     31  H   UNL     1      32.800 -14.136 -24.518  0.00  0.00    -0.089 HD
ATOM     32  H   UNL     1      32.062 -15.034 -25.712  0.00  0.00    -0.089 HD
ATOM     33  H   UNL     1      33.233 -13.919 -26.111  0.00  0.00    -0.089 HD
ENDBRANCH  29  30
ENDBRANCH  26  29
ENDBRANCH   3  23
TORSDOF 7
ENDMDL
MODEL 6
REMARK VINA RESULT:     -10.6      4.624      8.238
REMARK  Name = 657077
REMARK  7 active torsions:
REMARK  status: ('A' for Active; 'I' for Inactive)
REMARK    1  A    between atoms: C_3  and  C_23
REMARK    2  A    between atoms: C_8  and  C_10
REMARK    3  A    between atoms: C_12  and  C_15
REMARK    4  A    between atoms: C_15  and  C_16
REMARK    5  A    between atoms: C_16  and  C_17
REMARK    6  A    between atoms: C_26  and  C_29
REMARK    7  A    between atoms: C_29  and  N_30
REMARK                            x       y       z     vdW  Elec       q    Type
REMARK                         _______ _______ _______ _____ _____    ______ ____
ROOT
ATOM      1  O   UNL     1      32.235  -7.897 -18.913  0.00  0.00    -0.270 OA
ATOM      2  N   UNL     1      31.556  -9.488 -20.486  0.00  0.00    -0.276 N 
ATOM      3  C   UNL     1      32.011 -12.198 -21.395  0.00  0.00    +0.026 C 
ATOM      4  C   UNL     1      32.043 -11.000 -22.365  0.00  0.00    +0.026 C 
ATOM      5  C   UNL     1      32.374 -11.747 -19.967  0.00  0.00    +0.026 C 
ATOM      6  C   UNL     1      31.167  -9.858 -21.853  0.00  0.00    +0.094 C 
ATOM      7  C   UNL     1      31.493 -10.582 -19.516  0.00  0.00    +0.094 C 
ATOM      8  C   UNL     1      31.934  -8.211 -20.064  0.00  0.00    +0.251 C 
ENDROOT
BRANCH   8  10
ATOM      9  N   UNL     1      31.093  -5.086 -21.945  0.00  0.00    -0.242 NA
ATOM     10  C   UNL     1      31.999  -7.142 -21.067  0.00  0.00    +0.072 C 
ATOM     11  C   UNL     1      32.974  -7.151 -22.054  0.00  0.00    +0.003 C 
ATOM     12  C   UNL     1      33.010  -6.124 -22.991  0.00  0.00    -0.003 C 
ATOM     13  C   UNL     1      31.090  -6.102 -21.052  0.00  0.00    +0.103 C 
ATOM     14  C   UNL     1      32.056  -5.124 -22.893  0.00  0.00    +0.095 C 
BRANCH  12  15
ATOM     15  C   UNL     1      34.041  -6.099 -24.063  0.00  0.00    +0.033 C 
BRANCH  15  16
ATOM     16  C   UNL     1      33.583  -5.406 -25.363  0.00  0.00    +0.031 C 
BRANCH  16  17
ATOM     17  C   UNL     1      34.679  -4.608 -26.028  0.00  0.00    -0.022 C 
ATOM     18  C   UNL     1      34.387  -3.359 -26.554  0.00  0.00    -0.004 C 
ATOM     19  C   UNL     1      35.956  -5.139 -26.100  0.00  0.00    -0.004 C 
ATOM     20  C   UNL     1      35.399  -2.623 -27.168  0.00  0.00    -0.000 C 
ATOM     21  C   UNL     1      36.969  -4.401 -26.713  0.00  0.00    -0.000 C 
ATOM     22  C   UNL     1      36.690  -3.143 -27.248  0.00  0.00    -0.000 C 
ENDBRANCH  16  17
ENDBRANCH  15  16
ENDBRANCH  12  15
ENDBRANCH   8  10
BRANCH   3  23
ATOM     23  C   UNL     1      32.887 -13.340 -21.872  0.00  0.00    -0.023 C 
ATOM     24  C   UNL     1      32.892 -13.696 -23.220  0.00  0.00    -0.011 C 
ATOM     25  C   UNL     1      33.687 -14.029 -20.962  0.00  0.00    -0.004 C 
ATOM     26  C   UNL     1      33.698 -14.745 -23.659  0.00  0.00    -0.045 C 
ATOM     27  C   UNL     1      34.493 -15.079 -21.401  0.00  0.00    -0.001 C 
ATOM     28  C   UNL     1      34.500 -15.437 -22.749  0.00  0.00    -0.006 C 
BRANCH  26  29
ATOM     29  C   UNL     1      33.707 -15.128 -25.101  0.00  0.00    -0.059 C 
BRANCH  29  30
ATOM     30  N   UNL     1      32.625 -16.056 -25.437  0.00  0.00    +0.383 N 
ATOM     31  H   UNL     1      31.854 -15.540 -25.859  0.00  0.00    -0.089 HD
ATOM     32  H   UNL     1      32.300 -16.520 -24.589  0.00  0.00    -0.089 HD
ATOM     33  H   UNL     1      32.969 -16.753 -26.097  0.00  0.00    -0.089 HD
ENDBRANCH  29  30
ENDBRANCH  26  29
ENDBRANCH   3  23
TORSDOF 7
ENDMDL
MODEL 7
REMARK VINA RESULT:     -10.4      4.089     10.898
REMARK  Name = 657077
REMARK  7 active torsions:
REMARK  status: ('A' for Active; 'I' for Inactive)
REMARK    1  A    between atoms: C_3  and  C_23
REMARK    2  A    between atoms: C_8  and  C_10
REMARK    3  A    between atoms: C_12  and  C_15
REMARK    4  A    between atoms: C_15  and  C_16
REMARK    5  A    between atoms: C_16  and  C_17
REMARK    6  A    between atoms: C_26  and  C_29
REMARK    7  A    between atoms: C_29  and  N_30
REMARK                            x       y       z     vdW  Elec       q    Type
REMARK                         _______ _______ _______ _____ _____    ______ ____
ROOT
ATOM      1  O   UNL     1      37.091 -21.037 -17.955  0.00  0.00    -0.270 OA
ATOM      2  N   UNL     1      36.006 -20.610 -19.982  0.00  0.00    -0.276 N 
ATOM      3  C   UNL     1      35.446 -18.543 -21.928  0.00  0.00    +0.026 C 
ATOM      4  C   UNL     1      34.324 -19.399 -21.308  0.00  0.00    +0.026 C 
ATOM      5  C   UNL     1      36.650 -18.454 -20.971  0.00  0.00    +0.026 C 
ATOM      6  C   UNL     1      34.854 -20.767 -20.879  0.00  0.00    +0.094 C 
ATOM      7  C   UNL     1      37.119 -19.845 -20.545  0.00  0.00    +0.094 C 
ATOM      8  C   UNL     1      36.116 -21.146 -18.697  0.00  0.00    +0.251 C 
ENDROOT
BRANCH   8  10
ATOM      9  N   UNL     1      32.709 -22.678 -18.441  0.00  0.00    -0.242 NA
ATOM     10  C   UNL     1      34.974 -21.896 -18.160  0.00  0.00    +0.072 C 
ATOM     11  C   UNL     1      35.050 -22.516 -16.921  0.00  0.00    +0.003 C 
ATOM     12  C   UNL     1      33.952 -23.220 -16.438  0.00  0.00    -0.003 C 
ATOM     13  C   UNL     1      33.798 -22.002 -18.876  0.00  0.00    +0.103 C 
ATOM     14  C   UNL     1      32.816 -23.271 -17.230  0.00  0.00    +0.095 C 
BRANCH  12  15
ATOM     15  C   UNL     1      33.997 -23.898 -15.116  0.00  0.00    +0.033 C 
BRANCH  15  16
ATOM     16  C   UNL     1      33.024 -23.310 -14.072  0.00  0.00    +0.031 C 
BRANCH  16  17
ATOM     17  C   UNL     1      31.601 -23.782 -14.256  0.00  0.00    -0.022 C 
ATOM     18  C   UNL     1      31.291 -25.113 -14.025  0.00  0.00    -0.004 C 
ATOM     19  C   UNL     1      30.632 -22.875 -14.652  0.00  0.00    -0.004 C 
ATOM     20  C   UNL     1      29.977 -25.548 -14.196  0.00  0.00    -0.000 C 
ATOM     21  C   UNL     1      29.317 -23.310 -14.822  0.00  0.00    -0.000 C 
ATOM     22  C   UNL     1      28.990 -24.647 -14.594  0.00  0.00    -0.000 C 
ENDBRANCH  16  17
ENDBRANCH  15  16
ENDBRANCH  12  15
ENDBRANCH   8  10
BRANCH   3  23
ATOM     23  C   UNL     1      34.949 -17.172 -22.347  0.00  0.00    -0.023 C 
ATOM     24  C   UNL     1      34.569 -16.945 -23.668  0.00  0.00    -0.011 C 
ATOM     25  C   UNL     1      34.873 -16.144 -21.409  0.00  0.00    -0.004 C 
ATOM     26  C   UNL     1      34.112 -15.686 -24.054  0.00  0.00    -0.045 C 
ATOM     27  C   UNL     1      34.416 -14.884 -21.795  0.00  0.00    -0.001 C 
ATOM     28  C   UNL     1      34.035 -14.655 -23.116  0.00  0.00    -0.006 C 
BRANCH  26  29
ATOM     29  C   UNL     1      33.703 -15.439 -25.467  0.00  0.00    -0.059 C 
BRANCH  29  30
ATOM     30  N   UNL     1      32.921 -14.210 -25.615  0.00  0.00    +0.383 N 
ATOM     31  H   UNL     1      33.534 -13.451 -25.911  0.00  0.00    -0.089 HD
ATOM     32  H   UNL     1      32.491 -13.972 -24.722  0.00  0.00    -0.089 HD
ATOM     33  H   UNL     1      32.194 -14.353 -26.316  0.00  0.00    -0.089 HD
ENDBRANCH  29  30
ENDBRANCH  26  29
ENDBRANCH   3  23
TORSDOF 7
ENDMDL
MODEL 8
REMARK VINA RESULT:     -10.3      3.866     10.605
REMARK  Name = 657077
REMARK  7 active torsions:
REMARK  status: ('A' for Active; 'I' for Inactive)
REMARK    1  A    between atoms: C_3  and  C_23
REMARK    2  A    between atoms: C_8  and  C_10
REMARK    3  A    between atoms: C_12  and  C_15
REMARK    4  A    between atoms: C_15  and  C_16
REMARK    5  A    between atoms: C_16  and  C_17
REMARK    6  A    between atoms: C_26  and  C_29
REMARK    7  A    between atoms: C_29  and  N_30
REMARK                            x       y       z     vdW  Elec       q    Type
REMARK                         _______ _______ _______ _____ _____    ______ ____
ROOT
ATOM      1  O   UNL     1      37.088 -20.228 -18.807  0.00  0.00    -0.270 OA
ATOM      2  N   UNL     1      35.996 -20.063 -20.868  0.00  0.00    -0.276 N 
ATOM      3  C   UNL     1      35.283 -18.216 -22.978  0.00  0.00    +0.026 C 
ATOM      4  C   UNL     1      34.232 -19.115 -22.298  0.00  0.00    +0.026 C 
ATOM      5  C   UNL     1      36.462 -17.945 -22.024  0.00  0.00    +0.026 C 
ATOM      6  C   UNL     1      34.874 -20.392 -21.756  0.00  0.00    +0.094 C 
ATOM      7  C   UNL     1      37.045 -19.251 -21.484  0.00  0.00    +0.094 C 
ATOM      8  C   UNL     1      36.135 -20.483 -19.543  0.00  0.00    +0.251 C 
ENDROOT
BRANCH   8  10
ATOM      9  N   UNL     1      32.748 -21.982 -19.003  0.00  0.00    -0.242 NA
ATOM     10  C   UNL     1      35.057 -21.285 -18.954  0.00  0.00    +0.072 C 
ATOM     11  C   UNL     1      35.288 -22.079 -17.840  0.00  0.00    +0.003 C 
ATOM     12  C   UNL     1      34.246 -22.829 -17.304  0.00  0.00    -0.003 C 
ATOM     13  C   UNL     1      33.785 -21.268 -19.495  0.00  0.00    +0.103 C 
ATOM     14  C   UNL     1      33.007 -22.747 -17.918  0.00  0.00    +0.095 C 
BRANCH  12  15
ATOM     15  C   UNL     1      34.457 -23.693 -16.112  0.00  0.00    +0.033 C 
BRANCH  15  16
ATOM     16  C   UNL     1      33.995 -23.059 -14.783  0.00  0.00    +0.031 C 
BRANCH  16  17
ATOM     17  C   UNL     1      32.655 -23.574 -14.315  0.00  0.00    -0.022 C 
ATOM     18  C   UNL     1      31.507 -22.861 -14.625  0.00  0.00    -0.004 C 
ATOM     19  C   UNL     1      32.598 -24.749 -13.583  0.00  0.00    -0.004 C 
ATOM     20  C   UNL     1      30.270 -23.337 -14.192  0.00  0.00    -0.000 C 
ATOM     21  C   UNL     1      31.360 -25.225 -13.151  0.00  0.00    -0.000 C 
ATOM     22  C   UNL     1      30.196 -24.518 -13.455  0.00  0.00    -0.000 C 
ENDBRANCH  16  17
ENDBRANCH  15  16
ENDBRANCH  12  15
ENDBRANCH   8  10
BRANCH   3  23
ATOM     23  C   UNL     1      34.674 -16.933 -23.510  0.00  0.00    -0.023 C 
ATOM     24  C   UNL     1      34.622 -15.801 -22.699  0.00  0.00    -0.011 C 
ATOM     25  C   UNL     1      34.170 -16.889 -24.809  0.00  0.00    -0.004 C 
ATOM     26  C   UNL     1      34.063 -14.620 -23.188  0.00  0.00    -0.045 C 
ATOM     27  C   UNL     1      33.611 -15.708 -25.298  0.00  0.00    -0.001 C 
ATOM     28  C   UNL     1      33.558 -14.574 -24.488  0.00  0.00    -0.006 C 
BRANCH  26  29
ATOM     29  C   UNL     1      34.007 -13.406 -22.323  0.00  0.00    -0.059 C 
BRANCH  29  30
ATOM     30  N   UNL     1      32.949 -13.490 -21.314  0.00  0.00    +0.383 N 
ATOM     31  H   UNL     1      32.848 -12.587 -20.851  0.00  0.00    -0.089 HD
ATOM     32  H   UNL     1      33.192 -14.201 -20.625  0.00  0.00    -0.089 HD
ATOM     33  H   UNL     1      32.069 -13.740 -21.765  0.00  0.00    -0.089 HD
ENDBRANCH  29  30
ENDBRANCH  26  29
ENDBRANCH   3  23
TORSDOF 7
ENDMDL
MODEL 9
REMARK VINA RESULT:     -10.2      3.752     11.319
REMARK  Name = 657077
REMARK  7 active torsions:
REMARK  status: ('A' for Active; 'I' for Inactive)
REMARK    1  A    between atoms: C_3  and  C_23
REMARK    2  A    between atoms: C_8  and  C_10
REMARK    3  A    between atoms: C_12  and  C_15
REMARK    4  A    between atoms: C_15  and  C_16
REMARK    5  A    between atoms: C_16  and  C_17
REMARK    6  A    between atoms: C_26  and  C_29
REMARK    7  A    between atoms: C_29  and  N_30
REMARK                            x       y       z     vdW  Elec       q    Type
REMARK                         _______ _______ _______ _____ _____    ______ ____
ROOT
ATOM      1  O   UNL     1      37.107 -20.368 -18.491  0.00  0.00    -0.270 OA
ATOM      2  N   UNL     1      36.047 -20.299 -20.574  0.00  0.00    -0.276 N 
ATOM      3  C   UNL     1      35.328 -18.541 -22.759  0.00  0.00    +0.026 C 
ATOM      4  C   UNL     1      34.287 -19.441 -22.065  0.00  0.00    +0.026 C 
ATOM      5  C   UNL     1      36.484 -18.210 -21.795  0.00  0.00    +0.026 C 
ATOM      6  C   UNL     1      34.949 -20.683 -21.469  0.00  0.00    +0.094 C 
ATOM      7  C   UNL     1      37.088 -19.483 -21.201  0.00  0.00    +0.094 C 
ATOM      8  C   UNL     1      36.173 -20.669 -19.233  0.00  0.00    +0.251 C 
ENDROOT
BRANCH   8  10
ATOM      9  N   UNL     1      32.831 -22.281 -18.734  0.00  0.00    -0.242 NA
ATOM     10  C   UNL     1      35.103 -21.476 -18.635  0.00  0.00    +0.072 C 
ATOM     11  C   UNL     1      35.316 -22.177 -17.457  0.00  0.00    +0.003 C 
ATOM     12  C   UNL     1      34.283 -22.934 -16.914  0.00  0.00    -0.003 C 
ATOM     13  C   UNL     1      33.859 -21.557 -19.232  0.00  0.00    +0.103 C 
ATOM     14  C   UNL     1      33.071 -22.953 -17.586  0.00  0.00    +0.095 C 
BRANCH  12  15
ATOM     15  C   UNL     1      34.473 -23.699 -15.653  0.00  0.00    +0.033 C 
BRANCH  15  16
ATOM     16  C   UNL     1      35.445 -23.038 -14.654  0.00  0.00    +0.031 C 
BRANCH  16  17
ATOM     17  C   UNL     1      36.385 -24.023 -14.001  0.00  0.00    -0.022 C 
ATOM     18  C   UNL     1      36.538 -25.285 -14.553  0.00  0.00    -0.004 C 
ATOM     19  C   UNL     1      37.078 -23.647 -12.861  0.00  0.00    -0.004 C 
ATOM     20  C   UNL     1      37.405 -26.195 -13.949  0.00  0.00    -0.000 C 
ATOM     21  C   UNL     1      37.947 -24.557 -12.258  0.00  0.00    -0.000 C 
ATOM     22  C   UNL     1      38.110 -25.831 -12.802  0.00  0.00    -0.000 C 
ENDBRANCH  16  17
ENDBRANCH  15  16
ENDBRANCH  12  15
ENDBRANCH   8  10
BRANCH   3  23
ATOM     23  C   UNL     1      34.700 -17.291 -23.344  0.00  0.00    -0.023 C 
ATOM     24  C   UNL     1      34.776 -16.085 -22.651  0.00  0.00    -0.011 C 
ATOM     25  C   UNL     1      34.049 -17.352 -24.575  0.00  0.00    -0.004 C 
ATOM     26  C   UNL     1      34.200 -14.936 -23.189  0.00  0.00    -0.045 C 
ATOM     27  C   UNL     1      33.472 -16.202 -25.114  0.00  0.00    -0.001 C 
ATOM     28  C   UNL     1      33.547 -14.994 -24.421  0.00  0.00    -0.006 C 
BRANCH  26  29
ATOM     29  C   UNL     1      34.281 -13.642 -22.449  0.00  0.00    -0.059 C 
BRANCH  29  30
ATOM     30  N   UNL     1      34.233 -12.485 -23.345  0.00  0.00    +0.383 N 
ATOM     31  H   UNL     1      35.089 -11.939 -23.240  0.00  0.00    -0.089 HD
ATOM     32  H   UNL     1      33.428 -11.905 -23.110  0.00  0.00    -0.089 HD
ATOM     33  H   UNL     1      34.152 -12.805 -24.310  0.00  0.00    -0.089 HD
ENDBRANCH  29  30
ENDBRANCH  26  29
ENDBRANCH   3  23
TORSDOF 7
ENDMDL
