MODEL 1
REMARK VINA RESULT:     -11.8      0.000      0.000
REMARK  Name = 93184
REMARK  8 active torsions:
REMARK  status: ('A' for Active; 'I' for Inactive)
REMARK    1  A    between atoms: C_1  and  C_2
REMARK    2  A    between atoms: C_1  and  C_10
REMARK    3  A    between atoms: C_1  and  C_27
REMARK    4  A    between atoms: N_9  and  CA_18
REMARK    5  A    between atoms: CA_17  and  C_23
REMARK    6  A    between atoms: C_23  and  O_24
REMARK    7  A    between atoms: C_27  and  O_28
REMARK    8  A    between atoms: O_28  and  C_35
REMARK                            x       y       z     vdW  Elec       q    Type
REMARK                         _______ _______ _______ _____ _____    ______ ____
ROOT
ATOM      1  C   UNL     1      32.530 -23.496 -16.465  0.00  0.00    +0.198 C 
ENDROOT
BRANCH   1   2
ATOM      2  C   UNL     1      31.103 -23.587 -15.954  0.00  0.00    -0.003 C 
ATOM      3  C   UNL     1      30.724 -24.695 -15.221  0.00  0.00    -0.003 C 
ATOM      4  C   UNL     1      30.223 -22.560 -16.236  0.00  0.00    -0.003 C 
ATOM      5  C   UNL     1      29.413 -24.780 -14.752  0.00  0.00    -0.000 C 
ATOM      6  C   UNL     1      28.913 -22.645 -15.767  0.00  0.00    -0.000 C 
ATOM      7  C   UNL     1      28.507 -23.754 -15.025  0.00  0.00    -0.000 C 
ENDBRANCH   1   2
BRANCH   1  10
ATOM      8  O   UNL     1      33.036 -22.786 -14.203  0.00  0.00    -0.274 OA
ATOM      9  N   UNL     1      34.810 -23.112 -15.661  0.00  0.00    -0.296 N 
ATOM     10  C   UNL     1      33.457 -23.088 -15.318  0.00  0.00    +0.237 C 
ATOM     11  H   UNL     1      35.058 -23.366 -16.579  0.00  0.00    +0.150 HD
BRANCH   9  18
ATOM     12  S   UNL     1      35.465 -25.463 -13.798  0.00  0.00    -0.118 S 
ATOM     13  O   UNL     1      37.938 -22.740 -16.225  0.00  0.00    -0.273 OA
ATOM     14  N   UNL     1      37.526 -23.952 -14.242  0.00  0.00    -0.260 N 
ATOM     15  C   UNL     1      36.208 -23.800 -13.619  0.00  0.00    +0.151 C 
ATOM     16  C   UNL     1      37.141 -26.267 -13.678  0.00  0.00    +0.068 C 
ATOM     17  CA  UNL     1      38.072 -25.282 -14.418  0.00  0.00    +0.184 C 
ATOM     18  CA  UNL     1      35.880 -22.775 -14.713  0.00  0.00    +0.178 C 
ATOM     19  C   UNL     1      37.301 -23.055 -15.245  0.00  0.00    +0.247 C 
ATOM     20  C   UNL     1      37.468 -26.456 -12.190  0.00  0.00    +0.013 C 
ATOM     21  C   UNL     1      37.093 -27.625 -14.382  0.00  0.00    +0.013 C 
BRANCH  17  23
ATOM     22  OXT UNL     1      39.871 -24.646 -12.940  0.00  0.00    -0.248 OA
ATOM     23  C   UNL     1      39.485 -25.249 -13.930  0.00  0.00    +0.333 C 
BRANCH  23  24
ATOM     24  O   UNL     1      40.289 -25.980 -14.740  0.00  0.00    -0.479 OA
ATOM     25  H   UNL     1      41.220 -25.876 -14.694  0.00  0.00    +0.295 HD
ENDBRANCH  23  24
ENDBRANCH  17  23
ENDBRANCH   9  18
ENDBRANCH   1  10
BRANCH   1  27
ATOM     26  O   UNL     1      32.000 -21.575 -17.872  0.00  0.00    -0.249 OA
ATOM     27  C   UNL     1      32.651 -22.596 -17.688  0.00  0.00    +0.334 C 
BRANCH  27  28
ATOM     28  O   UNL     1      33.646 -23.097 -18.527  0.00  0.00    -0.424 OA
BRANCH  28  35
ATOM     29  C   UNL     1      35.725 -18.793 -22.083  0.00  0.00    +0.009 C 
ATOM     30  C   UNL     1      34.334 -19.257 -21.625  0.00  0.00    +0.026 C 
ATOM     31  C   UNL     1      36.672 -18.987 -20.888  0.00  0.00    +0.026 C 
ATOM     32  C   UNL     1      34.695 -20.292 -20.606  0.00  0.00    -0.023 C 
ATOM     33  C   UNL     1      36.022 -20.138 -20.188  0.00  0.00    -0.026 C 
ATOM     34  C   UNL     1      33.882 -21.271 -20.060  0.00  0.00    +0.033 C 
ATOM     35  C   UNL     1      34.425 -22.113 -19.086  0.00  0.00    +0.148 C 
ATOM     36  C   UNL     1      36.563 -20.960 -19.214  0.00  0.00    -0.001 C 
ATOM     37  C   UNL     1      35.756 -21.958 -18.666  0.00  0.00    +0.037 C 
ENDBRANCH  28  35
ENDBRANCH  27  28
ENDBRANCH   1  27
TORSDOF 8
ENDMDL
MODEL 2
REMARK VINA RESULT:     -10.5      1.291      5.197
REMARK  Name = 93184
REMARK  8 active torsions:
REMARK  status: ('A' for Active; 'I' for Inactive)
REMARK    1  A    between atoms: C_1  and  C_2
REMARK    2  A    between atoms: C_1  and  C_10
REMARK    3  A    between atoms: C_1  and  C_27
REMARK    4  A    between atoms: N_9  and  CA_18
REMARK    5  A    between atoms: CA_17  and  C_23
REMARK    6  A    between atoms: C_23  and  O_24
REMARK    7  A    between atoms: C_27  and  O_28
REMARK    8  A    between atoms: O_28  and  C_35
REMARK                            x       y       z     vdW  Elec       q    Type
REMARK                         _______ _______ _______ _____ _____    ______ ____
ROOT
ATOM      1  C   UNL     1      34.209 -22.112 -17.660  0.00  0.00    +0.198 C 
ENDROOT
BRANCH   1   2
ATOM      2  C   UNL     1      34.190 -21.342 -18.969  0.00  0.00    -0.003 C 
ATOM      3  C   UNL     1      35.388 -21.070 -19.603  0.00  0.00    -0.003 C 
ATOM      4  C   UNL     1      32.977 -20.935 -19.490  0.00  0.00    -0.003 C 
ATOM      5  C   UNL     1      35.370 -20.361 -20.805  0.00  0.00    -0.000 C 
ATOM      6  C   UNL     1      32.960 -20.227 -20.691  0.00  0.00    -0.000 C 
ATOM      7  C   UNL     1      34.157 -19.940 -21.349  0.00  0.00    -0.000 C 
ENDBRANCH   1   2
BRANCH   1  10
ATOM      8  O   UNL     1      36.520 -21.387 -17.540  0.00  0.00    -0.274 OA
ATOM      9  N   UNL     1      35.604 -22.410 -15.671  0.00  0.00    -0.296 N 
ATOM     10  C   UNL     1      35.567 -21.926 -16.980  0.00  0.00    +0.237 C 
ATOM     11  H   UNL     1      34.794 -22.829 -15.301  0.00  0.00    +0.150 HD
BRANCH   9  18
ATOM     12  S   UNL     1      35.749 -24.730 -13.665  0.00  0.00    -0.118 S 
ATOM     13  O   UNL     1      38.661 -22.949 -16.452  0.00  0.00    -0.273 OA
ATOM     14  N   UNL     1      38.098 -23.875 -14.355  0.00  0.00    -0.260 N 
ATOM     15  C   UNL     1      36.925 -23.328 -13.668  0.00  0.00    +0.151 C 
ATOM     16  C   UNL     1      37.150 -25.955 -13.581  0.00  0.00    +0.068 C 
ATOM     17  CA  UNL     1      38.249 -25.313 -14.454  0.00  0.00    +0.184 C 
ATOM     18  CA  UNL     1      36.799 -22.322 -14.820  0.00  0.00    +0.178 C 
ATOM     19  C   UNL     1      38.043 -23.015 -15.413  0.00  0.00    +0.247 C 
ATOM     20  C   UNL     1      37.532 -26.134 -12.105  0.00  0.00    +0.013 C 
ATOM     21  C   UNL     1      36.680 -27.288 -14.167  0.00  0.00    +0.013 C 
BRANCH  17  23
ATOM     22  OXT UNL     1      40.438 -24.853 -13.547  0.00  0.00    -0.248 OA
ATOM     23  C   UNL     1      39.653 -25.639 -14.056  0.00  0.00    +0.333 C 
BRANCH  23  24
ATOM     24  O   UNL     1      39.943 -26.932 -14.341  0.00  0.00    -0.479 OA
ATOM     25  H   UNL     1      40.678 -27.348 -13.934  0.00  0.00    +0.295 HD
ENDBRANCH  23  24
ENDBRANCH  17  23
ENDBRANCH   9  18
ENDBRANCH   1  10
BRANCH   1  27
ATOM     26  O   UNL     1      33.753 -24.150 -18.922  0.00  0.00    -0.249 OA
ATOM     27  C   UNL     1      33.821 -23.574 -17.843  0.00  0.00    +0.334 C 
BRANCH  27  28
ATOM     28  O   UNL     1      33.606 -24.149 -16.590  0.00  0.00    -0.424 OA
BRANCH  28  35
ATOM     29  C   UNL     1      28.008 -22.383 -15.579  0.00  0.00    +0.009 C 
ATOM     30  C   UNL     1      28.686 -23.375 -16.535  0.00  0.00    +0.026 C 
ATOM     31  C   UNL     1      28.784 -22.444 -14.254  0.00  0.00    +0.026 C 
ATOM     32  C   UNL     1      30.095 -23.347 -16.031  0.00  0.00    -0.023 C 
ATOM     33  C   UNL     1      30.149 -22.818 -14.737  0.00  0.00    -0.026 C 
ATOM     34  C   UNL     1      31.237 -23.802 -16.667  0.00  0.00    +0.033 C 
ATOM     35  C   UNL     1      32.454 -23.710 -15.986  0.00  0.00    +0.148 C 
ATOM     36  C   UNL     1      31.349 -22.734 -14.050  0.00  0.00    -0.001 C 
ATOM     37  C   UNL     1      32.509 -23.180 -14.687  0.00  0.00    +0.037 C 
ENDBRANCH  28  35
ENDBRANCH  27  28
ENDBRANCH   1  27
TORSDOF 8
ENDMDL
MODEL 3
REMARK VINA RESULT:     -10.5      1.863      2.509
REMARK  Name = 93184
REMARK  8 active torsions:
REMARK  status: ('A' for Active; 'I' for Inactive)
REMARK    1  A    between atoms: C_1  and  C_2
REMARK    2  A    between atoms: C_1  and  C_10
REMARK    3  A    between atoms: C_1  and  C_27
REMARK    4  A    between atoms: N_9  and  CA_18
REMARK    5  A    between atoms: CA_17  and  C_23
REMARK    6  A    between atoms: C_23  and  O_24
REMARK    7  A    between atoms: C_27  and  O_28
REMARK    8  A    between atoms: O_28  and  C_35
REMARK                            x       y       z     vdW  Elec       q    Type
REMARK                         _______ _______ _______ _____ _____    ______ ____
ROOT
ATOM      1  C   UNL     1      31.559 -24.143 -15.718  0.00  0.00    +0.198 C 
ENDROOT
BRANCH   1   2
ATOM      2  C   UNL     1      30.141 -23.621 -15.562  0.00  0.00    -0.003 C 
ATOM      3  C   UNL     1      29.137 -24.168 -16.337  0.00  0.00    -0.003 C 
ATOM      4  C   UNL     1      29.894 -22.613 -14.650  0.00  0.00    -0.003 C 
ATOM      5  C   UNL     1      27.835 -23.688 -16.195  0.00  0.00    -0.000 C 
ATOM      6  C   UNL     1      28.593 -22.133 -14.508  0.00  0.00    -0.000 C 
ATOM      7  C   UNL     1      27.563 -22.670 -15.280  0.00  0.00    -0.000 C 
ENDBRANCH   1   2
BRANCH   1  10
ATOM      8  O   UNL     1      31.262 -25.105 -13.513  0.00  0.00    -0.274 OA
ATOM      9  N   UNL     1      33.429 -24.776 -14.271  0.00  0.00    -0.296 N 
ATOM     10  C   UNL     1      32.039 -24.719 -14.385  0.00  0.00    +0.237 C 
ATOM     11  H   UNL     1      33.976 -24.445 -15.019  0.00  0.00    +0.150 HD
BRANCH   9  18
ATOM     12  S   UNL     1      36.396 -25.339 -14.823  0.00  0.00    -0.118 S 
ATOM     13  O   UNL     1      34.259 -23.249 -11.585  0.00  0.00    -0.273 OA
ATOM     14  N   UNL     1      35.957 -24.702 -12.347  0.00  0.00    -0.260 N 
ATOM     15  C   UNL     1      35.562 -25.783 -13.255  0.00  0.00    +0.151 C 
ATOM     16  C   UNL     1      37.802 -24.544 -13.895  0.00  0.00    +0.068 C 
ATOM     17  CA  UNL     1      37.113 -23.893 -12.676  0.00  0.00    +0.184 C 
ATOM     18  CA  UNL     1      34.112 -25.310 -13.086  0.00  0.00    +0.178 C 
ATOM     19  C   UNL     1      34.692 -24.225 -12.155  0.00  0.00    +0.247 C 
ATOM     20  C   UNL     1      38.816 -25.641 -13.543  0.00  0.00    +0.013 C 
ATOM     21  C   UNL     1      38.458 -23.492 -14.792  0.00  0.00    +0.013 C 
BRANCH  17  23
ATOM     22  OXT UNL     1      38.832 -22.972 -11.253  0.00  0.00    -0.248 OA
ATOM     23  C   UNL     1      37.952 -23.799 -11.442  0.00  0.00    +0.333 C 
BRANCH  23  24
ATOM     24  O   UNL     1      37.608 -24.763 -10.555  0.00  0.00    -0.479 OA
ATOM     25  H   UNL     1      38.257 -25.133  -9.989  0.00  0.00    +0.295 HD
ENDBRANCH  23  24
ENDBRANCH  17  23
ENDBRANCH   9  18
ENDBRANCH   1  10
BRANCH   1  27
ATOM     26  O   UNL     1      33.277 -22.413 -15.639  0.00  0.00    -0.249 OA
ATOM     27  C   UNL     1      32.501 -23.095 -16.296  0.00  0.00    +0.334 C 
BRANCH  27  28
ATOM     28  O   UNL     1      32.367 -23.079 -17.685  0.00  0.00    -0.424 OA
BRANCH  28  35
ATOM     29  C   UNL     1      35.393 -19.629 -21.484  0.00  0.00    +0.009 C 
ATOM     30  C   UNL     1      33.955 -19.665 -20.947  0.00  0.00    +0.026 C 
ATOM     31  C   UNL     1      36.308 -20.060 -20.327  0.00  0.00    +0.026 C 
ATOM     32  C   UNL     1      34.059 -20.738 -19.909  0.00  0.00    -0.023 C 
ATOM     33  C   UNL     1      35.396 -20.962 -19.558  0.00  0.00    -0.026 C 
ATOM     34  C   UNL     1      33.032 -21.431 -19.291  0.00  0.00    +0.033 C 
ATOM     35  C   UNL     1      33.363 -22.372 -18.314  0.00  0.00    +0.148 C 
ATOM     36  C   UNL     1      35.731 -21.884 -18.580  0.00  0.00    -0.001 C 
ATOM     37  C   UNL     1      34.703 -22.596 -17.960  0.00  0.00    +0.037 C 
ENDBRANCH  28  35
ENDBRANCH  27  28
ENDBRANCH   1  27
TORSDOF 8
ENDMDL
MODEL 4
REMARK VINA RESULT:     -10.4      2.028      6.507
REMARK  Name = 93184
REMARK  8 active torsions:
REMARK  status: ('A' for Active; 'I' for Inactive)
REMARK    1  A    between atoms: C_1  and  C_2
REMARK    2  A    between atoms: C_1  and  C_10
REMARK    3  A    between atoms: C_1  and  C_27
REMARK    4  A    between atoms: N_9  and  CA_18
REMARK    5  A    between atoms: CA_17  and  C_23
REMARK    6  A    between atoms: C_23  and  O_24
REMARK    7  A    between atoms: C_27  and  O_28
REMARK    8  A    between atoms: O_28  and  C_35
REMARK                            x       y       z     vdW  Elec       q    Type
REMARK                         _______ _______ _______ _____ _____    ______ ____
ROOT
ATOM      1  C   UNL     1      36.502 -22.916 -15.132  0.00  0.00    +0.198 C 
ENDROOT
BRANCH   1   2
ATOM      2  C   UNL     1      37.642 -23.718 -14.527  0.00  0.00    -0.003 C 
ATOM      3  C   UNL     1      38.739 -24.017 -15.311  0.00  0.00    -0.003 C 
ATOM      4  C   UNL     1      37.550 -24.126 -13.210  0.00  0.00    -0.003 C 
ATOM      5  C   UNL     1      39.786 -24.755 -14.757  0.00  0.00    -0.000 C 
ATOM      6  C   UNL     1      38.596 -24.863 -12.656  0.00  0.00    -0.000 C 
ATOM      7  C   UNL     1      39.715 -25.178 -13.429  0.00  0.00    -0.000 C 
ENDBRANCH   1   2
BRANCH   1  10
ATOM      8  O   UNL     1      35.503 -25.091 -15.520  0.00  0.00    -0.274 OA
ATOM      9  N   UNL     1      34.237 -23.210 -16.010  0.00  0.00    -0.296 N 
ATOM     10  C   UNL     1      35.388 -23.867 -15.570  0.00  0.00    +0.237 C 
ATOM     11  H   UNL     1      34.231 -22.226 -16.017  0.00  0.00    +0.150 HD
BRANCH   9  18
ATOM     12  S   UNL     1      32.531 -24.178 -13.648  0.00  0.00    -0.118 S 
ATOM     13  O   UNL     1      31.600 -22.016 -17.373  0.00  0.00    -0.273 OA
ATOM     14  N   UNL     1      31.101 -23.653 -15.748  0.00  0.00    -0.260 N 
ATOM     15  C   UNL     1      32.165 -24.597 -15.392  0.00  0.00    +0.151 C 
ATOM     16  C   UNL     1      30.762 -23.671 -13.358  0.00  0.00    +0.068 C 
ATOM     17  CA  UNL     1      30.349 -23.009 -14.690  0.00  0.00    +0.184 C 
ATOM     18  CA  UNL     1      33.034 -23.922 -16.461  0.00  0.00    +0.178 C 
ATOM     19  C   UNL     1      31.819 -23.005 -16.710  0.00  0.00    +0.247 C 
ATOM     20  C   UNL     1      29.963 -24.932 -12.999  0.00  0.00    +0.013 C 
ATOM     21  C   UNL     1      30.714 -22.673 -12.200  0.00  0.00    +0.013 C 
BRANCH  17  23
ATOM     22  OXT UNL     1      28.383 -24.107 -15.558  0.00  0.00    -0.248 OA
ATOM     23  C   UNL     1      28.901 -23.129 -15.042  0.00  0.00    +0.333 C 
BRANCH  23  24
ATOM     24  O   UNL     1      28.233 -21.996 -14.712  0.00  0.00    -0.479 OA
ATOM     25  H   UNL     1      28.698 -21.188 -14.617  0.00  0.00    +0.295 HD
ENDBRANCH  23  24
ENDBRANCH  17  23
ENDBRANCH   9  18
ENDBRANCH   1  10
BRANCH   1  27
ATOM     26  O   UNL     1      37.464 -20.878 -16.066  0.00  0.00    -0.249 OA
ATOM     27  C   UNL     1      36.975 -21.987 -16.242  0.00  0.00    +0.334 C 
BRANCH  27  28
ATOM     28  O   UNL     1      36.804 -22.622 -17.472  0.00  0.00    -0.424 OA
BRANCH  28  35
ATOM     29  C   UNL     1      35.781 -18.249 -21.385  0.00  0.00    +0.009 C 
ATOM     30  C   UNL     1      37.021 -19.011 -20.897  0.00  0.00    +0.026 C 
ATOM     31  C   UNL     1      34.624 -19.259 -21.417  0.00  0.00    +0.026 C 
ATOM     32  C   UNL     1      36.395 -20.061 -20.034  0.00  0.00    -0.023 C 
ATOM     33  C   UNL     1      35.034 -20.201 -20.330  0.00  0.00    -0.026 C 
ATOM     34  C   UNL     1      37.007 -20.864 -19.086  0.00  0.00    +0.033 C 
ATOM     35  C   UNL     1      36.228 -21.813 -18.421  0.00  0.00    +0.148 C 
ATOM     36  C   UNL     1      34.257 -21.149 -19.684  0.00  0.00    -0.001 C 
ATOM     37  C   UNL     1      34.863 -21.954 -18.718  0.00  0.00    +0.037 C 
ENDBRANCH  28  35
ENDBRANCH  27  28
ENDBRANCH   1  27
TORSDOF 8
ENDMDL
MODEL 5
REMARK VINA RESULT:      -9.5      1.482      2.491
REMARK  Name = 93184
REMARK  8 active torsions:
REMARK  status: ('A' for Active; 'I' for Inactive)
REMARK    1  A    between atoms: C_1  and  C_2
REMARK    2  A    between atoms: C_1  and  C_10
REMARK    3  A    between atoms: C_1  and  C_27
REMARK    4  A    between atoms: N_9  and  CA_18
REMARK    5  A    between atoms: CA_17  and  C_23
REMARK    6  A    between atoms: C_23  and  O_24
REMARK    7  A    between atoms: C_27  and  O_28
REMARK    8  A    between atoms: O_28  and  C_35
REMARK                            x       y       z     vdW  Elec       q    Type
REMARK                         _______ _______ _______ _____ _____    ______ ____
ROOT
ATOM      1  C   UNL     1      34.347 -22.459 -18.239  0.00  0.00    +0.198 C 
ENDROOT
BRANCH   1   2
ATOM      2  C   UNL     1      33.136 -22.745 -17.368  0.00  0.00    -0.003 C 
ATOM      3  C   UNL     1      31.934 -22.135 -17.671  0.00  0.00    -0.003 C 
ATOM      4  C   UNL     1      33.270 -23.607 -16.297  0.00  0.00    -0.003 C 
ATOM      5  C   UNL     1      30.822 -22.398 -16.870  0.00  0.00    -0.000 C 
ATOM      6  C   UNL     1      32.158 -23.869 -15.497  0.00  0.00    -0.000 C 
ATOM      7  C   UNL     1      30.934 -23.265 -15.783  0.00  0.00    -0.000 C 
ENDBRANCH   1   2
BRANCH   1  10
ATOM      8  O   UNL     1      36.389 -21.268 -17.701  0.00  0.00    -0.274 OA
ATOM      9  N   UNL     1      35.535 -22.731 -16.117  0.00  0.00    -0.296 N 
ATOM     10  C   UNL     1      35.534 -22.081 -17.352  0.00  0.00    +0.237 C 
ATOM     11  H   UNL     1      34.811 -23.368 -15.920  0.00  0.00    +0.150 HD
BRANCH   9  18
ATOM     12  S   UNL     1      35.610 -25.004 -14.053  0.00  0.00    -0.118 S 
ATOM     13  O   UNL     1      38.714 -22.948 -16.411  0.00  0.00    -0.273 OA
ATOM     14  N   UNL     1      37.936 -23.909 -14.400  0.00  0.00    -0.260 N 
ATOM     15  C   UNL     1      36.620 -23.483 -13.913  0.00  0.00    +0.151 C 
ATOM     16  C   UNL     1      37.101 -26.071 -13.726  0.00  0.00    +0.068 C 
ATOM     17  CA  UNL     1      38.248 -25.323 -14.439  0.00  0.00    +0.184 C 
ATOM     18  CA  UNL     1      36.569 -22.508 -15.097  0.00  0.00    +0.178 C 
ATOM     19  C   UNL     1      37.955 -23.070 -15.476  0.00  0.00    +0.247 C 
ATOM     20  C   UNL     1      37.268 -26.194 -12.205  0.00  0.00    +0.013 C 
ATOM     21  C   UNL     1      36.868 -27.452 -14.342  0.00  0.00    +0.013 C 
BRANCH  17  23
ATOM     22  OXT UNL     1      40.127 -24.703 -13.056  0.00  0.00    -0.248 OA
ATOM     23  C   UNL     1      39.601 -25.494 -13.824  0.00  0.00    +0.333 C 
BRANCH  23  24
ATOM     24  O   UNL     1      40.172 -26.651 -14.238  0.00  0.00    -0.479 OA
ATOM     25  H   UNL     1      40.605 -26.689 -15.068  0.00  0.00    +0.295 HD
ENDBRANCH  23  24
ENDBRANCH  17  23
ENDBRANCH   9  18
ENDBRANCH   1  10
BRANCH   1  27
ATOM     26  O   UNL     1      32.994 -20.819 -19.437  0.00  0.00    -0.249 OA
ATOM     27  C   UNL     1      34.050 -21.429 -19.322  0.00  0.00    +0.334 C 
BRANCH  27  28
ATOM     28  O   UNL     1      35.184 -21.265 -20.118  0.00  0.00    -0.424 OA
BRANCH  28  35
ATOM     29  C   UNL     1      34.515 -17.384 -24.587  0.00  0.00    +0.009 C 
ATOM     30  C   UNL     1      33.814 -18.678 -24.148  0.00  0.00    +0.026 C 
ATOM     31  C   UNL     1      34.914 -16.639 -23.304  0.00  0.00    +0.026 C 
ATOM     32  C   UNL     1      34.481 -18.938 -22.835  0.00  0.00    -0.023 C 
ATOM     33  C   UNL     1      35.106 -17.780 -22.356  0.00  0.00    -0.026 C 
ATOM     34  C   UNL     1      34.491 -20.111 -22.100  0.00  0.00    +0.033 C 
ATOM     35  C   UNL     1      35.152 -20.116 -20.870  0.00  0.00    +0.148 C 
ATOM     36  C   UNL     1      35.753 -17.773 -21.132  0.00  0.00    -0.001 C 
ATOM     37  C   UNL     1      35.778 -18.955 -20.389  0.00  0.00    +0.037 C 
ENDBRANCH  28  35
ENDBRANCH  27  28
ENDBRANCH   1  27
TORSDOF 8
ENDMDL
MODEL 6
REMARK VINA RESULT:      -9.3      1.728      5.561
REMARK  Name = 93184
REMARK  8 active torsions:
REMARK  status: ('A' for Active; 'I' for Inactive)
REMARK    1  A    between atoms: C_1  and  C_2
REMARK    2  A    between atoms: C_1  and  C_10
REMARK    3  A    between atoms: C_1  and  C_27
REMARK    4  A    between atoms: N_9  and  CA_18
REMARK    5  A    between atoms: CA_17  and  C_23
REMARK    6  A    between atoms: C_23  and  O_24
REMARK    7  A    between atoms: C_27  and  O_28
REMARK    8  A    between atoms: O_28  and  C_35
REMARK                            x       y       z     vdW  Elec       q    Type
REMARK                         _______ _______ _______ _____ _____    ______ ____
ROOT
ATOM      1  C   UNL     1      34.483 -22.200 -17.553  0.00  0.00    +0.198 C 
ENDROOT
BRANCH   1   2
ATOM      2  C   UNL     1      34.594 -21.407 -18.844  0.00  0.00    -0.003 C 
ATOM      3  C   UNL     1      35.846 -21.176 -19.382  0.00  0.00    -0.003 C 
ATOM      4  C   UNL     1      33.442 -20.938 -19.444  0.00  0.00    -0.003 C 
ATOM      5  C   UNL     1      35.948 -20.447 -20.567  0.00  0.00    -0.000 C 
ATOM      6  C   UNL     1      33.544 -20.210 -20.628  0.00  0.00    -0.000 C 
ATOM      7  C   UNL     1      34.797 -19.964 -21.190  0.00  0.00    -0.000 C 
ENDBRANCH   1   2
BRANCH   1  10
ATOM      8  O   UNL     1      36.767 -21.516 -17.111  0.00  0.00    -0.274 OA
ATOM      9  N   UNL     1      35.996 -23.449 -16.089  0.00  0.00    -0.296 N 
ATOM     10  C   UNL     1      35.868 -22.332 -16.916  0.00  0.00    +0.237 C 
ATOM     11  H   UNL     1      35.224 -24.051 -15.990  0.00  0.00    +0.150 HD
BRANCH   9  18
ATOM     12  S   UNL     1      35.691 -22.975 -13.071  0.00  0.00    -0.118 S 
ATOM     13  O   UNL     1      37.272 -26.317 -15.468  0.00  0.00    -0.273 OA
ATOM     14  N   UNL     1      37.378 -24.871 -13.606  0.00  0.00    -0.260 N 
ATOM     15  C   UNL     1      37.277 -23.431 -13.862  0.00  0.00    +0.151 C 
ATOM     16  C   UNL     1      35.912 -24.296 -11.776  0.00  0.00    +0.068 C 
ATOM     17  CA  UNL     1      36.578 -25.456 -12.549  0.00  0.00    +0.184 C 
ATOM     18  CA  UNL     1      37.231 -23.766 -15.359  0.00  0.00    +0.178 C 
ATOM     19  C   UNL     1      37.338 -25.240 -14.919  0.00  0.00    +0.247 C 
ATOM     20  C   UNL     1      36.768 -23.710 -10.645  0.00  0.00    +0.013 C 
ATOM     21  C   UNL     1      34.538 -24.700 -11.239  0.00  0.00    +0.013 C 
BRANCH  17  23
ATOM     22  OXT UNL     1      37.118 -27.117 -10.883  0.00  0.00    -0.248 OA
ATOM     23  C   UNL     1      37.485 -26.326 -11.738  0.00  0.00    +0.333 C 
BRANCH  23  24
ATOM     24  O   UNL     1      38.780 -26.116 -12.079  0.00  0.00    -0.479 OA
ATOM     25  H   UNL     1      38.992 -25.516 -12.766  0.00  0.00    +0.295 HD
ENDBRANCH  23  24
ENDBRANCH  17  23
ENDBRANCH   9  18
ENDBRANCH   1  10
BRANCH   1  27
ATOM     26  O   UNL     1      33.519 -24.033 -18.842  0.00  0.00    -0.249 OA
ATOM     27  C   UNL     1      33.781 -23.536 -17.753  0.00  0.00    +0.334 C 
BRANCH  27  28
ATOM     28  O   UNL     1      33.535 -24.114 -16.508  0.00  0.00    -0.424 OA
BRANCH  28  35
ATOM     29  C   UNL     1      27.926 -22.324 -15.600  0.00  0.00    +0.009 C 
ATOM     30  C   UNL     1      28.616 -23.329 -16.536  0.00  0.00    +0.026 C 
ATOM     31  C   UNL     1      28.682 -22.372 -14.264  0.00  0.00    +0.026 C 
ATOM     32  C   UNL     1      30.017 -23.298 -16.011  0.00  0.00    -0.023 C 
ATOM     33  C   UNL     1      30.054 -22.754 -14.721  0.00  0.00    -0.026 C 
ATOM     34  C   UNL     1      31.168 -23.763 -16.624  0.00  0.00    +0.033 C 
ATOM     35  C   UNL     1      32.374 -23.665 -15.926  0.00  0.00    +0.148 C 
ATOM     36  C   UNL     1      31.243 -22.666 -14.018  0.00  0.00    -0.001 C 
ATOM     37  C   UNL     1      32.412 -23.121 -14.632  0.00  0.00    +0.037 C 
ENDBRANCH  28  35
ENDBRANCH  27  28
ENDBRANCH   1  27
TORSDOF 8
ENDMDL
MODEL 7
REMARK VINA RESULT:      -9.2      2.462      3.863
REMARK  Name = 93184
REMARK  8 active torsions:
REMARK  status: ('A' for Active; 'I' for Inactive)
REMARK    1  A    between atoms: C_1  and  C_2
REMARK    2  A    between atoms: C_1  and  C_10
REMARK    3  A    between atoms: C_1  and  C_27
REMARK    4  A    between atoms: N_9  and  CA_18
REMARK    5  A    between atoms: CA_17  and  C_23
REMARK    6  A    between atoms: C_23  and  O_24
REMARK    7  A    between atoms: C_27  and  O_28
REMARK    8  A    between atoms: O_28  and  C_35
REMARK                            x       y       z     vdW  Elec       q    Type
REMARK                         _______ _______ _______ _____ _____    ______ ____
ROOT
ATOM      1  C   UNL     1      36.250 -21.728 -18.624  0.00  0.00    +0.198 C 
ENDROOT
BRANCH   1   2
ATOM      2  C   UNL     1      34.771 -21.946 -18.357  0.00  0.00    -0.003 C 
ATOM      3  C   UNL     1      34.393 -22.818 -17.354  0.00  0.00    -0.003 C 
ATOM      4  C   UNL     1      33.844 -21.267 -19.125  0.00  0.00    -0.003 C 
ATOM      5  C   UNL     1      33.034 -23.019 -17.110  0.00  0.00    -0.000 C 
ATOM      6  C   UNL     1      32.486 -21.468 -18.880  0.00  0.00    -0.000 C 
ATOM      7  C   UNL     1      32.080 -22.344 -17.873  0.00  0.00    -0.000 C 
ENDBRANCH   1   2
BRANCH   1  10
ATOM      8  O   UNL     1      37.282 -20.416 -16.865  0.00  0.00    -0.274 OA
ATOM      9  N   UNL     1      37.255 -22.723 -16.626  0.00  0.00    -0.296 N 
ATOM     10  C   UNL     1      36.982 -21.529 -17.296  0.00  0.00    +0.237 C 
ATOM     11  H   UNL     1      36.980 -23.570 -17.045  0.00  0.00    +0.150 HD
BRANCH   9  18
ATOM     12  S   UNL     1      35.255 -22.864 -14.301  0.00  0.00    -0.118 S 
ATOM     13  O   UNL     1      38.890 -25.140 -15.313  0.00  0.00    -0.273 OA
ATOM     14  N   UNL     1      37.493 -24.055 -13.751  0.00  0.00    -0.260 N 
ATOM     15  C   UNL     1      37.062 -22.689 -14.065  0.00  0.00    +0.151 C 
ATOM     16  C   UNL     1      35.188 -24.253 -13.061  0.00  0.00    +0.068 C 
ATOM     17  CA  UNL     1      36.509 -25.017 -13.298  0.00  0.00    +0.184 C 
ATOM     18  CA  UNL     1      37.934 -22.772 -15.325  0.00  0.00    +0.178 C 
ATOM     19  C   UNL     1      38.284 -24.199 -14.853  0.00  0.00    +0.247 C 
ATOM     20  C   UNL     1      35.053 -23.631 -11.664  0.00  0.00    +0.013 C 
ATOM     21  C   UNL     1      33.973 -25.131 -13.364  0.00  0.00    +0.013 C 
BRANCH  17  23
ATOM     22  OXT UNL     1      37.750 -25.152 -11.232  0.00  0.00    -0.248 OA
ATOM     23  C   UNL     1      37.078 -25.698 -12.094  0.00  0.00    +0.333 C 
BRANCH  23  24
ATOM     24  O   UNL     1      36.749 -27.013 -12.087  0.00  0.00    -0.479 OA
ATOM     25  H   UNL     1      37.189 -27.603 -11.508  0.00  0.00    +0.295 HD
ENDBRANCH  23  24
ENDBRANCH  17  23
ENDBRANCH   9  18
ENDBRANCH   1  10
BRANCH   1  27
ATOM     26  O   UNL     1      37.384 -19.767 -19.529  0.00  0.00    -0.249 OA
ATOM     27  C   UNL     1      36.498 -20.607 -19.624  0.00  0.00    +0.334 C 
BRANCH  27  28
ATOM     28  O   UNL     1      35.591 -20.726 -20.677  0.00  0.00    -0.424 OA
BRANCH  28  35
ATOM     29  C   UNL     1      34.481 -16.616 -24.843  0.00  0.00    +0.009 C 
ATOM     30  C   UNL     1      34.083 -18.083 -24.621  0.00  0.00    +0.026 C 
ATOM     31  C   UNL     1      34.529 -15.955 -23.457  0.00  0.00    +0.026 C 
ATOM     32  C   UNL     1      34.640 -18.329 -23.254  0.00  0.00    -0.023 C 
ATOM     33  C   UNL     1      34.893 -17.121 -22.594  0.00  0.00    -0.026 C 
ATOM     34  C   UNL     1      34.861 -19.545 -22.629  0.00  0.00    +0.033 C 
ATOM     35  C   UNL     1      35.357 -19.537 -21.323  0.00  0.00    +0.148 C 
ATOM     36  C   UNL     1      35.372 -17.104 -21.295  0.00  0.00    -0.001 C 
ATOM     37  C   UNL     1      35.610 -18.325 -20.661  0.00  0.00    +0.037 C 
ENDBRANCH  28  35
ENDBRANCH  27  28
ENDBRANCH   1  27
TORSDOF 8
ENDMDL
MODEL 8
REMARK VINA RESULT:      -9.1      9.258     13.897
REMARK  Name = 93184
REMARK  8 active torsions:
REMARK  status: ('A' for Active; 'I' for Inactive)
REMARK    1  A    between atoms: C_1  and  C_2
REMARK    2  A    between atoms: C_1  and  C_10
REMARK    3  A    between atoms: C_1  and  C_27
REMARK    4  A    between atoms: N_9  and  CA_18
REMARK    5  A    between atoms: CA_17  and  C_23
REMARK    6  A    between atoms: C_23  and  O_24
REMARK    7  A    between atoms: C_27  and  O_28
REMARK    8  A    between atoms: O_28  and  C_35
REMARK                            x       y       z     vdW  Elec       q    Type
REMARK                         _______ _______ _______ _____ _____    ______ ____
ROOT
ATOM      1  C   UNL     1      34.328 -14.199 -23.531  0.00  0.00    +0.198 C 
ENDROOT
BRANCH   1   2
ATOM      2  C   UNL     1      33.661 -14.121 -22.168  0.00  0.00    -0.003 C 
ATOM      3  C   UNL     1      34.253 -14.758 -21.095  0.00  0.00    -0.003 C 
ATOM      4  C   UNL     1      32.479 -13.416 -22.040  0.00  0.00    -0.003 C 
ATOM      5  C   UNL     1      33.640 -14.687 -19.844  0.00  0.00    -0.000 C 
ATOM      6  C   UNL     1      31.866 -13.346 -20.789  0.00  0.00    -0.000 C 
ATOM      7  C   UNL     1      32.446 -13.981 -19.691  0.00  0.00    -0.000 C 
ENDBRANCH   1   2
BRANCH   1  10
ATOM      8  O   UNL     1      33.415 -13.088 -25.483  0.00  0.00    -0.274 OA
ATOM      9  N   UNL     1      34.166 -11.765 -23.732  0.00  0.00    -0.296 N 
ATOM     10  C   UNL     1      33.922 -12.984 -24.367  0.00  0.00    +0.237 C 
ATOM     11  H   UNL     1      34.576 -11.774 -22.837  0.00  0.00    +0.150 HD
BRANCH   9  18
ATOM     12  S   UNL     1      31.892 -10.346 -22.234  0.00  0.00    -0.118 S 
ATOM     13  O   UNL     1      35.851  -9.045 -23.670  0.00  0.00    -0.273 OA
ATOM     14  N   UNL     1      33.544  -8.674 -23.333  0.00  0.00    -0.260 N 
ATOM     15  C   UNL     1      32.619  -9.715 -23.792  0.00  0.00    +0.151 C 
ATOM     16  C   UNL     1      32.051  -8.670 -21.436  0.00  0.00    +0.068 C 
ATOM     17  CA  UNL     1      33.377  -8.119 -22.006  0.00  0.00    +0.184 C 
ATOM     18  CA  UNL     1      33.839 -10.468 -24.339  0.00  0.00    +0.178 C 
ATOM     19  C   UNL     1      34.672  -9.291 -23.792  0.00  0.00    +0.247 C 
ATOM     20  C   UNL     1      30.808  -7.850 -21.810  0.00  0.00    +0.013 C 
ATOM     21  C   UNL     1      32.127  -8.847 -19.919  0.00  0.00    +0.013 C 
BRANCH  17  23
ATOM     22  OXT UNL     1      32.897  -5.834 -21.391  0.00  0.00    -0.248 OA
ATOM     23  C   UNL     1      33.446  -6.631 -22.137  0.00  0.00    +0.333 C 
BRANCH  23  24
ATOM     24  O   UNL     1      34.202  -6.280 -23.206  0.00  0.00    -0.479 OA
ATOM     25  H   UNL     1      34.704  -6.929 -23.658  0.00  0.00    +0.295 HD
ENDBRANCH  23  24
ENDBRANCH  17  23
ENDBRANCH   9  18
ENDBRANCH   1  10
BRANCH   1  27
ATOM     26  O   UNL     1      33.004 -15.847 -24.748  0.00  0.00    -0.249 OA
ATOM     27  C   UNL     1      34.066 -15.527 -24.228  0.00  0.00    +0.334 C 
BRANCH  27  28
ATOM     28  O   UNL     1      35.236 -16.286 -24.218  0.00  0.00    -0.424 OA
BRANCH  28  35
ATOM     29  C   UNL     1      36.608 -20.305 -20.040  0.00  0.00    +0.009 C 
ATOM     30  C   UNL     1      36.950 -18.829 -20.293  0.00  0.00    +0.026 C 
ATOM     31  C   UNL     1      35.158 -20.509 -20.506  0.00  0.00    +0.026 C 
ATOM     32  C   UNL     1      36.070 -18.523 -21.464  0.00  0.00    -0.023 C 
ATOM     33  C   UNL     1      35.053 -19.478 -21.584  0.00  0.00    -0.026 C 
ATOM     34  C   UNL     1      36.145 -17.446 -22.330  0.00  0.00    +0.033 C 
ATOM     35  C   UNL     1      35.186 -17.341 -23.340  0.00  0.00    +0.148 C 
ATOM     36  C   UNL     1      34.091 -19.374 -22.574  0.00  0.00    -0.001 C 
ATOM     37  C   UNL     1      34.166 -18.298 -23.461  0.00  0.00    +0.037 C 
ENDBRANCH  28  35
ENDBRANCH  27  28
ENDBRANCH   1  27
TORSDOF 8
ENDMDL
