MODEL 1
REMARK VINA RESULT:     -11.4      0.000      0.000
REMARK  Name = 24778473
REMARK  2 active torsions:
REMARK  status: ('A' for Active; 'I' for Inactive)
REMARK    1  A    between atoms: C_11  and  C_22
REMARK    2  A    between atoms: C_17  and  N_29
REMARK                            x       y       z     vdW  Elec       q    Type
REMARK                         _______ _______ _______ _____ _____    ______ ____
ROOT
ATOM      1  O   UNL     1      32.880 -22.411 -17.670  0.00  0.00    -0.270 OA
ATOM      2  O   UNL     1      36.973 -23.014 -15.657  0.00  0.00    -0.270 OA
ATOM      3  N   UNL     1      31.243 -24.737 -13.234  0.00  0.00    -0.353 N 
ATOM      4  N   UNL     1      35.095 -22.552 -16.961  0.00  0.00    -0.248 N 
ATOM      5  C   UNL     1      32.327 -23.796 -14.949  0.00  0.00    +0.022 A 
ATOM      6  C   UNL     1      33.507 -23.378 -15.577  0.00  0.00    +0.060 C 
ATOM      7  C   UNL     1      32.493 -24.396 -13.690  0.00  0.00    +0.057 A 
ATOM      8  C   UNL     1      30.920 -23.792 -15.233  0.00  0.00    +0.018 A 
ATOM      9  C   UNL     1      34.750 -23.557 -14.971  0.00  0.00    +0.058 C 
ATOM     10  C   UNL     1      30.277 -24.385 -14.143  0.00  0.00    +0.057 A 
ATOM     11  C   UNL     1      34.901 -24.147 -13.737  0.00  0.00    +0.007 C 
ATOM     12  C   UNL     1      33.751 -24.579 -13.073  0.00  0.00    +0.017 C 
ATOM     13  C   UNL     1      33.734 -22.727 -16.866  0.00  0.00    +0.252 C 
ATOM     14  C   UNL     1      35.775 -23.024 -15.866  0.00  0.00    +0.252 C 
ATOM     15  C   UNL     1      30.117 -23.346 -16.305  0.00  0.00    +0.016 C 
ATOM     16  C   UNL     1      28.887 -24.551 -14.074  0.00  0.00    +0.018 C 
ATOM     17  C   UNL     1      28.727 -23.504 -16.251  0.00  0.00    +0.051 C 
ATOM     18  C   UNL     1      28.122 -24.099 -15.149  0.00  0.00    +0.016 C 
ATOM     19  H   UNL     1      31.064 -25.175 -12.371  0.00  0.00    +0.166 HD
ATOM     20  H   UNL     1      35.537 -22.132 -17.734  0.00  0.00    +0.158 HD
ENDROOT
BRANCH  11  22
ATOM     21 CL   UNL     1      36.571 -26.586 -14.611  0.00  0.00    -0.082 Cl
ATOM     22  C   UNL     1      36.192 -24.330 -13.110  0.00  0.00    +0.011 C 
ATOM     23  C   UNL     1      37.024 -25.401 -13.437  0.00  0.00    +0.058 C 
ATOM     24  C   UNL     1      36.599 -23.396 -12.157  0.00  0.00    +0.001 C 
ATOM     25  C   UNL     1      38.262 -25.540 -12.810  0.00  0.00    +0.011 C 
ATOM     26  C   UNL     1      37.837 -23.535 -11.529  0.00  0.00    +0.000 C 
ATOM     27  C   UNL     1      38.668 -24.606 -11.856  0.00  0.00    +0.001 C 
ENDBRANCH  11  22
BRANCH  17  29
ATOM     28  O   UNL     1      26.255 -21.746 -16.298  0.00  0.00    -0.265 OA
ATOM     29  N   UNL     1      27.940 -23.061 -17.315  0.00  0.00    -0.277 N 
ATOM     30  C   UNL     1      26.812 -22.250 -17.264  0.00  0.00    +0.303 C 
ATOM     31  H   UNL     1      28.218 -23.358 -18.211  0.00  0.00    +0.155 HD
ENDBRANCH  17  29
TORSDOF 2
ENDMDL
MODEL 2
REMARK VINA RESULT:     -10.6      2.321      7.561
REMARK  Name = 24778473
REMARK  2 active torsions:
REMARK  status: ('A' for Active; 'I' for Inactive)
REMARK    1  A    between atoms: C_11  and  C_22
REMARK    2  A    between atoms: C_17  and  N_29
REMARK                            x       y       z     vdW  Elec       q    Type
REMARK                         _______ _______ _______ _____ _____    ______ ____
ROOT
ATOM      1  O   UNL     1      36.031 -23.114 -16.668  0.00  0.00    -0.270 OA
ATOM      2  O   UNL     1      31.537 -22.513 -17.444  0.00  0.00    -0.270 OA
ATOM      3  N   UNL     1      34.193 -24.878 -12.057  0.00  0.00    -0.353 N 
ATOM      4  N   UNL     1      33.863 -22.676 -17.400  0.00  0.00    -0.248 N 
ATOM      5  C   UNL     1      34.562 -24.064 -14.106  0.00  0.00    +0.022 A 
ATOM      6  C   UNL     1      34.105 -23.540 -15.322  0.00  0.00    +0.060 C 
ATOM      7  C   UNL     1      33.563 -24.383 -13.172  0.00  0.00    +0.057 A 
ATOM      8  C   UNL     1      35.824 -24.388 -13.503  0.00  0.00    +0.018 A 
ATOM      9  C   UNL     1      32.744 -23.357 -15.563  0.00  0.00    +0.058 C 
ATOM     10  C   UNL     1      35.555 -24.892 -12.228  0.00  0.00    +0.057 A 
ATOM     11  C   UNL     1      31.773 -23.672 -14.640  0.00  0.00    +0.007 C 
ATOM     12  C   UNL     1      32.183 -24.199 -13.413  0.00  0.00    +0.017 C 
ATOM     13  C   UNL     1      34.827 -23.099 -16.514  0.00  0.00    +0.252 C 
ATOM     14  C   UNL     1      32.589 -22.799 -16.905  0.00  0.00    +0.252 C 
ATOM     15  C   UNL     1      37.175 -24.306 -13.904  0.00  0.00    +0.016 C 
ATOM     16  C   UNL     1      36.558 -25.313 -11.345  0.00  0.00    +0.018 C 
ATOM     17  C   UNL     1      38.189 -24.724 -13.034  0.00  0.00    +0.051 C 
ATOM     18  C   UNL     1      37.883 -25.220 -11.771  0.00  0.00    +0.016 C 
ATOM     19  H   UNL     1      33.729 -25.182 -11.243  0.00  0.00    +0.166 HD
ATOM     20  H   UNL     1      34.065 -22.324 -18.296  0.00  0.00    +0.158 HD
ENDROOT
BRANCH  11  22
ATOM     21 CL   UNL     1      30.193 -26.077 -15.747  0.00  0.00    -0.082 Cl
ATOM     22  C   UNL     1      30.361 -23.482 -14.893  0.00  0.00    +0.011 C 
ATOM     23  C   UNL     1      29.558 -24.508 -15.393  0.00  0.00    +0.058 C 
ATOM     24  C   UNL     1      29.806 -22.232 -14.621  0.00  0.00    +0.001 C 
ATOM     25  C   UNL     1      28.201 -24.283 -15.622  0.00  0.00    +0.011 C 
ATOM     26  C   UNL     1      28.449 -22.007 -14.850  0.00  0.00    +0.000 C 
ATOM     27  C   UNL     1      27.646 -23.032 -15.350  0.00  0.00    +0.001 C 
ENDBRANCH  11  22
BRANCH  17  29
ATOM     28  O   UNL     1      39.980 -26.749 -14.410  0.00  0.00    -0.265 OA
ATOM     29  N   UNL     1      39.523 -24.640 -13.438  0.00  0.00    -0.277 N 
ATOM     30  C   UNL     1      40.287 -25.615 -14.069  0.00  0.00    +0.303 C 
ATOM     31  H   UNL     1      39.977 -23.786 -13.255  0.00  0.00    +0.155 HD
ENDBRANCH  17  29
TORSDOF 2
ENDMDL
MODEL 3
REMARK VINA RESULT:     -10.5      3.157      5.668
REMARK  Name = 24778473
REMARK  2 active torsions:
REMARK  status: ('A' for Active; 'I' for Inactive)
REMARK    1  A    between atoms: C_11  and  C_22
REMARK    2  A    between atoms: C_17  and  N_29
REMARK                            x       y       z     vdW  Elec       q    Type
REMARK                         _______ _______ _______ _____ _____    ______ ____
ROOT
ATOM      1  O   UNL     1      32.107 -22.609 -17.648  0.00  0.00    -0.270 OA
ATOM      2  O   UNL     1      33.262 -24.764 -13.751  0.00  0.00    -0.270 OA
ATOM      3  N   UNL     1      37.275 -21.580 -17.678  0.00  0.00    -0.353 N 
ATOM      4  N   UNL     1      32.323 -23.786 -15.649  0.00  0.00    -0.248 N 
ATOM      5  C   UNL     1      35.166 -22.221 -17.301  0.00  0.00    +0.022 A 
ATOM      6  C   UNL     1      34.201 -22.881 -16.530  0.00  0.00    +0.060 C 
ATOM      7  C   UNL     1      36.477 -22.272 -16.800  0.00  0.00    +0.057 A 
ATOM      8  C   UNL     1      35.209 -21.465 -18.521  0.00  0.00    +0.018 A 
ATOM      9  C   UNL     1      34.545 -23.537 -15.349  0.00  0.00    +0.058 C 
ATOM     10  C   UNL     1      36.537 -21.083 -18.724  0.00  0.00    +0.057 A 
ATOM     11  C   UNL     1      35.834 -23.580 -14.867  0.00  0.00    +0.007 C 
ATOM     12  C   UNL     1      36.830 -22.935 -15.604  0.00  0.00    +0.017 C 
ATOM     13  C   UNL     1      32.761 -23.045 -16.722  0.00  0.00    +0.252 C 
ATOM     14  C   UNL     1      33.332 -24.120 -14.781  0.00  0.00    +0.252 C 
ATOM     15  C   UNL     1      34.256 -21.062 -19.481  0.00  0.00    +0.016 C 
ATOM     16  C   UNL     1      36.954 -20.325 -19.826  0.00  0.00    +0.018 C 
ATOM     17  C   UNL     1      34.657 -20.304 -20.589  0.00  0.00    +0.051 C 
ATOM     18  C   UNL     1      35.989 -19.942 -20.757  0.00  0.00    +0.016 C 
ATOM     19  H   UNL     1      38.245 -21.456 -17.572  0.00  0.00    +0.166 HD
ATOM     20  H   UNL     1      31.384 -24.050 -15.517  0.00  0.00    +0.158 HD
ENDROOT
BRANCH  11  22
ATOM     21 CL   UNL     1      36.601 -26.559 -15.071  0.00  0.00    -0.082 Cl
ATOM     22  C   UNL     1      36.188 -24.263 -13.641  0.00  0.00    +0.011 C 
ATOM     23  C   UNL     1      36.551 -25.609 -13.627  0.00  0.00    +0.058 C 
ATOM     24  C   UNL     1      36.162 -23.534 -12.452  0.00  0.00    +0.001 C 
ATOM     25  C   UNL     1      36.887 -26.229 -12.424  0.00  0.00    +0.011 C 
ATOM     26  C   UNL     1      36.498 -24.154 -11.248  0.00  0.00    +0.000 C 
ATOM     27  C   UNL     1      36.861 -25.501 -11.234  0.00  0.00    +0.001 C 
ENDBRANCH  11  22
BRANCH  17  29
ATOM     28  O   UNL     1      34.988 -19.180 -23.387  0.00  0.00    -0.265 OA
ATOM     29  N   UNL     1      33.709 -19.908 -21.533  0.00  0.00    -0.277 N 
ATOM     30  C   UNL     1      33.933 -19.398 -22.808  0.00  0.00    +0.303 C 
ATOM     31  H   UNL     1      32.767 -20.003 -21.266  0.00  0.00    +0.155 HD
ENDBRANCH  17  29
TORSDOF 2
ENDMDL
MODEL 4
REMARK VINA RESULT:      -9.9      5.322      8.525
REMARK  Name = 24778473
REMARK  2 active torsions:
REMARK  status: ('A' for Active; 'I' for Inactive)
REMARK    1  A    between atoms: C_11  and  C_22
REMARK    2  A    between atoms: C_17  and  N_29
REMARK                            x       y       z     vdW  Elec       q    Type
REMARK                         _______ _______ _______ _____ _____    ______ ____
ROOT
ATOM      1  O   UNL     1      37.383 -21.539 -17.756  0.00  0.00    -0.270 OA
ATOM      2  O   UNL     1      37.321 -18.889 -21.516  0.00  0.00    -0.270 OA
ATOM      3  N   UNL     1      32.224 -21.775 -18.804  0.00  0.00    -0.353 N 
ATOM      4  N   UNL     1      37.726 -20.164 -19.605  0.00  0.00    -0.248 N 
ATOM      5  C   UNL     1      34.431 -21.426 -18.705  0.00  0.00    +0.022 A 
ATOM      6  C   UNL     1      35.608 -20.852 -19.201  0.00  0.00    +0.060 C 
ATOM      7  C   UNL     1      33.264 -21.134 -19.431  0.00  0.00    +0.057 A 
ATOM      8  C   UNL     1      34.046 -22.271 -17.610  0.00  0.00    +0.018 A 
ATOM      9  C   UNL     1      35.596 -20.049 -20.341  0.00  0.00    +0.058 C 
ATOM     10  C   UNL     1      32.666 -22.467 -17.704  0.00  0.00    +0.057 A 
ATOM     11  C   UNL     1      34.447 -19.769 -21.044  0.00  0.00    +0.007 C 
ATOM     12  C   UNL     1      33.248 -20.321 -20.586  0.00  0.00    +0.017 C 
ATOM     13  C   UNL     1      36.989 -20.924 -18.727  0.00  0.00    +0.252 C 
ATOM     14  C   UNL     1      36.964 -19.605 -20.600  0.00  0.00    +0.252 C 
ATOM     15  C   UNL     1      34.726 -22.894 -16.541  0.00  0.00    +0.016 C 
ATOM     16  C   UNL     1      31.941 -23.246 -16.793  0.00  0.00    +0.018 C 
ATOM     17  C   UNL     1      34.016 -23.677 -15.622  0.00  0.00    +0.051 C 
ATOM     18  C   UNL     1      32.642 -23.850 -15.748  0.00  0.00    +0.016 C 
ATOM     19  H   UNL     1      31.287 -21.742 -19.103  0.00  0.00    +0.166 HD
ATOM     20  H   UNL     1      38.698 -20.033 -19.528  0.00  0.00    +0.158 HD
ENDROOT
BRANCH  11  22
ATOM     21 CL   UNL     1      34.907 -16.746 -20.657  0.00  0.00    -0.082 Cl
ATOM     22  C   UNL     1      34.437 -18.937 -22.228  0.00  0.00    +0.011 C 
ATOM     23  C   UNL     1      34.637 -17.558 -22.159  0.00  0.00    +0.058 C 
ATOM     24  C   UNL     1      34.224 -19.551 -23.462  0.00  0.00    +0.001 C 
ATOM     25  C   UNL     1      34.622 -16.792 -23.325  0.00  0.00    +0.011 C 
ATOM     26  C   UNL     1      34.208 -18.784 -24.628  0.00  0.00    +0.000 C 
ATOM     27  C   UNL     1      34.407 -17.406 -24.559  0.00  0.00    +0.001 C 
ENDBRANCH  11  22
BRANCH  17  29
ATOM     28  O   UNL     1      35.696 -26.201 -15.541  0.00  0.00    -0.265 OA
ATOM     29  N   UNL     1      34.695 -24.290 -14.568  0.00  0.00    -0.277 N 
ATOM     30  C   UNL     1      35.453 -25.456 -14.603  0.00  0.00    +0.303 C 
ATOM     31  H   UNL     1      34.631 -23.842 -13.694  0.00  0.00    +0.155 HD
ENDBRANCH  17  29
TORSDOF 2
ENDMDL
MODEL 5
REMARK VINA RESULT:      -9.4     14.254     16.409
REMARK  Name = 24778473
REMARK  2 active torsions:
REMARK  status: ('A' for Active; 'I' for Inactive)
REMARK    1  A    between atoms: C_11  and  C_22
REMARK    2  A    between atoms: C_17  and  N_29
REMARK                            x       y       z     vdW  Elec       q    Type
REMARK                         _______ _______ _______ _____ _____    ______ ____
ROOT
ATOM      1  O   UNL     1      30.972  -9.749 -20.356  0.00  0.00    -0.270 OA
ATOM      2  O   UNL     1      32.014 -14.157 -21.161  0.00  0.00    -0.270 OA
ATOM      3  N   UNL     1      34.417  -9.041 -24.279  0.00  0.00    -0.353 N 
ATOM      4  N   UNL     1      31.256 -12.057 -20.482  0.00  0.00    -0.248 N 
ATOM      5  C   UNL     1      33.037  -9.756 -22.671  0.00  0.00    +0.022 A 
ATOM      6  C   UNL     1      32.447 -10.783 -21.924  0.00  0.00    +0.060 C 
ATOM      7  C   UNL     1      33.946 -10.172 -23.658  0.00  0.00    +0.057 A 
ATOM      8  C   UNL     1      32.982  -8.323 -22.725  0.00  0.00    +0.018 A 
ATOM      9  C   UNL     1      32.758 -12.121 -22.165  0.00  0.00    +0.058 C 
ATOM     10  C   UNL     1      33.853  -7.913 -23.738  0.00  0.00    +0.057 A 
ATOM     11  C   UNL     1      33.651 -12.518 -23.134  0.00  0.00    +0.007 C 
ATOM     12  C   UNL     1      34.264 -11.526 -23.904  0.00  0.00    +0.017 C 
ATOM     13  C   UNL     1      31.474 -10.746 -20.834  0.00  0.00    +0.252 C 
ATOM     14  C   UNL     1      31.989 -12.943 -21.232  0.00  0.00    +0.252 C 
ATOM     15  C   UNL     1      32.282  -7.321 -22.017  0.00  0.00    +0.016 C 
ATOM     16  C   UNL     1      34.057  -6.568 -24.073  0.00  0.00    +0.018 C 
ATOM     17  C   UNL     1      32.474  -5.972 -22.341  0.00  0.00    +0.051 C 
ATOM     18  C   UNL     1      33.350  -5.603 -23.356  0.00  0.00    +0.016 C 
ATOM     19  H   UNL     1      35.070  -9.041 -25.015  0.00  0.00    +0.166 HD
ATOM     20  H   UNL     1      30.639 -12.333 -19.767  0.00  0.00    +0.158 HD
ENDROOT
BRANCH  11  22
ATOM     21 CL   UNL     1      32.792 -13.710 -25.844  0.00  0.00    -0.082 Cl
ATOM     22  C   UNL     1      33.971 -13.907 -23.382  0.00  0.00    +0.011 C 
ATOM     23  C   UNL     1      33.627 -14.539 -24.577  0.00  0.00    +0.058 C 
ATOM     24  C   UNL     1      34.644 -14.615 -22.386  0.00  0.00    +0.001 C 
ATOM     25  C   UNL     1      33.955 -15.880 -24.776  0.00  0.00    +0.011 C 
ATOM     26  C   UNL     1      34.972 -15.956 -22.586  0.00  0.00    +0.000 C 
ATOM     27  C   UNL     1      34.628 -16.588 -23.780  0.00  0.00    +0.001 C 
ENDBRANCH  11  22
BRANCH  17  29
ATOM     28  O   UNL     1      30.276  -4.076 -23.223  0.00  0.00    -0.265 OA
ATOM     29  N   UNL     1      31.778  -4.988 -21.637  0.00  0.00    -0.277 N 
ATOM     30  C   UNL     1      30.774  -4.149 -22.108  0.00  0.00    +0.303 C 
ATOM     31  H   UNL     1      32.028  -4.875 -20.692  0.00  0.00    +0.155 HD
ENDBRANCH  17  29
TORSDOF 2
ENDMDL
MODEL 6
REMARK VINA RESULT:      -9.0      9.139     11.395
REMARK  Name = 24778473
REMARK  2 active torsions:
REMARK  status: ('A' for Active; 'I' for Inactive)
REMARK    1  A    between atoms: C_11  and  C_22
REMARK    2  A    between atoms: C_17  and  N_29
REMARK                            x       y       z     vdW  Elec       q    Type
REMARK                         _______ _______ _______ _____ _____    ______ ____
ROOT
ATOM      1  O   UNL     1      34.078 -16.946 -25.691  0.00  0.00    -0.270 OA
ATOM      2  O   UNL     1      35.044 -20.708 -23.226  0.00  0.00    -0.270 OA
ATOM      3  N   UNL     1      34.479 -14.697 -20.943  0.00  0.00    -0.353 N 
ATOM      4  N   UNL     1      34.543 -19.037 -24.773  0.00  0.00    -0.248 N 
ATOM      5  C   UNL     1      34.396 -16.013 -22.749  0.00  0.00    +0.022 A 
ATOM      6  C   UNL     1      34.494 -17.269 -23.361  0.00  0.00    +0.060 C 
ATOM      7  C   UNL     1      34.613 -15.998 -21.362  0.00  0.00    +0.057 A 
ATOM      8  C   UNL     1      34.123 -14.661 -23.148  0.00  0.00    +0.018 A 
ATOM      9  C   UNL     1      34.787 -18.413 -22.619  0.00  0.00    +0.058 C 
ATOM     10  C   UNL     1      34.183 -13.870 -21.998  0.00  0.00    +0.057 A 
ATOM     11  C   UNL     1      34.997 -18.387 -21.259  0.00  0.00    +0.007 C 
ATOM     12  C   UNL     1      34.911 -17.155 -20.607  0.00  0.00    +0.017 C 
ATOM     13  C   UNL     1      34.336 -17.677 -24.756  0.00  0.00    +0.252 C 
ATOM     14  C   UNL     1      34.818 -19.553 -23.532  0.00  0.00    +0.252 C 
ATOM     15  C   UNL     1      33.829 -14.020 -24.371  0.00  0.00    +0.016 C 
ATOM     16  C   UNL     1      33.966 -12.486 -22.010  0.00  0.00    +0.018 C 
ATOM     17  C   UNL     1      33.610 -12.637 -24.400  0.00  0.00    +0.051 C 
ATOM     18  C   UNL     1      33.678 -11.882 -23.234  0.00  0.00    +0.016 C 
ATOM     19  H   UNL     1      34.580 -14.398 -20.011  0.00  0.00    +0.166 HD
ATOM     20  H   UNL     1      34.498 -19.583 -25.591  0.00  0.00    +0.158 HD
ENDROOT
BRANCH  11  22
ATOM     21 CL   UNL     1      32.643 -20.216 -20.475  0.00  0.00    -0.082 Cl
ATOM     22  C   UNL     1      35.303 -19.575 -20.492  0.00  0.00    +0.011 C 
ATOM     23  C   UNL     1      34.310 -20.467 -20.089  0.00  0.00    +0.058 C 
ATOM     24  C   UNL     1      36.636 -19.818 -20.159  0.00  0.00    +0.001 C 
ATOM     25  C   UNL     1      34.648 -21.602 -19.352  0.00  0.00    +0.011 C 
ATOM     26  C   UNL     1      36.974 -20.953 -19.421  0.00  0.00    +0.000 C 
ATOM     27  C   UNL     1      35.980 -21.844 -19.018  0.00  0.00    +0.001 C 
ENDBRANCH  11  22
BRANCH  17  29
ATOM     28  O   UNL     1      33.906 -13.605 -27.259  0.00  0.00    -0.265 OA
ATOM     29  N   UNL     1      33.319 -12.009 -25.612  0.00  0.00    -0.277 N 
ATOM     30  C   UNL     1      33.481 -12.517 -26.897  0.00  0.00    +0.303 C 
ATOM     31  H   UNL     1      32.955 -11.097 -25.551  0.00  0.00    +0.155 HD
ENDBRANCH  17  29
TORSDOF 2
ENDMDL
MODEL 7
REMARK VINA RESULT:      -8.9      4.101      7.974
REMARK  Name = 24778473
REMARK  2 active torsions:
REMARK  status: ('A' for Active; 'I' for Inactive)
REMARK    1  A    between atoms: C_11  and  C_22
REMARK    2  A    between atoms: C_17  and  N_29
REMARK                            x       y       z     vdW  Elec       q    Type
REMARK                         _______ _______ _______ _____ _____    ______ ____
ROOT
ATOM      1  O   UNL     1      32.589 -23.218 -16.478  0.00  0.00    -0.270 OA
ATOM      2  O   UNL     1      32.606 -20.682 -20.316  0.00  0.00    -0.270 OA
ATOM      3  N   UNL     1      37.768 -22.301 -16.795  0.00  0.00    -0.353 N 
ATOM      4  N   UNL     1      32.222 -21.987 -18.421  0.00  0.00    -0.248 N 
ATOM      5  C   UNL     1      35.549 -22.459 -17.017  0.00  0.00    +0.022 A 
ATOM      6  C   UNL     1      34.358 -22.173 -17.697  0.00  0.00    +0.060 C 
ATOM      7  C   UNL     1      36.714 -21.921 -17.588  0.00  0.00    +0.057 A 
ATOM      8  C   UNL     1      35.948 -23.182 -15.844  0.00  0.00    +0.018 A 
ATOM      9  C   UNL     1      34.357 -21.403 -18.860  0.00  0.00    +0.058 C 
ATOM     10  C   UNL     1      37.336 -23.061 -15.736  0.00  0.00    +0.057 A 
ATOM     11  C   UNL     1      35.505 -20.882 -19.411  0.00  0.00    +0.007 C 
ATOM     12  C   UNL     1      36.717 -21.141 -18.766  0.00  0.00    +0.017 C 
ATOM     13  C   UNL     1      32.974 -22.549 -17.415  0.00  0.00    +0.252 C 
ATOM     14  C   UNL     1      32.977 -21.285 -19.327  0.00  0.00    +0.252 C 
ATOM     15  C   UNL     1      35.277 -23.931 -14.853  0.00  0.00    +0.016 C 
ATOM     16  C   UNL     1      38.077 -23.646 -14.701  0.00  0.00    +0.018 C 
ATOM     17  C   UNL     1      36.002 -24.522 -13.811  0.00  0.00    +0.051 C 
ATOM     18  C   UNL     1      37.384 -24.380 -13.738  0.00  0.00    +0.016 C 
ATOM     19  H   UNL     1      38.707 -22.060 -16.962  0.00  0.00    +0.166 HD
ATOM     20  H   UNL     1      31.244 -22.079 -18.486  0.00  0.00    +0.158 HD
ENDROOT
BRANCH  11  22
ATOM     21 CL   UNL     1      37.550 -18.582 -19.598  0.00  0.00    -0.082 Cl
ATOM     22  C   UNL     1      35.501 -20.083 -20.618  0.00  0.00    +0.011 C 
ATOM     23  C   UNL     1      36.386 -19.021 -20.800  0.00  0.00    +0.058 C 
ATOM     24  C   UNL     1      34.579 -20.402 -21.615  0.00  0.00    +0.001 C 
ATOM     25  C   UNL     1      36.350 -18.277 -21.979  0.00  0.00    +0.011 C 
ATOM     26  C   UNL     1      34.542 -19.657 -22.793  0.00  0.00    +0.000 C 
ATOM     27  C   UNL     1      35.428 -18.595 -22.976  0.00  0.00    +0.001 C 
ENDBRANCH  11  22
BRANCH  17  29
ATOM     28  O   UNL     1      34.925 -23.712 -11.093  0.00  0.00    -0.265 OA
ATOM     29  N   UNL     1      35.331 -25.261 -12.836  0.00  0.00    -0.277 N 
ATOM     30  C   UNL     1      34.862 -24.822 -11.603  0.00  0.00    +0.303 C 
ATOM     31  H   UNL     1      35.170 -26.209 -13.048  0.00  0.00    +0.155 HD
ENDBRANCH  17  29
TORSDOF 2
ENDMDL
MODEL 8
REMARK VINA RESULT:      -8.8      4.837      8.755
REMARK  Name = 24778473
REMARK  2 active torsions:
REMARK  status: ('A' for Active; 'I' for Inactive)
REMARK    1  A    between atoms: C_11  and  C_22
REMARK    2  A    between atoms: C_17  and  N_29
REMARK                            x       y       z     vdW  Elec       q    Type
REMARK                         _______ _______ _______ _____ _____    ______ ____
ROOT
ATOM      1  O   UNL     1      32.453 -22.627 -17.449  0.00  0.00    -0.270 OA
ATOM      2  O   UNL     1      32.159 -20.145 -21.311  0.00  0.00    -0.270 OA
ATOM      3  N   UNL     1      37.549 -21.404 -17.990  0.00  0.00    -0.353 N 
ATOM      4  N   UNL     1      31.933 -21.446 -19.389  0.00  0.00    -0.248 N 
ATOM      5  C   UNL     1      35.336 -21.698 -18.119  0.00  0.00    +0.022 A 
ATOM      6  C   UNL     1      34.104 -21.493 -18.751  0.00  0.00    +0.060 C 
ATOM      7  C   UNL     1      36.442 -21.098 -18.744  0.00  0.00    +0.057 A 
ATOM      8  C   UNL     1      35.827 -22.380 -16.955  0.00  0.00    +0.018 A 
ATOM      9  C   UNL     1      34.008 -20.741 -19.921  0.00  0.00    +0.058 C 
ATOM     10  C   UNL     1      37.208 -22.175 -16.907  0.00  0.00    +0.057 A 
ATOM     11  C   UNL     1      35.099 -20.159 -20.525  0.00  0.00    +0.007 C 
ATOM     12  C   UNL     1      36.350 -20.336 -19.929  0.00  0.00    +0.017 C 
ATOM     13  C   UNL     1      32.757 -21.948 -18.409  0.00  0.00    +0.252 C 
ATOM     14  C   UNL     1      32.606 -20.712 -20.332  0.00  0.00    +0.252 C 
ATOM     15  C   UNL     1      35.243 -23.155 -15.930  0.00  0.00    +0.016 C 
ATOM     16  C   UNL     1      38.024 -22.701 -15.897  0.00  0.00    +0.018 C 
ATOM     17  C   UNL     1      36.045 -23.687 -14.912  0.00  0.00    +0.051 C 
ATOM     18  C   UNL     1      37.417 -23.462 -14.898  0.00  0.00    +0.016 C 
ATOM     19  H   UNL     1      38.465 -21.110 -18.199  0.00  0.00    +0.166 HD
ATOM     20  H   UNL     1      30.960 -21.597 -19.411  0.00  0.00    +0.158 HD
ENDROOT
BRANCH  11  22
ATOM     21 CL   UNL     1      35.111 -17.089 -20.243  0.00  0.00    -0.082 Cl
ATOM     22  C   UNL     1      34.997 -19.377 -21.739  0.00  0.00    +0.011 C 
ATOM     23  C   UNL     1      34.995 -17.983 -21.719  0.00  0.00    +0.058 C 
ATOM     24  C   UNL     1      34.902 -20.057 -22.953  0.00  0.00    +0.001 C 
ATOM     25  C   UNL     1      34.896 -17.267 -22.912  0.00  0.00    +0.011 C 
ATOM     26  C   UNL     1      34.803 -19.342 -24.147  0.00  0.00    +0.000 C 
ATOM     27  C   UNL     1      34.800 -17.947 -24.126  0.00  0.00    +0.001 C 
ENDBRANCH  11  22
BRANCH  17  29
ATOM     28  O   UNL     1      35.973 -23.290 -11.906  0.00  0.00    -0.265 OA
ATOM     29  N   UNL     1      35.460 -24.453 -13.903  0.00  0.00    -0.277 N 
ATOM     30  C   UNL     1      35.466 -24.210 -12.533  0.00  0.00    +0.303 C 
ATOM     31  H   UNL     1      34.985 -25.264 -14.195  0.00  0.00    +0.155 HD
ENDBRANCH  17  29
TORSDOF 2
ENDMDL
MODEL 9
REMARK VINA RESULT:      -8.5     18.403     20.368
REMARK  Name = 24778473
REMARK  2 active torsions:
REMARK  status: ('A' for Active; 'I' for Inactive)
REMARK    1  A    between atoms: C_11  and  C_22
REMARK    2  A    between atoms: C_17  and  N_29
REMARK                            x       y       z     vdW  Elec       q    Type
REMARK                         _______ _______ _______ _____ _____    ______ ____
ROOT
ATOM      1  O   UNL     1      35.070  -6.116 -25.548  0.00  0.00    -0.270 OA
ATOM      2  O   UNL     1      34.349  -9.542 -22.564  0.00  0.00    -0.270 OA
ATOM      3  N   UNL     1      30.580  -4.371 -23.414  0.00  0.00    -0.353 N 
ATOM      4  N   UNL     1      35.026  -7.998 -24.176  0.00  0.00    -0.248 N 
ATOM      5  C   UNL     1      32.438  -5.439 -24.051  0.00  0.00    +0.022 A 
ATOM      6  C   UNL     1      33.332  -6.514 -23.958  0.00  0.00    +0.060 C 
ATOM      7  C   UNL     1      31.336  -5.494 -23.182  0.00  0.00    +0.057 A 
ATOM      8  C   UNL     1      32.311  -4.233 -24.819  0.00  0.00    +0.018 A 
ATOM      9  C   UNL     1      33.119  -7.554 -23.055  0.00  0.00    +0.058 C 
ATOM     10  C   UNL     1      31.143  -3.594 -24.394  0.00  0.00    +0.057 A 
ATOM     11  C   UNL     1      32.035  -7.598 -22.208  0.00  0.00    +0.007 C 
ATOM     12  C   UNL     1      31.117  -6.547 -22.266  0.00  0.00    +0.017 C 
ATOM     13  C   UNL     1      34.568  -6.804 -24.682  0.00  0.00    +0.252 C 
ATOM     14  C   UNL     1      34.213  -8.512 -23.197  0.00  0.00    +0.252 C 
ATOM     15  C   UNL     1      33.067  -3.611 -25.835  0.00  0.00    +0.016 C 
ATOM     16  C   UNL     1      30.700  -2.378 -24.930  0.00  0.00    +0.018 C 
ATOM     17  C   UNL     1      32.638  -2.395 -26.381  0.00  0.00    +0.051 C 
ATOM     18  C   UNL     1      31.469  -1.788 -25.933  0.00  0.00    +0.016 C 
ATOM     19  H   UNL     1      29.745  -4.153 -22.939  0.00  0.00    +0.166 HD
ATOM     20  H   UNL     1      35.851  -8.438 -24.482  0.00  0.00    +0.158 HD
ENDROOT
BRANCH  11  22
ATOM     21 CL   UNL     1      32.989  -7.175 -19.307  0.00  0.00    -0.082 Cl
ATOM     22  C   UNL     1      31.817  -8.679 -21.270  0.00  0.00    +0.011 C 
ATOM     23  C   UNL     1      32.211  -8.585 -19.936  0.00  0.00    +0.058 C 
ATOM     24  C   UNL     1      31.192  -9.836 -21.734  0.00  0.00    +0.001 C 
ATOM     25  C   UNL     1      31.981  -9.650 -19.064  0.00  0.00    +0.011 C 
ATOM     26  C   UNL     1      30.963 -10.901 -20.863  0.00  0.00    +0.000 C 
ATOM     27  C   UNL     1      31.357 -10.808 -19.529  0.00  0.00    +0.001 C 
ENDBRANCH  11  22
BRANCH  17  29
ATOM     28  O   UNL     1      32.668  -2.831 -29.383  0.00  0.00    -0.265 OA
ATOM     29  N   UNL     1      33.391  -1.786 -27.386  0.00  0.00    -0.277 N 
ATOM     30  C   UNL     1      33.353  -2.037 -28.754  0.00  0.00    +0.303 C 
ATOM     31  H   UNL     1      34.025  -1.094 -27.092  0.00  0.00    +0.155 HD
ENDBRANCH  17  29
TORSDOF 2
ENDMDL
