MODEL 1
REMARK VINA RESULT:     -11.9      0.000      0.000
REMARK  Name = 3168
REMARK  6 active torsions:
REMARK  status: ('A' for Active; 'I' for Inactive)
REMARK    1  A    between atoms: N_1  and  C_19
REMARK    2  A    between atoms: C_5  and  N_9
REMARK    3  A    between atoms: C_19  and  C_20
REMARK    4  A    between atoms: C_20  and  C_21
REMARK    5  A    between atoms: C_21  and  C_23
REMARK    6  A    between atoms: C_23  and  C_25
REMARK                            x       y       z     vdW  Elec       q    Type
REMARK                         _______ _______ _______ _____ _____    ______ ____
ROOT
ATOM      1  N   UNL     1      33.924 -16.416 -24.104  0.00  0.00    +0.390 N 
ATOM      2  C   UNL     1      35.005 -15.738 -23.379  0.00  0.00    -0.071 C 
ATOM      3  C   UNL     1      34.490 -14.431 -22.755  0.00  0.00    +0.021 C 
ATOM      4  C   UNL     1      33.444 -15.588 -25.224  0.00  0.00    -0.049 C 
ATOM      5  C   UNL     1      33.657 -13.623 -23.710  0.00  0.00    +0.037 C 
ATOM      6  C   UNL     1      33.191 -14.153 -24.850  0.00  0.00    -0.036 C 
ATOM      7  H   UNL     1      33.151 -16.554 -23.454  0.00  0.00    -0.079 HD
ENDROOT
BRANCH   5   9
ATOM      8  O   UNL     1      34.623 -11.131 -25.055  0.00  0.00    -0.246 OA
ATOM      9  N   UNL     1      33.409 -12.323 -23.374  0.00  0.00    -0.263 N 
ATOM     10  N   UNL     1      33.391 -10.044 -23.360  0.00  0.00    -0.305 N 
ATOM     11  C   UNL     1      32.623 -11.886 -22.291  0.00  0.00    +0.083 A 
ATOM     12  C   UNL     1      33.905 -11.168 -24.064  0.00  0.00    +0.332 A 
ATOM     13  C   UNL     1      32.618 -10.493 -22.291  0.00  0.00    +0.076 A 
ATOM     14  C   UNL     1      31.932 -12.601 -21.333  0.00  0.00    +0.019 C 
ATOM     15  C   UNL     1      31.935  -9.752 -21.351  0.00  0.00    +0.019 C 
ATOM     16  C   UNL     1      31.230 -11.872 -20.367  0.00  0.00    +0.002 C 
ATOM     17  C   UNL     1      31.232 -10.462 -20.377  0.00  0.00    +0.002 C 
ATOM     18  H   UNL     1      33.555  -9.100 -23.590  0.00  0.00    +0.170 HD
ENDBRANCH   5   9
BRANCH   1  19
ATOM     19  C   UNL     1      34.354 -17.730 -24.580  0.00  0.00    -0.076 C 
BRANCH  19  20
ATOM     20  C   UNL     1      34.056 -18.796 -23.524  0.00  0.00    -0.015 C 
BRANCH  20  21
ATOM     21  C   UNL     1      35.310 -19.213 -22.749  0.00  0.00    +0.067 C 
BRANCH  21  23
ATOM     22  O   UNL     1      35.413 -17.910 -20.719  0.00  0.00    -0.291 OA
ATOM     23  C   UNL     1      35.190 -18.998 -21.247  0.00  0.00    +0.173 C 
BRANCH  23  25
ATOM     24  F   UNL     1      33.615 -23.296 -18.051  0.00  0.00    -0.204 F 
ATOM     25  C   UNL     1      34.769 -20.144 -20.392  0.00  0.00    +0.035 C 
ATOM     26  C   UNL     1      35.741 -20.917 -19.798  0.00  0.00    +0.005 C 
ATOM     27  C   UNL     1      33.424 -20.390 -20.231  0.00  0.00    +0.005 C 
ATOM     28  C   UNL     1      35.348 -21.991 -19.000  0.00  0.00    +0.030 C 
ATOM     29  C   UNL     1      33.030 -21.465 -19.434  0.00  0.00    +0.030 C 
ATOM     30  C   UNL     1      33.993 -22.265 -18.817  0.00  0.00    +0.140 C 
ENDBRANCH  23  25
ENDBRANCH  21  23
ENDBRANCH  20  21
ENDBRANCH  19  20
ENDBRANCH   1  19
TORSDOF 6
ENDMDL
MODEL 2
REMARK VINA RESULT:     -11.4      3.870      9.653
REMARK  Name = 3168
REMARK  6 active torsions:
REMARK  status: ('A' for Active; 'I' for Inactive)
REMARK    1  A    between atoms: N_1  and  C_19
REMARK    2  A    between atoms: C_5  and  N_9
REMARK    3  A    between atoms: C_19  and  C_20
REMARK    4  A    between atoms: C_20  and  C_21
REMARK    5  A    between atoms: C_21  and  C_23
REMARK    6  A    between atoms: C_23  and  C_25
REMARK                            x       y       z     vdW  Elec       q    Type
REMARK                         _______ _______ _______ _____ _____    ______ ____
ROOT
ATOM      1  N   UNL     1      33.904 -15.996 -23.634  0.00  0.00    +0.390 N 
ATOM      2  C   UNL     1      34.621 -17.089 -24.301  0.00  0.00    -0.071 C 
ATOM      3  C   UNL     1      34.702 -18.315 -23.377  0.00  0.00    +0.021 C 
ATOM      4  C   UNL     1      34.626 -15.554 -22.429  0.00  0.00    -0.049 C 
ATOM      5  C   UNL     1      35.098 -17.955 -21.972  0.00  0.00    +0.037 C 
ATOM      6  C   UNL     1      35.077 -16.684 -21.545  0.00  0.00    -0.036 C 
ATOM      7  H   UNL     1      32.991 -16.349 -23.349  0.00  0.00    -0.079 HD
ENDROOT
BRANCH   5   9
ATOM      8  O   UNL     1      37.871 -18.692 -21.122  0.00  0.00    -0.246 OA
ATOM      9  N   UNL     1      35.496 -18.976 -21.157  0.00  0.00    -0.263 N 
ATOM     10  N   UNL     1      36.775 -20.412 -19.933  0.00  0.00    -0.305 N 
ATOM     11  C   UNL     1      34.650 -19.912 -20.535  0.00  0.00    +0.083 A 
ATOM     12  C   UNL     1      36.849 -19.276 -20.787  0.00  0.00    +0.332 A 
ATOM     13  C   UNL     1      35.440 -20.785 -19.790  0.00  0.00    +0.076 A 
ATOM     14  C   UNL     1      33.277 -20.051 -20.574  0.00  0.00    +0.019 C 
ATOM     15  C   UNL     1      34.911 -21.825 -19.057  0.00  0.00    +0.019 C 
ATOM     16  C   UNL     1      32.715 -21.100 -19.838  0.00  0.00    +0.002 C 
ATOM     17  C   UNL     1      33.524 -21.977 -19.087  0.00  0.00    +0.002 C 
ATOM     18  H   UNL     1      37.543 -20.861 -19.511  0.00  0.00    +0.170 HD
ENDBRANCH   5   9
BRANCH   1  19
ATOM     19  C   UNL     1      33.688 -14.875 -24.548  0.00  0.00    -0.076 C 
BRANCH  19  20
ATOM     20  C   UNL     1      32.978 -13.731 -23.822  0.00  0.00    -0.015 C 
BRANCH  20  21
ATOM     21  C   UNL     1      33.956 -12.662 -23.325  0.00  0.00    +0.067 C 
BRANCH  21  23
ATOM     22  O   UNL     1      34.253 -11.603 -25.474  0.00  0.00    -0.291 OA
ATOM     23  C   UNL     1      34.077 -11.471 -24.265  0.00  0.00    +0.173 C 
BRANCH  23  25
ATOM     24  F   UNL     1      33.631  -6.328 -22.138  0.00  0.00    -0.204 F 
ATOM     25  C   UNL     1      33.960 -10.098 -23.696  0.00  0.00    +0.035 C 
ATOM     26  C   UNL     1      32.825  -9.772 -22.987  0.00  0.00    +0.005 C 
ATOM     27  C   UNL     1      34.988  -9.206 -23.901  0.00  0.00    +0.005 C 
ATOM     28  C   UNL     1      32.712  -8.487 -22.457  0.00  0.00    +0.030 C 
ATOM     29  C   UNL     1      34.876  -7.921 -23.371  0.00  0.00    +0.030 C 
ATOM     30  C   UNL     1      33.738  -7.561 -22.648  0.00  0.00    +0.140 C 
ENDBRANCH  23  25
ENDBRANCH  21  23
ENDBRANCH  20  21
ENDBRANCH  19  20
ENDBRANCH   1  19
TORSDOF 6
ENDMDL
MODEL 3
REMARK VINA RESULT:     -11.4      1.369      2.208
REMARK  Name = 3168
REMARK  6 active torsions:
REMARK  status: ('A' for Active; 'I' for Inactive)
REMARK    1  A    between atoms: N_1  and  C_19
REMARK    2  A    between atoms: C_5  and  N_9
REMARK    3  A    between atoms: C_19  and  C_20
REMARK    4  A    between atoms: C_20  and  C_21
REMARK    5  A    between atoms: C_21  and  C_23
REMARK    6  A    between atoms: C_23  and  C_25
REMARK                            x       y       z     vdW  Elec       q    Type
REMARK                         _______ _______ _______ _____ _____    ______ ____
ROOT
ATOM      1  N   UNL     1      33.960 -16.156 -23.878  0.00  0.00    +0.390 N 
ATOM      2  C   UNL     1      34.946 -15.481 -23.025  0.00  0.00    -0.071 C 
ATOM      3  C   UNL     1      34.319 -14.245 -22.361  0.00  0.00    +0.021 C 
ATOM      4  C   UNL     1      33.527 -15.276 -24.976  0.00  0.00    -0.049 C 
ATOM      5  C   UNL     1      33.522 -13.412 -23.325  0.00  0.00    +0.037 C 
ATOM      6  C   UNL     1      33.174 -13.883 -24.532  0.00  0.00    -0.036 C 
ATOM      7  H   UNL     1      33.147 -16.374 -23.303  0.00  0.00    -0.079 HD
ENDROOT
BRANCH   5   9
ATOM      8  O   UNL     1      31.400 -12.573 -21.390  0.00  0.00    -0.246 OA
ATOM      9  N   UNL     1      33.183 -12.151 -22.926  0.00  0.00    -0.263 N 
ATOM     10  N   UNL     1      32.165 -10.396 -21.888  0.00  0.00    -0.305 N 
ATOM     11  C   UNL     1      33.789 -10.957 -23.363  0.00  0.00    +0.083 A 
ATOM     12  C   UNL     1      32.151 -11.815 -21.990  0.00  0.00    +0.332 A 
ATOM     13  C   UNL     1      33.160  -9.891 -22.723  0.00  0.00    +0.076 A 
ATOM     14  C   UNL     1      34.821 -10.745 -24.254  0.00  0.00    +0.019 C 
ATOM     15  C   UNL     1      33.522  -8.579 -22.935  0.00  0.00    +0.019 C 
ATOM     16  C   UNL     1      35.207  -9.421 -24.488  0.00  0.00    +0.002 C 
ATOM     17  C   UNL     1      34.564  -8.349 -23.835  0.00  0.00    +0.002 C 
ATOM     18  H   UNL     1      31.568  -9.857 -21.319  0.00  0.00    +0.170 HD
ENDBRANCH   5   9
BRANCH   1  19
ATOM     19  C   UNL     1      34.492 -17.414 -24.402  0.00  0.00    -0.076 C 
BRANCH  19  20
ATOM     20  C   UNL     1      34.166 -18.563 -23.446  0.00  0.00    -0.015 C 
BRANCH  20  21
ATOM     21  C   UNL     1      35.405 -19.068 -22.701  0.00  0.00    +0.067 C 
BRANCH  21  23
ATOM     22  O   UNL     1      35.561 -17.870 -20.612  0.00  0.00    -0.291 OA
ATOM     23  C   UNL     1      35.302 -18.923 -21.190  0.00  0.00    +0.173 C 
BRANCH  23  25
ATOM     24  F   UNL     1      33.619 -23.324 -18.194  0.00  0.00    -0.204 F 
ATOM     25  C   UNL     1      34.852 -20.097 -20.388  0.00  0.00    +0.035 C 
ATOM     26  C   UNL     1      35.804 -20.901 -19.803  0.00  0.00    +0.005 C 
ATOM     27  C   UNL     1      33.502 -20.335 -20.265  0.00  0.00    +0.005 C 
ATOM     28  C   UNL     1      35.384 -22.001 -19.055  0.00  0.00    +0.030 C 
ATOM     29  C   UNL     1      33.081 -21.435 -19.517  0.00  0.00    +0.030 C 
ATOM     30  C   UNL     1      34.023 -22.268 -18.912  0.00  0.00    +0.140 C 
ENDBRANCH  23  25
ENDBRANCH  21  23
ENDBRANCH  20  21
ENDBRANCH  19  20
ENDBRANCH   1  19
TORSDOF 6
ENDMDL
MODEL 4
REMARK VINA RESULT:     -11.1      3.018      5.313
REMARK  Name = 3168
REMARK  6 active torsions:
REMARK  status: ('A' for Active; 'I' for Inactive)
REMARK    1  A    between atoms: N_1  and  C_19
REMARK    2  A    between atoms: C_5  and  N_9
REMARK    3  A    between atoms: C_19  and  C_20
REMARK    4  A    between atoms: C_20  and  C_21
REMARK    5  A    between atoms: C_21  and  C_23
REMARK    6  A    between atoms: C_23  and  C_25
REMARK                            x       y       z     vdW  Elec       q    Type
REMARK                         _______ _______ _______ _____ _____    ______ ____
ROOT
ATOM      1  N   UNL     1      35.930 -19.722 -20.214  0.00  0.00    +0.390 N 
ATOM      2  C   UNL     1      36.939 -19.189 -21.137  0.00  0.00    -0.071 C 
ATOM      3  C   UNL     1      36.417 -17.915 -21.820  0.00  0.00    +0.021 C 
ATOM      4  C   UNL     1      34.712 -20.116 -20.941  0.00  0.00    -0.049 C 
ATOM      5  C   UNL     1      35.006 -18.062 -22.316  0.00  0.00    +0.037 C 
ATOM      6  C   UNL     1      34.231 -19.083 -21.923  0.00  0.00    -0.036 C 
ATOM      7  H   UNL     1      35.684 -18.981 -19.558  0.00  0.00    -0.079 HD
ENDROOT
BRANCH   5   9
ATOM      8  O   UNL     1      34.305 -18.393 -25.206  0.00  0.00    -0.246 OA
ATOM      9  N   UNL     1      34.555 -17.121 -23.197  0.00  0.00    -0.263 N 
ATOM     10  N   UNL     1      33.810 -16.089 -25.088  0.00  0.00    -0.305 N 
ATOM     11  C   UNL     1      34.322 -15.763 -22.906  0.00  0.00    +0.083 A 
ATOM     12  C   UNL     1      34.236 -17.347 -24.576  0.00  0.00    +0.332 A 
ATOM     13  C   UNL     1      33.868 -15.142 -24.068  0.00  0.00    +0.076 A 
ATOM     14  C   UNL     1      34.475 -15.055 -21.731  0.00  0.00    +0.019 C 
ATOM     15  C   UNL     1      33.548 -13.803 -24.117  0.00  0.00    +0.019 C 
ATOM     16  C   UNL     1      34.158 -13.692 -21.756  0.00  0.00    +0.002 C 
ATOM     17  C   UNL     1      33.699 -13.073 -22.936  0.00  0.00    +0.002 C 
ATOM     18  H   UNL     1      33.522 -15.915 -26.014  0.00  0.00    +0.170 HD
ENDBRANCH   5   9
BRANCH   1  19
ATOM     19  C   UNL     1      36.461 -20.846 -19.446  0.00  0.00    -0.076 C 
BRANCH  19  20
ATOM     20  C   UNL     1      35.446 -21.990 -19.412  0.00  0.00    -0.015 C 
BRANCH  20  21
ATOM     21  C   UNL     1      34.955 -22.290 -17.992  0.00  0.00    +0.067 C 
BRANCH  21  23
ATOM     22  O   UNL     1      32.723 -22.462 -18.894  0.00  0.00    -0.291 OA
ATOM     23  C   UNL     1      33.459 -22.555 -17.914  0.00  0.00    +0.173 C 
BRANCH  23  25
ATOM     24  F   UNL     1      31.267 -24.080 -13.010  0.00  0.00    -0.204 F 
ATOM     25  C   UNL     1      32.873 -22.961 -16.604  0.00  0.00    +0.035 C 
ATOM     26  C   UNL     1      33.722 -23.354 -15.595  0.00  0.00    +0.005 C 
ATOM     27  C   UNL     1      31.505 -22.928 -16.453  0.00  0.00    +0.005 C 
ATOM     28  C   UNL     1      33.175 -23.736 -14.370  0.00  0.00    +0.030 C 
ATOM     29  C   UNL     1      30.957 -23.310 -15.228  0.00  0.00    +0.030 C 
ATOM     30  C   UNL     1      31.793 -23.714 -14.186  0.00  0.00    +0.140 C 
ENDBRANCH  23  25
ENDBRANCH  21  23
ENDBRANCH  20  21
ENDBRANCH  19  20
ENDBRANCH   1  19
TORSDOF 6
ENDMDL
MODEL 5
REMARK VINA RESULT:     -11.0      5.424     11.090
REMARK  Name = 3168
REMARK  6 active torsions:
REMARK  status: ('A' for Active; 'I' for Inactive)
REMARK    1  A    between atoms: N_1  and  C_19
REMARK    2  A    between atoms: C_5  and  N_9
REMARK    3  A    between atoms: C_19  and  C_20
REMARK    4  A    between atoms: C_20  and  C_21
REMARK    5  A    between atoms: C_21  and  C_23
REMARK    6  A    between atoms: C_23  and  C_25
REMARK                            x       y       z     vdW  Elec       q    Type
REMARK                         _______ _______ _______ _____ _____    ______ ____
ROOT
ATOM      1  N   UNL     1      35.433 -21.300 -18.742  0.00  0.00    +0.390 N 
ATOM      2  C   UNL     1      34.567 -22.437 -19.076  0.00  0.00    -0.071 C 
ATOM      3  C   UNL     1      33.820 -22.924 -17.824  0.00  0.00    +0.021 C 
ATOM      4  C   UNL     1      36.469 -21.697 -17.774  0.00  0.00    -0.049 C 
ATOM      5  C   UNL     1      34.717 -23.041 -16.624  0.00  0.00    +0.037 C 
ATOM      6  C   UNL     1      35.939 -22.489 -16.610  0.00  0.00    -0.036 C 
ATOM      7  H   UNL     1      34.851 -20.581 -18.311  0.00  0.00    -0.079 HD
ENDROOT
BRANCH   5   9
ATOM      8  O   UNL     1      36.121 -25.100 -14.969  0.00  0.00    -0.246 OA
ATOM      9  N   UNL     1      34.240 -23.746 -15.556  0.00  0.00    -0.263 N 
ATOM     10  N   UNL     1      34.074 -25.186 -13.798  0.00  0.00    -0.305 N 
ATOM     11  C   UNL     1      32.948 -23.637 -15.006  0.00  0.00    +0.083 A 
ATOM     12  C   UNL     1      34.969 -24.724 -14.803  0.00  0.00    +0.332 A 
ATOM     13  C   UNL     1      32.857 -24.521 -13.933  0.00  0.00    +0.076 A 
ATOM     14  C   UNL     1      31.879 -22.843 -15.369  0.00  0.00    +0.019 C 
ATOM     15  C   UNL     1      31.713 -24.656 -13.177  0.00  0.00    +0.019 C 
ATOM     16  C   UNL     1      30.705 -22.962 -14.617  0.00  0.00    +0.002 C 
ATOM     17  C   UNL     1      30.624 -23.859 -13.533  0.00  0.00    +0.002 C 
ATOM     18  H   UNL     1      34.281 -25.866 -13.116  0.00  0.00    +0.170 HD
ENDBRANCH   5   9
BRANCH   1  19
ATOM     19  C   UNL     1      36.038 -20.729 -19.944  0.00  0.00    -0.076 C 
BRANCH  19  20
ATOM     20  C   UNL     1      35.008 -19.898 -20.711  0.00  0.00    -0.015 C 
BRANCH  20  21
ATOM     21  C   UNL     1      35.664 -18.870 -21.637  0.00  0.00    +0.067 C 
BRANCH  21  23
ATOM     22  O   UNL     1      34.784 -19.762 -23.700  0.00  0.00    -0.291 OA
ATOM     23  C   UNL     1      34.997 -18.774 -23.001  0.00  0.00    +0.173 C 
BRANCH  23  25
ATOM     24  F   UNL     1      33.398 -13.752 -24.845  0.00  0.00    -0.204 F 
ATOM     25  C   UNL     1      34.571 -17.433 -23.495  0.00  0.00    +0.035 C 
ATOM     26  C   UNL     1      34.875 -16.324 -22.738  0.00  0.00    +0.005 C 
ATOM     27  C   UNL     1      33.888 -17.353 -24.688  0.00  0.00    +0.005 C 
ATOM     28  C   UNL     1      34.475 -15.069 -23.198  0.00  0.00    +0.030 C 
ATOM     29  C   UNL     1      33.487 -16.099 -25.148  0.00  0.00    +0.030 C 
ATOM     30  C   UNL     1      33.781 -14.956 -24.403  0.00  0.00    +0.140 C 
ENDBRANCH  23  25
ENDBRANCH  21  23
ENDBRANCH  20  21
ENDBRANCH  19  20
ENDBRANCH   1  19
TORSDOF 6
ENDMDL
MODEL 6
REMARK VINA RESULT:     -10.7      6.228     12.179
REMARK  Name = 3168
REMARK  6 active torsions:
REMARK  status: ('A' for Active; 'I' for Inactive)
REMARK    1  A    between atoms: N_1  and  C_19
REMARK    2  A    between atoms: C_5  and  N_9
REMARK    3  A    between atoms: C_19  and  C_20
REMARK    4  A    between atoms: C_20  and  C_21
REMARK    5  A    between atoms: C_21  and  C_23
REMARK    6  A    between atoms: C_23  and  C_25
REMARK                            x       y       z     vdW  Elec       q    Type
REMARK                         _______ _______ _______ _____ _____    ______ ____
ROOT
ATOM      1  N   UNL     1      33.945 -22.809 -17.802  0.00  0.00    +0.390 N 
ATOM      2  C   UNL     1      35.051 -22.100 -17.147  0.00  0.00    -0.071 C 
ATOM      3  C   UNL     1      35.665 -22.974 -16.042  0.00  0.00    +0.021 C 
ATOM      4  C   UNL     1      32.859 -23.082 -16.845  0.00  0.00    -0.049 C 
ATOM      5  C   UNL     1      34.624 -23.625 -15.175  0.00  0.00    +0.037 C 
ATOM      6  C   UNL     1      33.334 -23.659 -15.540  0.00  0.00    -0.036 C 
ATOM      7  H   UNL     1      34.303 -23.700 -18.142  0.00  0.00    -0.079 HD
ENDROOT
BRANCH   5   9
ATOM      8  O   UNL     1      33.117 -23.904 -12.605  0.00  0.00    -0.246 OA
ATOM      9  N   UNL     1      35.047 -24.165 -13.994  0.00  0.00    -0.263 N 
ATOM     10  N   UNL     1      35.117 -24.893 -11.835  0.00  0.00    -0.305 N 
ATOM     11  C   UNL     1      36.319 -24.715 -13.747  0.00  0.00    +0.083 A 
ATOM     12  C   UNL     1      34.270 -24.268 -12.793  0.00  0.00    +0.332 A 
ATOM     13  C   UNL     1      36.351 -25.157 -12.425  0.00  0.00    +0.076 A 
ATOM     14  C   UNL     1      37.416 -24.852 -14.572  0.00  0.00    +0.019 C 
ATOM     15  C   UNL     1      37.464 -25.749 -11.868  0.00  0.00    +0.019 C 
ATOM     16  C   UNL     1      38.559 -25.450 -14.029  0.00  0.00    +0.002 C 
ATOM     17  C   UNL     1      38.582 -25.894 -12.691  0.00  0.00    +0.002 C 
ATOM     18  H   UNL     1      34.871 -25.105 -10.905  0.00  0.00    +0.170 HD
ENDBRANCH   5   9
BRANCH   1  19
ATOM     19  C   UNL     1      33.445 -22.055 -18.951  0.00  0.00    -0.076 C 
BRANCH  19  20
ATOM     20  C   UNL     1      34.580 -21.255 -19.592  0.00  0.00    -0.015 C 
BRANCH  20  21
ATOM     21  C   UNL     1      34.062 -20.167 -20.537  0.00  0.00    +0.067 C 
BRANCH  21  23
ATOM     22  O   UNL     1      36.240 -19.129 -20.461  0.00  0.00    -0.291 OA
ATOM     23  C   UNL     1      35.150 -19.219 -21.022  0.00  0.00    +0.173 C 
BRANCH  23  25
ATOM     24  F   UNL     1      34.159 -16.100 -25.545  0.00  0.00    -0.204 F 
ATOM     25  C   UNL     1      34.886 -18.387 -22.230  0.00  0.00    +0.035 C 
ATOM     26  C   UNL     1      35.261 -17.063 -22.214  0.00  0.00    +0.005 C 
ATOM     27  C   UNL     1      34.277 -18.973 -23.317  0.00  0.00    +0.005 C 
ATOM     28  C   UNL     1      35.013 -16.283 -23.344  0.00  0.00    +0.030 C 
ATOM     29  C   UNL     1      34.028 -18.194 -24.447  0.00  0.00    +0.030 C 
ATOM     30  C   UNL     1      34.397 -16.848 -24.460  0.00  0.00    +0.140 C 
ENDBRANCH  23  25
ENDBRANCH  21  23
ENDBRANCH  20  21
ENDBRANCH  19  20
ENDBRANCH   1  19
TORSDOF 6
ENDMDL
MODEL 7
REMARK VINA RESULT:     -10.5      3.504      6.376
REMARK  Name = 3168
REMARK  6 active torsions:
REMARK  status: ('A' for Active; 'I' for Inactive)
REMARK    1  A    between atoms: N_1  and  C_19
REMARK    2  A    between atoms: C_5  and  N_9
REMARK    3  A    between atoms: C_19  and  C_20
REMARK    4  A    between atoms: C_20  and  C_21
REMARK    5  A    between atoms: C_21  and  C_23
REMARK    6  A    between atoms: C_23  and  C_25
REMARK                            x       y       z     vdW  Elec       q    Type
REMARK                         _______ _______ _______ _____ _____    ______ ____
ROOT
ATOM      1  N   UNL     1      36.012 -20.892 -19.882  0.00  0.00    +0.390 N 
ATOM      2  C   UNL     1      34.593 -20.521 -19.844  0.00  0.00    -0.071 C 
ATOM      3  C   UNL     1      34.162 -19.925 -21.193  0.00  0.00    +0.021 C 
ATOM      4  C   UNL     1      36.859 -19.706 -20.095  0.00  0.00    -0.049 C 
ATOM      5  C   UNL     1      35.147 -18.921 -21.724  0.00  0.00    +0.037 C 
ATOM      6  C   UNL     1      36.379 -18.813 -21.206  0.00  0.00    -0.036 C 
ATOM      7  H   UNL     1      36.148 -21.528 -20.667  0.00  0.00    -0.079 HD
ENDROOT
BRANCH   5   9
ATOM      8  O   UNL     1      34.395 -19.680 -24.519  0.00  0.00    -0.246 OA
ATOM      9  N   UNL     1      34.726 -18.114 -22.742  0.00  0.00    -0.263 N 
ATOM     10  N   UNL     1      34.004 -17.366 -24.770  0.00  0.00    -0.305 N 
ATOM     11  C   UNL     1      34.558 -16.718 -22.672  0.00  0.00    +0.083 A 
ATOM     12  C   UNL     1      34.380 -18.544 -24.065  0.00  0.00    +0.332 A 
ATOM     13  C   UNL     1      34.117 -16.271 -23.916  0.00  0.00    +0.076 A 
ATOM     14  C   UNL     1      34.758 -15.838 -21.628  0.00  0.00    +0.019 C 
ATOM     15  C   UNL     1      33.857 -14.944 -24.179  0.00  0.00    +0.019 C 
ATOM     16  C   UNL     1      34.501 -14.484 -21.869  0.00  0.00    +0.002 C 
ATOM     17  C   UNL     1      34.055 -14.042 -23.132  0.00  0.00    +0.002 C 
ATOM     18  H   UNL     1      33.712 -17.330 -25.710  0.00  0.00    +0.170 HD
ENDBRANCH   5   9
BRANCH   1  19
ATOM     19  C   UNL     1      36.404 -21.595 -18.661  0.00  0.00    -0.076 C 
BRANCH  19  20
ATOM     20  C   UNL     1      35.167 -22.135 -17.942  0.00  0.00    -0.015 C 
BRANCH  20  21
ATOM     21  C   UNL     1      35.423 -22.387 -16.453  0.00  0.00    +0.067 C 
BRANCH  21  23
ATOM     22  O   UNL     1      35.116 -24.669 -15.731  0.00  0.00    -0.291 OA
ATOM     23  C   UNL     1      34.625 -23.555 -15.892  0.00  0.00    +0.173 C 
BRANCH  23  25
ATOM     24  F   UNL     1      29.297 -22.703 -14.456  0.00  0.00    -0.204 F 
ATOM     25  C   UNL     1      33.202 -23.329 -15.508  0.00  0.00    +0.035 C 
ATOM     26  C   UNL     1      32.264 -23.185 -16.505  0.00  0.00    +0.005 C 
ATOM     27  C   UNL     1      32.879 -23.271 -14.171  0.00  0.00    +0.005 C 
ATOM     28  C   UNL     1      30.932 -22.971 -16.146  0.00  0.00    +0.030 C 
ATOM     29  C   UNL     1      31.548 -23.057 -13.811  0.00  0.00    +0.030 C 
ATOM     30  C   UNL     1      30.574 -22.907 -14.800  0.00  0.00    +0.140 C 
ENDBRANCH  23  25
ENDBRANCH  21  23
ENDBRANCH  20  21
ENDBRANCH  19  20
ENDBRANCH   1  19
TORSDOF 6
ENDMDL
MODEL 8
REMARK VINA RESULT:     -10.4      2.645      4.190
REMARK  Name = 3168
REMARK  6 active torsions:
REMARK  status: ('A' for Active; 'I' for Inactive)
REMARK    1  A    between atoms: N_1  and  C_19
REMARK    2  A    between atoms: C_5  and  N_9
REMARK    3  A    between atoms: C_19  and  C_20
REMARK    4  A    between atoms: C_20  and  C_21
REMARK    5  A    between atoms: C_21  and  C_23
REMARK    6  A    between atoms: C_23  and  C_25
REMARK                            x       y       z     vdW  Elec       q    Type
REMARK                         _______ _______ _______ _____ _____    ______ ____
ROOT
ATOM      1  N   UNL     1      33.357 -12.953 -22.748  0.00  0.00    +0.390 N 
ATOM      2  C   UNL     1      33.407 -11.778 -23.626  0.00  0.00    -0.071 C 
ATOM      3  C   UNL     1      33.431 -10.489 -22.790  0.00  0.00    +0.021 C 
ATOM      4  C   UNL     1      32.119 -12.959 -21.950  0.00  0.00    -0.049 C 
ATOM      5  C   UNL     1      32.422 -10.503 -21.676  0.00  0.00    +0.037 C 
ATOM      6  C   UNL     1      31.810 -11.637 -21.303  0.00  0.00    -0.036 C 
ATOM      7  H   UNL     1      34.150 -12.899 -22.109  0.00  0.00    -0.079 HD
ENDROOT
BRANCH   5   9
ATOM      8  O   UNL     1      32.515  -9.817 -18.765  0.00  0.00    -0.246 OA
ATOM      9  N   UNL     1      32.145  -9.310 -21.072  0.00  0.00    -0.263 N 
ATOM     10  N   UNL     1      31.839  -7.681 -19.507  0.00  0.00    -0.305 N 
ATOM     11  C   UNL     1      31.747  -8.128 -21.725  0.00  0.00    +0.083 A 
ATOM     12  C   UNL     1      32.209  -9.046 -19.664  0.00  0.00    +0.332 A 
ATOM     13  C   UNL     1      31.563  -7.139 -20.761  0.00  0.00    +0.076 A 
ATOM     14  C   UNL     1      31.541  -7.865 -23.064  0.00  0.00    +0.019 C 
ATOM     15  C   UNL     1      31.170  -5.857 -21.077  0.00  0.00    +0.019 C 
ATOM     16  C   UNL     1      31.141  -6.570 -23.412  0.00  0.00    +0.002 C 
ATOM     17  C   UNL     1      30.958  -5.577 -22.428  0.00  0.00    +0.002 C 
ATOM     18  H   UNL     1      31.787  -7.197 -18.651  0.00  0.00    +0.170 HD
ENDBRANCH   5   9
BRANCH   1  19
ATOM     19  C   UNL     1      33.482 -14.190 -23.517  0.00  0.00    -0.076 C 
BRANCH  19  20
ATOM     20  C   UNL     1      34.375 -15.186 -22.775  0.00  0.00    -0.015 C 
BRANCH  20  21
ATOM     21  C   UNL     1      35.081 -16.155 -23.728  0.00  0.00    +0.067 C 
BRANCH  21  23
ATOM     22  O   UNL     1      33.810 -18.098 -24.389  0.00  0.00    -0.291 OA
ATOM     23  C   UNL     1      34.599 -17.593 -23.594  0.00  0.00    +0.173 C 
BRANCH  23  25
ATOM     24  F   UNL     1      36.553 -20.689 -19.379  0.00  0.00    -0.204 F 
ATOM     25  C   UNL     1      35.119 -18.419 -22.467  0.00  0.00    +0.035 C 
ATOM     26  C   UNL     1      36.418 -18.227 -22.053  0.00  0.00    +0.005 C 
ATOM     27  C   UNL     1      34.284 -19.344 -21.884  0.00  0.00    +0.005 C 
ATOM     28  C   UNL     1      36.907 -19.001 -21.000  0.00  0.00    +0.030 C 
ATOM     29  C   UNL     1      34.772 -20.119 -20.831  0.00  0.00    +0.030 C 
ATOM     30  C   UNL     1      36.084 -19.947 -20.389  0.00  0.00    +0.140 C 
ENDBRANCH  23  25
ENDBRANCH  21  23
ENDBRANCH  20  21
ENDBRANCH  19  20
ENDBRANCH   1  19
TORSDOF 6
ENDMDL
MODEL 9
REMARK VINA RESULT:     -10.4      4.428      7.613
REMARK  Name = 3168
REMARK  6 active torsions:
REMARK  status: ('A' for Active; 'I' for Inactive)
REMARK    1  A    between atoms: N_1  and  C_19
REMARK    2  A    between atoms: C_5  and  N_9
REMARK    3  A    between atoms: C_19  and  C_20
REMARK    4  A    between atoms: C_20  and  C_21
REMARK    5  A    between atoms: C_21  and  C_23
REMARK    6  A    between atoms: C_23  and  C_25
REMARK                            x       y       z     vdW  Elec       q    Type
REMARK                         _______ _______ _______ _____ _____    ______ ____
ROOT
ATOM      1  N   UNL     1      31.571  -9.240 -20.378  0.00  0.00    +0.390 N 
ATOM      2  C   UNL     1      32.674  -8.297 -20.157  0.00  0.00    -0.071 C 
ATOM      3  C   UNL     1      32.268  -6.887 -20.613  0.00  0.00    +0.021 C 
ATOM      4  C   UNL     1      31.254  -9.349 -21.812  0.00  0.00    -0.049 C 
ATOM      5  C   UNL     1      31.588  -6.885 -21.953  0.00  0.00    +0.037 C 
ATOM      6  C   UNL     1      31.138  -8.021 -22.508  0.00  0.00    -0.036 C 
ATOM      7  H   UNL     1      30.749  -8.879 -19.895  0.00  0.00    -0.079 HD
ENDROOT
BRANCH   5   9
ATOM      8  O   UNL     1      29.692  -4.648 -21.360  0.00  0.00    -0.246 OA
ATOM      9  N   UNL     1      31.464  -5.682 -22.588  0.00  0.00    -0.263 N 
ATOM     10  N   UNL     1      30.769  -3.593 -23.176  0.00  0.00    -0.305 N 
ATOM     11  C   UNL     1      32.233  -5.245 -23.683  0.00  0.00    +0.083 A 
ATOM     12  C   UNL     1      30.530  -4.648 -22.252  0.00  0.00    +0.332 A 
ATOM     13  C   UNL     1      31.800  -3.968 -24.035  0.00  0.00    +0.076 A 
ATOM     14  C   UNL     1      33.253  -5.867 -24.373  0.00  0.00    +0.019 C 
ATOM     15  C   UNL     1      32.354  -3.257 -25.077  0.00  0.00    +0.019 C 
ATOM     16  C   UNL     1      33.833  -5.166 -25.436  0.00  0.00    +0.002 C 
ATOM     17  C   UNL     1      33.387  -3.874 -25.784  0.00  0.00    +0.002 C 
ATOM     18  H   UNL     1      30.283  -2.737 -23.205  0.00  0.00    +0.170 HD
ENDBRANCH   5   9
BRANCH   1  19
ATOM     19  C   UNL     1      31.883 -10.554 -19.817  0.00  0.00    -0.076 C 
BRANCH  19  20
ATOM     20  C   UNL     1      31.318 -11.658 -20.711  0.00  0.00    -0.015 C 
BRANCH  20  21
ATOM     21  C   UNL     1      32.285 -12.837 -20.860  0.00  0.00    +0.067 C 
BRANCH  21  23
ATOM     22  O   UNL     1      33.118 -11.859 -22.905  0.00  0.00    -0.291 OA
ATOM     23  C   UNL     1      33.006 -12.861 -22.201  0.00  0.00    +0.173 C 
BRANCH  23  25
ATOM     24  F   UNL     1      35.271 -17.661 -23.933  0.00  0.00    -0.204 F 
ATOM     25  C   UNL     1      33.612 -14.142 -22.663  0.00  0.00    +0.035 C 
ATOM     26  C   UNL     1      33.416 -14.532 -23.969  0.00  0.00    +0.005 C 
ATOM     27  C   UNL     1      34.343 -14.889 -21.767  0.00  0.00    +0.005 C 
ATOM     28  C   UNL     1      33.982 -15.731 -24.402  0.00  0.00    +0.030 C 
ATOM     29  C   UNL     1      34.909 -16.089 -22.199  0.00  0.00    +0.030 C 
ATOM     30  C   UNL     1      34.728 -16.510 -23.517  0.00  0.00    +0.140 C 
ENDBRANCH  23  25
ENDBRANCH  21  23
ENDBRANCH  20  21
ENDBRANCH  19  20
ENDBRANCH   1  19
TORSDOF 6
ENDMDL
