MODEL 1
REMARK VINA RESULT:     -12.0      0.000      0.000
REMARK  Name = 66000
REMARK  8 active torsions:
REMARK  status: ('A' for Active; 'I' for Inactive)
REMARK    1  A    between atoms: C_1  and  O_19
REMARK    2  A    between atoms: C_4  and  C_7
REMARK    3  A    between atoms: C_10  and  C_15
REMARK    4  A    between atoms: O_19  and  C_20
REMARK    5  A    between atoms: C_20  and  C_24
REMARK    6  A    between atoms: C_23  and  C_28
REMARK    7  A    between atoms: C_28  and  C_30
REMARK    8  A    between atoms: C_30  and  O_31
REMARK                            x       y       z     vdW  Elec       q    Type
REMARK                         _______ _______ _______ _____ _____    ______ ____
ROOT
ATOM      1  C   UNL     1      34.487 -22.301 -18.532  0.00  0.00    +0.139 C 
ATOM      2  C   UNL     1      33.300 -21.769 -19.020  0.00  0.00    +0.037 C 
ATOM      3  C   UNL     1      35.715 -21.814 -18.964  0.00  0.00    +0.037 C 
ATOM      4  C   UNL     1      34.569 -20.241 -20.395  0.00  0.00    +0.000 C 
ATOM      5  C   UNL     1      33.341 -20.735 -19.955  0.00  0.00    +0.003 C 
ATOM      6  C   UNL     1      35.756 -20.781 -19.900  0.00  0.00    +0.003 C 
ENDROOT
BRANCH   4   7
ATOM      7  C   UNL     1      34.612 -19.169 -21.365  0.00  0.00    +0.000 C 
ATOM      8  C   UNL     1      35.071 -17.906 -20.990  0.00  0.00    +0.000 C 
ATOM      9  C   UNL     1      34.195 -19.398 -22.677  0.00  0.00    +0.000 C 
ATOM     10  C   UNL     1      34.698 -17.102 -23.238  0.00  0.00    +0.031 C 
ATOM     11  C   UNL     1      35.114 -16.873 -21.927  0.00  0.00    +0.003 C 
ATOM     12  C   UNL     1      34.238 -18.364 -23.613  0.00  0.00    +0.003 C 
BRANCH  10  15
ATOM     13  N   UNL     1      34.710 -14.688 -23.820  0.00  0.00    -0.343 N 
ATOM     14  N   UNL     1      34.808 -16.306 -25.503  0.00  0.00    -0.285 NA
ATOM     15  C   UNL     1      34.742 -16.024 -24.213  0.00  0.00    +0.117 C 
ATOM     16  H   UNL     1      34.741 -13.975 -24.498  0.00  0.00    +0.144 HD
ATOM     17  H   UNL     1      34.658 -14.458 -22.865  0.00  0.00    +0.144 HD
ATOM     18  H   UNL     1      34.838 -15.579 -26.165  0.00  0.00    +0.188 HD
ENDBRANCH  10  15
ENDBRANCH   4   7
BRANCH   1  19
ATOM     19  O   UNL     1      34.447 -23.319 -17.612  0.00  0.00    -0.474 OA
BRANCH  19  20
ATOM     20  C   UNL     1      33.770 -23.058 -16.395  0.00  0.00    +0.225 C 
BRANCH  20  24
ATOM     21  O   UNL     1      34.219 -24.608 -12.312  0.00  0.00    -0.275 OA
ATOM     22  N   UNL     1      34.235 -22.979 -13.992  0.00  0.00    -0.302 N 
ATOM     23  C   UNL     1      35.426 -24.949 -14.410  0.00  0.00    +0.089 C 
ATOM     24  C   UNL     1      34.805 -22.805 -15.306  0.00  0.00    +0.116 C 
ATOM     25  C   UNL     1      35.939 -23.824 -15.316  0.00  0.00    +0.033 C 
ATOM     26  C   UNL     1      34.571 -24.197 -13.407  0.00  0.00    +0.223 C 
ATOM     27  H   UNL     1      33.667 -22.305 -13.554  0.00  0.00    +0.149 HD
BRANCH  23  28
ATOM     28  C   UNL     1      36.540 -25.744 -13.755  0.00  0.00    +0.118 C 
BRANCH  28  30
ATOM     29  O   UNL     1      36.528 -27.271 -15.655  0.00  0.00    -0.250 OA
ATOM     30  C   UNL     1      37.083 -26.815 -14.668  0.00  0.00    +0.314 C 
BRANCH  30  31
ATOM     31  O   UNL     1      38.307 -27.218 -14.237  0.00  0.00    -0.480 OA
ATOM     32  H   UNL     1      39.002 -26.595 -14.150  0.00  0.00    +0.295 HD
ENDBRANCH  30  31
ENDBRANCH  28  30
ENDBRANCH  23  28
ENDBRANCH  20  24
ENDBRANCH  19  20
ENDBRANCH   1  19
TORSDOF 8
ENDMDL
MODEL 2
REMARK VINA RESULT:     -11.6      1.507      2.294
REMARK  Name = 66000
REMARK  8 active torsions:
REMARK  status: ('A' for Active; 'I' for Inactive)
REMARK    1  A    between atoms: C_1  and  O_19
REMARK    2  A    between atoms: C_4  and  C_7
REMARK    3  A    between atoms: C_10  and  C_15
REMARK    4  A    between atoms: O_19  and  C_20
REMARK    5  A    between atoms: C_20  and  C_24
REMARK    6  A    between atoms: C_23  and  C_28
REMARK    7  A    between atoms: C_28  and  C_30
REMARK    8  A    between atoms: C_30  and  O_31
REMARK                            x       y       z     vdW  Elec       q    Type
REMARK                         _______ _______ _______ _____ _____    ______ ____
ROOT
ATOM      1  C   UNL     1      35.286 -22.266 -17.832  0.00  0.00    +0.139 C 
ATOM      2  C   UNL     1      34.045 -22.039 -18.414  0.00  0.00    +0.037 C 
ATOM      3  C   UNL     1      36.423 -21.624 -18.308  0.00  0.00    +0.037 C 
ATOM      4  C   UNL     1      35.075 -20.508 -19.973  0.00  0.00    +0.000 C 
ATOM      5  C   UNL     1      33.939 -21.157 -19.488  0.00  0.00    +0.003 C 
ATOM      6  C   UNL     1      36.317 -20.743 -19.383  0.00  0.00    +0.003 C 
ENDROOT
BRANCH   4   7
ATOM      7  C   UNL     1      34.966 -19.593 -21.088  0.00  0.00    +0.000 C 
ATOM      8  C   UNL     1      34.423 -20.029 -22.297  0.00  0.00    +0.000 C 
ATOM      9  C   UNL     1      35.401 -18.275 -20.955  0.00  0.00    +0.000 C 
ATOM     10  C   UNL     1      34.752 -17.828 -23.238  0.00  0.00    +0.031 C 
ATOM     11  C   UNL     1      34.317 -19.147 -23.373  0.00  0.00    +0.003 C 
ATOM     12  C   UNL     1      35.295 -17.392 -22.030  0.00  0.00    +0.003 C 
BRANCH  10  15
ATOM     13  N   UNL     1      35.360 -15.715 -24.393  0.00  0.00    -0.343 N 
ATOM     14  N   UNL     1      33.843 -17.199 -25.372  0.00  0.00    -0.285 NA
ATOM     15  C   UNL     1      34.642 -16.909 -24.360  0.00  0.00    +0.117 C 
ATOM     16  H   UNL     1      35.269 -15.107 -25.162  0.00  0.00    +0.144 HD
ATOM     17  H   UNL     1      35.957 -15.480 -23.648  0.00  0.00    +0.144 HD
ATOM     18  H   UNL     1      33.766 -16.578 -26.132  0.00  0.00    +0.188 HD
ENDBRANCH  10  15
ENDBRANCH   4   7
BRANCH   1  19
ATOM     19  O   UNL     1      35.391 -23.136 -16.775  0.00  0.00    -0.474 OA
BRANCH  19  20
ATOM     20  C   UNL     1      36.161 -22.709 -15.665  0.00  0.00    +0.225 C 
BRANCH  20  24
ATOM     21  O   UNL     1      36.632 -27.066 -15.415  0.00  0.00    -0.275 OA
ATOM     22  N   UNL     1      35.597 -25.004 -15.024  0.00  0.00    -0.302 N 
ATOM     23  C   UNL     1      37.878 -25.161 -14.526  0.00  0.00    +0.089 C 
ATOM     24  C   UNL     1      35.966 -23.701 -14.526  0.00  0.00    +0.116 C 
ATOM     25  C   UNL     1      37.254 -23.988 -13.761  0.00  0.00    +0.033 C 
ATOM     26  C   UNL     1      36.659 -25.905 -15.035  0.00  0.00    +0.223 C 
ATOM     27  H   UNL     1      34.689 -25.232 -15.326  0.00  0.00    +0.149 HD
BRANCH  23  28
ATOM     28  C   UNL     1      38.779 -26.024 -13.663  0.00  0.00    +0.118 C 
BRANCH  28  30
ATOM     29  O   UNL     1      41.146 -26.601 -13.694  0.00  0.00    -0.250 OA
ATOM     30  C   UNL     1      40.148 -26.198 -14.270  0.00  0.00    +0.314 C 
BRANCH  30  31
ATOM     31  O   UNL     1      40.125 -25.841 -15.580  0.00  0.00    -0.480 OA
ATOM     32  H   UNL     1      39.983 -26.489 -16.241  0.00  0.00    +0.295 HD
ENDBRANCH  30  31
ENDBRANCH  28  30
ENDBRANCH  23  28
ENDBRANCH  20  24
ENDBRANCH  19  20
ENDBRANCH   1  19
TORSDOF 8
ENDMDL
MODEL 3
REMARK VINA RESULT:     -11.5      1.512      2.375
REMARK  Name = 66000
REMARK  8 active torsions:
REMARK  status: ('A' for Active; 'I' for Inactive)
REMARK    1  A    between atoms: C_1  and  O_19
REMARK    2  A    between atoms: C_4  and  C_7
REMARK    3  A    between atoms: C_10  and  C_15
REMARK    4  A    between atoms: O_19  and  C_20
REMARK    5  A    between atoms: C_20  and  C_24
REMARK    6  A    between atoms: C_23  and  C_28
REMARK    7  A    between atoms: C_28  and  C_30
REMARK    8  A    between atoms: C_30  and  O_31
REMARK                            x       y       z     vdW  Elec       q    Type
REMARK                         _______ _______ _______ _____ _____    ______ ____
ROOT
ATOM      1  C   UNL     1      34.683 -22.352 -18.111  0.00  0.00    +0.139 C 
ATOM      2  C   UNL     1      33.486 -21.961 -18.700  0.00  0.00    +0.037 C 
ATOM      3  C   UNL     1      35.891 -21.806 -18.525  0.00  0.00    +0.037 C 
ATOM      4  C   UNL     1      34.707 -20.456 -20.142  0.00  0.00    +0.000 C 
ATOM      5  C   UNL     1      33.499 -21.009 -19.719  0.00  0.00    +0.003 C 
ATOM      6  C   UNL     1      35.904 -20.855 -19.545  0.00  0.00    +0.003 C 
ENDROOT
BRANCH   4   7
ATOM      7  C   UNL     1      34.721 -19.470 -21.200  0.00  0.00    +0.000 C 
ATOM      8  C   UNL     1      34.162 -19.771 -22.442  0.00  0.00    +0.000 C 
ATOM      9  C   UNL     1      35.292 -18.216 -20.979  0.00  0.00    +0.000 C 
ATOM     10  C   UNL     1      34.745 -17.567 -23.240  0.00  0.00    +0.031 C 
ATOM     11  C   UNL     1      34.174 -18.820 -23.462  0.00  0.00    +0.003 C 
ATOM     12  C   UNL     1      35.304 -17.265 -21.999  0.00  0.00    +0.003 C 
BRANCH  10  15
ATOM     13  N   UNL     1      35.282 -15.300 -24.102  0.00  0.00    -0.343 N 
ATOM     14  N   UNL     1      34.260 -16.877 -25.491  0.00  0.00    -0.285 NA
ATOM     15  C   UNL     1      34.758 -16.575 -24.304  0.00  0.00    +0.117 C 
ATOM     16  H   UNL     1      35.280 -14.645 -24.836  0.00  0.00    +0.144 HD
ATOM     17  H   UNL     1      35.654 -15.055 -23.225  0.00  0.00    +0.144 HD
ATOM     18  H   UNL     1      34.267 -16.208 -26.213  0.00  0.00    +0.188 HD
ENDBRANCH  10  15
ENDBRANCH   4   7
BRANCH   1  19
ATOM     19  O   UNL     1      34.670 -23.289 -17.107  0.00  0.00    -0.474 OA
BRANCH  19  20
ATOM     20  C   UNL     1      35.160 -22.882 -15.842  0.00  0.00    +0.225 C 
BRANCH  20  24
ATOM     21  O   UNL     1      38.620 -24.376 -13.591  0.00  0.00    -0.275 OA
ATOM     22  N   UNL     1      36.751 -24.537 -14.990  0.00  0.00    -0.302 N 
ATOM     23  C   UNL     1      36.469 -23.400 -12.965  0.00  0.00    +0.089 C 
ATOM     24  C   UNL     1      35.370 -24.120 -14.980  0.00  0.00    +0.116 C 
ATOM     25  C   UNL     1      35.109 -23.864 -13.499  0.00  0.00    +0.033 C 
ATOM     26  C   UNL     1      37.443 -24.164 -13.840  0.00  0.00    +0.223 C 
ATOM     27  H   UNL     1      37.162 -25.033 -15.734  0.00  0.00    +0.149 HD
BRANCH  23  28
ATOM     28  C   UNL     1      36.658 -23.682 -11.486  0.00  0.00    +0.118 C 
BRANCH  28  30
ATOM     29  O   UNL     1      34.934 -25.126 -10.548  0.00  0.00    -0.250 OA
ATOM     30  C   UNL     1      36.027 -24.988 -11.074  0.00  0.00    +0.314 C 
BRANCH  30  31
ATOM     31  O   UNL     1      36.856 -26.021 -11.374  0.00  0.00    -0.480 OA
ATOM     32  H   UNL     1      37.776 -25.946 -11.211  0.00  0.00    +0.295 HD
ENDBRANCH  30  31
ENDBRANCH  28  30
ENDBRANCH  23  28
ENDBRANCH  20  24
ENDBRANCH  19  20
ENDBRANCH   1  19
TORSDOF 8
ENDMDL
MODEL 4
REMARK VINA RESULT:     -11.3      2.243      3.481
REMARK  Name = 66000
REMARK  8 active torsions:
REMARK  status: ('A' for Active; 'I' for Inactive)
REMARK    1  A    between atoms: C_1  and  O_19
REMARK    2  A    between atoms: C_4  and  C_7
REMARK    3  A    between atoms: C_10  and  C_15
REMARK    4  A    between atoms: O_19  and  C_20
REMARK    5  A    between atoms: C_20  and  C_24
REMARK    6  A    between atoms: C_23  and  C_28
REMARK    7  A    between atoms: C_28  and  C_30
REMARK    8  A    between atoms: C_30  and  O_31
REMARK                            x       y       z     vdW  Elec       q    Type
REMARK                         _______ _______ _______ _____ _____    ______ ____
ROOT
ATOM      1  C   UNL     1      34.647 -22.229 -18.466  0.00  0.00    +0.139 C 
ATOM      2  C   UNL     1      33.443 -21.745 -18.965  0.00  0.00    +0.037 C 
ATOM      3  C   UNL     1      35.858 -21.713 -18.907  0.00  0.00    +0.037 C 
ATOM      4  C   UNL     1      34.664 -20.208 -20.372  0.00  0.00    +0.000 C 
ATOM      5  C   UNL     1      33.452 -20.731 -19.921  0.00  0.00    +0.003 C 
ATOM      6  C   UNL     1      35.867 -20.699 -19.865  0.00  0.00    +0.003 C 
ENDROOT
BRANCH   4   7
ATOM      7  C   UNL     1      34.673 -19.156 -21.365  0.00  0.00    +0.000 C 
ATOM      8  C   UNL     1      35.093 -17.872 -21.017  0.00  0.00    +0.000 C 
ATOM      9  C   UNL     1      34.264 -19.425 -22.671  0.00  0.00    +0.000 C 
ATOM     10  C   UNL     1      34.694 -17.128 -23.280  0.00  0.00    +0.031 C 
ATOM     11  C   UNL     1      35.103 -16.857 -21.975  0.00  0.00    +0.003 C 
ATOM     12  C   UNL     1      34.274 -18.411 -23.629  0.00  0.00    +0.003 C 
BRANCH  10  15
ATOM     13  N   UNL     1      34.713 -14.725 -23.912  0.00  0.00    -0.343 N 
ATOM     14  N   UNL     1      34.702 -16.378 -25.564  0.00  0.00    -0.285 NA
ATOM     15  C   UNL     1      34.705 -16.070 -24.279  0.00  0.00    +0.117 C 
ATOM     16  H   UNL     1      34.719 -14.026 -24.605  0.00  0.00    +0.144 HD
ATOM     17  H   UNL     1      34.712 -14.476 -22.960  0.00  0.00    +0.144 HD
ATOM     18  H   UNL     1      34.708 -15.664 -26.242  0.00  0.00    +0.188 HD
ENDBRANCH  10  15
ENDBRANCH   4   7
BRANCH   1  19
ATOM     19  O   UNL     1      34.638 -23.228 -17.524  0.00  0.00    -0.474 OA
BRANCH  19  20
ATOM     20  C   UNL     1      34.175 -22.887 -16.229  0.00  0.00    +0.225 C 
BRANCH  20  24
ATOM     21  O   UNL     1      31.978 -23.459 -12.472  0.00  0.00    -0.275 OA
ATOM     22  N   UNL     1      33.260 -24.113 -14.318  0.00  0.00    -0.302 N 
ATOM     23  C   UNL     1      31.334 -22.857 -14.751  0.00  0.00    +0.089 C 
ATOM     24  C   UNL     1      33.216 -23.970 -15.753  0.00  0.00    +0.116 C 
ATOM     25  C   UNL     1      31.754 -23.624 -16.010  0.00  0.00    +0.033 C 
ATOM     26  C   UNL     1      32.185 -23.503 -13.675  0.00  0.00    +0.223 C 
ATOM     27  H   UNL     1      33.975 -24.592 -13.842  0.00  0.00    +0.149 HD
BRANCH  23  28
ATOM     28  C   UNL     1      29.847 -22.950 -14.463  0.00  0.00    +0.118 C 
BRANCH  28  30
ATOM     29  O   UNL     1      28.696 -24.688 -15.725  0.00  0.00    -0.250 OA
ATOM     30  C   UNL     1      29.305 -24.332 -14.728  0.00  0.00    +0.314 C 
BRANCH  30  31
ATOM     31  O   UNL     1      29.590 -25.153 -13.684  0.00  0.00    -0.480 OA
ATOM     32  H   UNL     1      29.001 -25.845 -13.458  0.00  0.00    +0.295 HD
ENDBRANCH  30  31
ENDBRANCH  28  30
ENDBRANCH  23  28
ENDBRANCH  20  24
ENDBRANCH  19  20
ENDBRANCH   1  19
TORSDOF 8
ENDMDL
MODEL 5
REMARK VINA RESULT:     -11.2      1.560      2.387
REMARK  Name = 66000
REMARK  8 active torsions:
REMARK  status: ('A' for Active; 'I' for Inactive)
REMARK    1  A    between atoms: C_1  and  O_19
REMARK    2  A    between atoms: C_4  and  C_7
REMARK    3  A    between atoms: C_10  and  C_15
REMARK    4  A    between atoms: O_19  and  C_20
REMARK    5  A    between atoms: C_20  and  C_24
REMARK    6  A    between atoms: C_23  and  C_28
REMARK    7  A    between atoms: C_28  and  C_30
REMARK    8  A    between atoms: C_30  and  O_31
REMARK                            x       y       z     vdW  Elec       q    Type
REMARK                         _______ _______ _______ _____ _____    ______ ____
ROOT
ATOM      1  C   UNL     1      34.542 -22.327 -18.359  0.00  0.00    +0.139 C 
ATOM      2  C   UNL     1      35.764 -21.821 -18.787  0.00  0.00    +0.037 C 
ATOM      3  C   UNL     1      33.350 -21.844 -18.882  0.00  0.00    +0.037 C 
ATOM      4  C   UNL     1      34.601 -20.323 -20.282  0.00  0.00    +0.000 C 
ATOM      5  C   UNL     1      35.793 -20.815 -19.752  0.00  0.00    +0.003 C 
ATOM      6  C   UNL     1      33.379 -20.837 -19.847  0.00  0.00    +0.003 C 
ENDROOT
BRANCH   4   7
ATOM      7  C   UNL     1      34.630 -19.279 -21.283  0.00  0.00    +0.000 C 
ATOM      8  C   UNL     1      35.139 -18.020 -20.963  0.00  0.00    +0.000 C 
ATOM      9  C   UNL     1      34.151 -19.531 -22.569  0.00  0.00    +0.000 C 
ATOM     10  C   UNL     1      34.690 -17.266 -23.214  0.00  0.00    +0.031 C 
ATOM     11  C   UNL     1      35.169 -17.013 -21.929  0.00  0.00    +0.003 C 
ATOM     12  C   UNL     1      34.180 -18.524 -23.534  0.00  0.00    +0.003 C 
BRANCH  10  15
ATOM     13  N   UNL     1      34.709 -14.869 -23.864  0.00  0.00    -0.343 N 
ATOM     14  N   UNL     1      34.755 -16.534 -25.502  0.00  0.00    -0.285 NA
ATOM     15  C   UNL     1      34.720 -16.216 -24.220  0.00  0.00    +0.117 C 
ATOM     16  H   UNL     1      34.729 -14.175 -24.561  0.00  0.00    +0.144 HD
ATOM     17  H   UNL     1      34.680 -14.612 -22.914  0.00  0.00    +0.144 HD
ATOM     18  H   UNL     1      34.775 -15.825 -26.185  0.00  0.00    +0.188 HD
ENDBRANCH  10  15
ENDBRANCH   4   7
BRANCH   1  19
ATOM     19  O   UNL     1      34.514 -23.317 -17.408  0.00  0.00    -0.474 OA
BRANCH  19  20
ATOM     20  C   UNL     1      34.631 -22.913 -16.056  0.00  0.00    +0.225 C 
BRANCH  20  24
ATOM     21  O   UNL     1      37.326 -25.774 -14.099  0.00  0.00    -0.275 OA
ATOM     22  N   UNL     1      35.429 -25.099 -15.294  0.00  0.00    -0.302 N 
ATOM     23  C   UNL     1      35.896 -23.957 -13.305  0.00  0.00    +0.089 C 
ATOM     24  C   UNL     1      34.376 -24.120 -15.162  0.00  0.00    +0.116 C 
ATOM     25  C   UNL     1      34.420 -23.780 -13.677  0.00  0.00    +0.033 C 
ATOM     26  C   UNL     1      36.337 -25.069 -14.238  0.00  0.00    +0.223 C 
ATOM     27  H   UNL     1      35.498 -25.723 -16.051  0.00  0.00    +0.149 HD
BRANCH  23  28
ATOM     28  C   UNL     1      36.107 -24.298 -11.842  0.00  0.00    +0.118 C 
BRANCH  28  30
ATOM     29  O   UNL     1      37.269 -22.782 -10.327  0.00  0.00    -0.250 OA
ATOM     30  C   UNL     1      37.293 -23.574 -11.257  0.00  0.00    +0.314 C 
BRANCH  30  31
ATOM     31  O   UNL     1      38.427 -23.928 -11.916  0.00  0.00    -0.480 OA
ATOM     32  H   UNL     1      39.175 -24.223 -11.436  0.00  0.00    +0.295 HD
ENDBRANCH  30  31
ENDBRANCH  28  30
ENDBRANCH  23  28
ENDBRANCH  20  24
ENDBRANCH  19  20
ENDBRANCH   1  19
TORSDOF 8
ENDMDL
MODEL 6
REMARK VINA RESULT:     -10.8      4.243     10.908
REMARK  Name = 66000
REMARK  8 active torsions:
REMARK  status: ('A' for Active; 'I' for Inactive)
REMARK    1  A    between atoms: C_1  and  O_19
REMARK    2  A    between atoms: C_4  and  C_7
REMARK    3  A    between atoms: C_10  and  C_15
REMARK    4  A    between atoms: O_19  and  C_20
REMARK    5  A    between atoms: C_20  and  C_24
REMARK    6  A    between atoms: C_23  and  C_28
REMARK    7  A    between atoms: C_28  and  C_30
REMARK    8  A    between atoms: C_30  and  O_31
REMARK                            x       y       z     vdW  Elec       q    Type
REMARK                         _______ _______ _______ _____ _____    ______ ____
ROOT
ATOM      1  C   UNL     1      34.769 -20.753 -20.338  0.00  0.00    +0.139 C 
ATOM      2  C   UNL     1      35.649 -21.436 -19.507  0.00  0.00    +0.037 C 
ATOM      3  C   UNL     1      33.406 -20.733 -20.069  0.00  0.00    +0.037 C 
ATOM      4  C   UNL     1      33.791 -22.097 -18.112  0.00  0.00    +0.000 C 
ATOM      5  C   UNL     1      35.158 -22.111 -18.390  0.00  0.00    +0.003 C 
ATOM      6  C   UNL     1      32.915 -21.409 -18.952  0.00  0.00    +0.003 C 
ENDROOT
BRANCH   4   7
ATOM      7  C   UNL     1      33.281 -22.798 -16.954  0.00  0.00    +0.000 C 
ATOM      8  C   UNL     1      31.905 -22.949 -16.780  0.00  0.00    +0.000 C 
ATOM      9  C   UNL     1      34.165 -23.323 -16.010  0.00  0.00    +0.000 C 
ATOM     10  C   UNL     1      32.297 -24.151 -14.721  0.00  0.00    +0.031 C 
ATOM     11  C   UNL     1      31.413 -23.626 -15.664  0.00  0.00    +0.003 C 
ATOM     12  C   UNL     1      33.672 -23.999 -14.894  0.00  0.00    +0.003 C 
BRANCH  10  15
ATOM     13  N   UNL     1      30.448 -25.244 -13.474  0.00  0.00    -0.343 N 
ATOM     14  N   UNL     1      32.590 -25.135 -12.548  0.00  0.00    -0.285 NA
ATOM     15  C   UNL     1      31.784 -24.855 -13.557  0.00  0.00    +0.117 C 
ATOM     16  H   UNL     1      30.122 -25.719 -12.676  0.00  0.00    +0.144 HD
ATOM     17  H   UNL     1      29.831 -25.042 -14.213  0.00  0.00    +0.144 HD
ATOM     18  H   UNL     1      32.246 -25.611 -11.759  0.00  0.00    +0.188 HD
ENDBRANCH  10  15
ENDBRANCH   4   7
BRANCH   1  19
ATOM     19  O   UNL     1      35.253 -20.089 -21.439  0.00  0.00    -0.474 OA
BRANCH  19  20
ATOM     20  C   UNL     1      34.559 -18.922 -21.842  0.00  0.00    +0.225 C 
BRANCH  20  24
ATOM     21  O   UNL     1      34.556 -16.339 -25.392  0.00  0.00    -0.275 OA
ATOM     22  N   UNL     1      35.476 -17.809 -23.820  0.00  0.00    -0.302 N 
ATOM     23  C   UNL     1      34.340 -15.940 -22.990  0.00  0.00    +0.089 C 
ATOM     24  C   UNL     1      35.567 -17.918 -22.384  0.00  0.00    +0.116 C 
ATOM     25  C   UNL     1      35.292 -16.491 -21.923  0.00  0.00    +0.033 C 
ATOM     26  C   UNL     1      34.790 -16.673 -24.240  0.00  0.00    +0.223 C 
ATOM     27  H   UNL     1      35.861 -18.470 -24.440  0.00  0.00    +0.149 HD
BRANCH  23  28
ATOM     28  C   UNL     1      34.411 -14.432 -23.133  0.00  0.00    +0.118 C 
BRANCH  28  30
ATOM     29  O   UNL     1      32.390 -13.199 -22.554  0.00  0.00    -0.250 OA
ATOM     30  C   UNL     1      33.053 -13.820 -23.370  0.00  0.00    +0.314 C 
BRANCH  30  31
ATOM     31  O   UNL     1      32.652 -14.055 -24.646  0.00  0.00    -0.480 OA
ATOM     32  H   UNL     1      31.934 -13.574 -25.008  0.00  0.00    +0.295 HD
ENDBRANCH  30  31
ENDBRANCH  28  30
ENDBRANCH  23  28
ENDBRANCH  20  24
ENDBRANCH  19  20
ENDBRANCH   1  19
TORSDOF 8
ENDMDL
MODEL 7
REMARK VINA RESULT:     -10.7      1.921      3.580
REMARK  Name = 66000
REMARK  8 active torsions:
REMARK  status: ('A' for Active; 'I' for Inactive)
REMARK    1  A    between atoms: C_1  and  O_19
REMARK    2  A    between atoms: C_4  and  C_7
REMARK    3  A    between atoms: C_10  and  C_15
REMARK    4  A    between atoms: O_19  and  C_20
REMARK    5  A    between atoms: C_20  and  C_24
REMARK    6  A    between atoms: C_23  and  C_28
REMARK    7  A    between atoms: C_28  and  C_30
REMARK    8  A    between atoms: C_30  and  O_31
REMARK                            x       y       z     vdW  Elec       q    Type
REMARK                         _______ _______ _______ _____ _____    ______ ____
ROOT
ATOM      1  C   UNL     1      34.502 -23.623 -15.609  0.00  0.00    +0.139 C 
ATOM      2  C   UNL     1      33.385 -23.507 -16.428  0.00  0.00    +0.037 C 
ATOM      3  C   UNL     1      35.689 -22.976 -15.927  0.00  0.00    +0.037 C 
ATOM      4  C   UNL     1      34.646 -22.079 -17.913  0.00  0.00    +0.000 C 
ATOM      5  C   UNL     1      33.458 -22.732 -17.585  0.00  0.00    +0.003 C 
ATOM      6  C   UNL     1      35.762 -22.201 -17.085  0.00  0.00    +0.003 C 
ENDROOT
BRANCH   4   7
ATOM      7  C   UNL     1      34.722 -21.275 -19.114  0.00  0.00    +0.000 C 
ATOM      8  C   UNL     1      33.553 -20.892 -19.772  0.00  0.00    +0.000 C 
ATOM      9  C   UNL     1      35.964 -20.881 -19.613  0.00  0.00    +0.000 C 
ATOM     10  C   UNL     1      34.868 -19.723 -21.427  0.00  0.00    +0.031 C 
ATOM     11  C   UNL     1      33.626 -20.116 -20.929  0.00  0.00    +0.003 C 
ATOM     12  C   UNL     1      36.037 -20.105 -20.770  0.00  0.00    +0.003 C 
BRANCH  10  15
ATOM     13  N   UNL     1      33.901 -18.889 -23.558  0.00  0.00    -0.343 N 
ATOM     14  N   UNL     1      36.021 -18.186 -22.872  0.00  0.00    -0.285 NA
ATOM     15  C   UNL     1      34.944 -18.914 -22.634  0.00  0.00    +0.117 C 
ATOM     16  H   UNL     1      33.974 -18.335 -24.368  0.00  0.00    +0.144 HD
ATOM     17  H   UNL     1      33.092 -19.427 -23.401  0.00  0.00    +0.144 HD
ATOM     18  H   UNL     1      36.075 -17.638 -23.688  0.00  0.00    +0.188 HD
ENDBRANCH  10  15
ENDBRANCH   4   7
BRANCH   1  19
ATOM     19  O   UNL     1      34.430 -24.387 -14.470  0.00  0.00    -0.474 OA
BRANCH  19  20
ATOM     20  C   UNL     1      35.460 -24.212 -13.513  0.00  0.00    +0.225 C 
BRANCH  20  24
ATOM     21  O   UNL     1      36.796 -27.576 -15.997  0.00  0.00    -0.275 OA
ATOM     22  N   UNL     1      35.726 -26.551 -14.185  0.00  0.00    -0.302 N 
ATOM     23  C   UNL     1      37.938 -25.918 -14.611  0.00  0.00    +0.089 C 
ATOM     24  C   UNL     1      36.043 -25.577 -13.169  0.00  0.00    +0.116 C 
ATOM     25  C   UNL     1      37.568 -25.587 -13.161  0.00  0.00    +0.033 C 
ATOM     26  C   UNL     1      36.790 -26.809 -15.046  0.00  0.00    +0.223 C 
ATOM     27  H   UNL     1      34.848 -26.990 -14.261  0.00  0.00    +0.149 HD
BRANCH  23  28
ATOM     28  C   UNL     1      39.290 -26.593 -14.743  0.00  0.00    +0.118 C 
BRANCH  28  30
ATOM     29  O   UNL     1      40.566 -24.601 -14.155  0.00  0.00    -0.250 OA
ATOM     30  C   UNL     1      40.384 -25.806 -14.067  0.00  0.00    +0.314 C 
BRANCH  30  31
ATOM     31  O   UNL     1      41.164 -26.634 -13.325  0.00  0.00    -0.480 OA
ATOM     32  H   UNL     1      40.827 -27.016 -12.539  0.00  0.00    +0.295 HD
ENDBRANCH  30  31
ENDBRANCH  28  30
ENDBRANCH  23  28
ENDBRANCH  20  24
ENDBRANCH  19  20
ENDBRANCH   1  19
TORSDOF 8
ENDMDL
MODEL 8
REMARK VINA RESULT:     -10.4      3.930     10.903
REMARK  Name = 66000
REMARK  8 active torsions:
REMARK  status: ('A' for Active; 'I' for Inactive)
REMARK    1  A    between atoms: C_1  and  O_19
REMARK    2  A    between atoms: C_4  and  C_7
REMARK    3  A    between atoms: C_10  and  C_15
REMARK    4  A    between atoms: O_19  and  C_20
REMARK    5  A    between atoms: C_20  and  C_24
REMARK    6  A    between atoms: C_23  and  C_28
REMARK    7  A    between atoms: C_28  and  C_30
REMARK    8  A    between atoms: C_30  and  O_31
REMARK                            x       y       z     vdW  Elec       q    Type
REMARK                         _______ _______ _______ _____ _____    ______ ____
ROOT
ATOM      1  C   UNL     1      34.643 -21.196 -19.694  0.00  0.00    +0.139 C 
ATOM      2  C   UNL     1      35.922 -21.243 -19.151  0.00  0.00    +0.037 C 
ATOM      3  C   UNL     1      33.568 -21.774 -19.033  0.00  0.00    +0.037 C 
ATOM      4  C   UNL     1      35.053 -22.462 -17.256  0.00  0.00    +0.000 C 
ATOM      5  C   UNL     1      36.127 -21.878 -17.927  0.00  0.00    +0.003 C 
ATOM      6  C   UNL     1      33.773 -22.410 -17.809  0.00  0.00    +0.003 C 
ENDROOT
BRANCH   4   7
ATOM      7  C   UNL     1      35.266 -23.122 -15.986  0.00  0.00    +0.000 C 
ATOM      8  C   UNL     1      34.246 -23.886 -15.418  0.00  0.00    +0.000 C 
ATOM      9  C   UNL     1      36.491 -22.997 -15.331  0.00  0.00    +0.000 C 
ATOM     10  C   UNL     1      35.676 -24.398 -13.540  0.00  0.00    +0.031 C 
ATOM     11  C   UNL     1      34.451 -24.524 -14.194  0.00  0.00    +0.003 C 
ATOM     12  C   UNL     1      36.696 -23.635 -14.107  0.00  0.00    +0.003 C 
BRANCH  10  15
ATOM     13  N   UNL     1      37.076 -25.740 -11.987  0.00  0.00    -0.343 N 
ATOM     14  N   UNL     1      34.944 -25.035 -11.341  0.00  0.00    -0.285 NA
ATOM     15  C   UNL     1      35.890 -25.063 -12.263  0.00  0.00    +0.117 C 
ATOM     16  H   UNL     1      37.198 -26.183 -11.117  0.00  0.00    +0.144 HD
ATOM     17  H   UNL     1      37.791 -25.775 -12.662  0.00  0.00    +0.144 HD
ATOM     18  H   UNL     1      35.086 -25.484 -10.476  0.00  0.00    +0.188 HD
ENDBRANCH  10  15
ENDBRANCH   4   7
BRANCH   1  19
ATOM     19  O   UNL     1      34.442 -20.570 -20.900  0.00  0.00    -0.474 OA
BRANCH  19  20
ATOM     20  C   UNL     1      34.880 -19.227 -21.009  0.00  0.00    +0.225 C 
BRANCH  20  24
ATOM     21  O   UNL     1      33.134 -18.343 -24.938  0.00  0.00    -0.275 OA
ATOM     22  N   UNL     1      34.577 -19.405 -23.432  0.00  0.00    -0.302 N 
ATOM     23  C   UNL     1      34.474 -17.069 -23.340  0.00  0.00    +0.089 C 
ATOM     24  C   UNL     1      35.497 -19.026 -22.386  0.00  0.00    +0.116 C 
ATOM     25  C   UNL     1      35.778 -17.562 -22.704  0.00  0.00    +0.033 C 
ATOM     26  C   UNL     1      33.961 -18.313 -24.039  0.00  0.00    +0.223 C 
ATOM     27  H   UNL     1      34.403 -20.338 -23.690  0.00  0.00    +0.149 HD
BRANCH  23  28
ATOM     28  C   UNL     1      34.674 -15.901 -24.287  0.00  0.00    +0.118 C 
BRANCH  28  30
ATOM     29  O   UNL     1      33.112 -14.160 -23.602  0.00  0.00    -0.250 OA
ATOM     30  C   UNL     1      33.444 -15.035 -24.387  0.00  0.00    +0.314 C 
BRANCH  30  31
ATOM     31  O   UNL     1      32.733 -15.363 -25.497  0.00  0.00    -0.480 OA
ATOM     32  H   UNL     1      31.872 -15.722 -25.412  0.00  0.00    +0.295 HD
ENDBRANCH  30  31
ENDBRANCH  28  30
ENDBRANCH  23  28
ENDBRANCH  20  24
ENDBRANCH  19  20
ENDBRANCH   1  19
TORSDOF 8
ENDMDL
MODEL 9
REMARK VINA RESULT:     -10.4      1.839      2.474
REMARK  Name = 66000
REMARK  8 active torsions:
REMARK  status: ('A' for Active; 'I' for Inactive)
REMARK    1  A    between atoms: C_1  and  O_19
REMARK    2  A    between atoms: C_4  and  C_7
REMARK    3  A    between atoms: C_10  and  C_15
REMARK    4  A    between atoms: O_19  and  C_20
REMARK    5  A    between atoms: C_20  and  C_24
REMARK    6  A    between atoms: C_23  and  C_28
REMARK    7  A    between atoms: C_28  and  C_30
REMARK    8  A    between atoms: C_30  and  O_31
REMARK                            x       y       z     vdW  Elec       q    Type
REMARK                         _______ _______ _______ _____ _____    ______ ____
ROOT
ATOM      1  C   UNL     1      35.158 -21.980 -18.496  0.00  0.00    +0.139 C 
ATOM      2  C   UNL     1      33.908 -21.621 -18.986  0.00  0.00    +0.037 C 
ATOM      3  C   UNL     1      36.311 -21.369 -18.974  0.00  0.00    +0.037 C 
ATOM      4  C   UNL     1      34.961 -20.019 -20.455  0.00  0.00    +0.000 C 
ATOM      5  C   UNL     1      33.810 -20.637 -19.969  0.00  0.00    +0.003 C 
ATOM      6  C   UNL     1      36.212 -20.385 -19.958  0.00  0.00    +0.003 C 
ENDROOT
BRANCH   4   7
ATOM      7  C   UNL     1      34.860 -18.998 -21.475  0.00  0.00    +0.000 C 
ATOM      8  C   UNL     1      35.227 -17.684 -21.186  0.00  0.00    +0.000 C 
ATOM      9  C   UNL     1      34.395 -19.329 -22.749  0.00  0.00    +0.000 C 
ATOM     10  C   UNL     1      34.666 -17.031 -23.444  0.00  0.00    +0.031 C 
ATOM     11  C   UNL     1      35.130 -16.700 -22.171  0.00  0.00    +0.003 C 
ATOM     12  C   UNL     1      34.298 -18.345 -23.733  0.00  0.00    +0.003 C 
BRANCH  10  15
ATOM     13  N   UNL     1      34.577 -14.650 -24.145  0.00  0.00    -0.343 N 
ATOM     14  N   UNL     1      34.452 -16.353 -25.740  0.00  0.00    -0.285 NA
ATOM     15  C   UNL     1      34.564 -16.005 -24.469  0.00  0.00    +0.117 C 
ATOM     16  H   UNL     1      34.507 -13.972 -24.855  0.00  0.00    +0.144 HD
ATOM     17  H   UNL     1      34.656 -14.371 -23.204  0.00  0.00    +0.144 HD
ATOM     18  H   UNL     1      34.383 -15.660 -26.436  0.00  0.00    +0.188 HD
ENDBRANCH  10  15
ENDBRANCH   4   7
BRANCH   1  19
ATOM     19  O   UNL     1      35.255 -22.949 -17.529  0.00  0.00    -0.474 OA
BRANCH  19  20
ATOM     20  C   UNL     1      35.840 -22.570 -16.296  0.00  0.00    +0.225 C 
BRANCH  20  24
ATOM     21  O   UNL     1      36.366 -23.178 -11.980  0.00  0.00    -0.275 OA
ATOM     22  N   UNL     1      36.799 -23.522 -14.254  0.00  0.00    -0.302 N 
ATOM     23  C   UNL     1      34.567 -23.654 -13.564  0.00  0.00    +0.089 C 
ATOM     24  C   UNL     1      36.050 -23.820 -15.451  0.00  0.00    +0.116 C 
ATOM     25  C   UNL     1      34.748 -24.388 -14.897  0.00  0.00    +0.033 C 
ATOM     26  C   UNL     1      35.999 -23.429 -13.118  0.00  0.00    +0.223 C 
ATOM     27  H   UNL     1      37.775 -23.399 -14.242  0.00  0.00    +0.149 HD
BRANCH  23  28
ATOM     28  C   UNL     1      33.751 -24.440 -12.555  0.00  0.00    +0.118 C 
BRANCH  28  30
ATOM     29  O   UNL     1      31.476 -23.590 -12.758  0.00  0.00    -0.250 OA
ATOM     30  C   UNL     1      32.289 -24.486 -12.921  0.00  0.00    +0.314 C 
BRANCH  30  31
ATOM     31  O   UNL     1      31.985 -25.689 -13.475  0.00  0.00    -0.480 OA
ATOM     32  H   UNL     1      32.479 -26.006 -14.205  0.00  0.00    +0.295 HD
ENDBRANCH  30  31
ENDBRANCH  28  30
ENDBRANCH  23  28
ENDBRANCH  20  24
ENDBRANCH  19  20
ENDBRANCH   1  19
TORSDOF 8
ENDMDL
