MODEL 1
REMARK VINA RESULT:     -11.3      0.000      0.000
REMARK  Name = 11314340
REMARK  7 active torsions:
REMARK  status: ('A' for Active; 'I' for Inactive)
REMARK    1  A    between atoms: C_2  and  C_10
REMARK    2  A    between atoms: C_3  and  O_18
REMARK    3  A    between atoms: O_18  and  C_19
REMARK    4  A    between atoms: C_19  and  C_20
REMARK    5  A    between atoms: C_20  and  N_21
REMARK    6  A    between atoms: C_20  and  C_25
REMARK    7  A    between atoms: C_25  and  C_26
REMARK                            x       y       z     vdW  Elec       q    Type
REMARK                         _______ _______ _______ _____ _____    ______ ____
ROOT
ATOM      1  N   UNL     1      33.250 -18.001 -25.110  0.00  0.00    -0.239 NA
ATOM      2  C   UNL     1      34.590 -18.015 -23.105  0.00  0.00    +0.022 C 
ATOM      3  C   UNL     1      34.233 -15.955 -24.280  0.00  0.00    +0.158 C 
ATOM      4  C   UNL     1      34.801 -16.649 -23.217  0.00  0.00    +0.040 C 
ATOM      5  C   UNL     1      33.818 -18.643 -24.064  0.00  0.00    +0.099 C 
ATOM      6  C   UNL     1      33.475 -16.671 -25.191  0.00  0.00    +0.136 C 
ENDROOT
BRANCH   2  10
ATOM      7  N   UNL     1      35.577 -21.565 -18.626  0.00  0.00    -0.280 N 
ATOM      8  N   UNL     1      36.730 -20.926 -18.907  0.00  0.00    -0.173 NA
ATOM      9  C   UNL     1      35.040 -20.303 -20.293  0.00  0.00    +0.032 A 
ATOM     10  C   UNL     1      35.170 -18.768 -22.008  0.00  0.00    +0.002 C 
ATOM     11  C   UNL     1      36.430 -20.126 -19.947  0.00  0.00    +0.102 A 
ATOM     12  C   UNL     1      34.338 -19.663 -21.306  0.00  0.00    +0.003 C 
ATOM     13  C   UNL     1      34.527 -21.228 -19.430  0.00  0.00    +0.053 A 
ATOM     14  C   UNL     1      36.552 -18.558 -21.705  0.00  0.00    +0.002 C 
ATOM     15  C   UNL     1      37.238 -19.225 -20.665  0.00  0.00    +0.021 C 
ATOM     16  C   UNL     1      33.194 -21.831 -19.265  0.00  0.00    +0.051 C 
ATOM     17  H   UNL     1      35.500 -22.224 -17.899  0.00  0.00    +0.189 HD
ENDBRANCH   2  10
BRANCH   3  18
ATOM     18  O   UNL     1      34.418 -14.618 -24.419  0.00  0.00    -0.476 OA
BRANCH  18  19
ATOM     19  C   UNL     1      33.255 -13.790 -24.386  0.00  0.00    +0.184 C 
BRANCH  19  20
ATOM     20  C   UNL     1      33.522 -12.533 -23.549  0.00  0.00    -0.017 C 
BRANCH  20  21
ATOM     21  N   UNL     1      34.386 -12.902 -22.424  0.00  0.00    +0.384 N 
ATOM     22  H   UNL     1      34.455 -13.917 -22.366  0.00  0.00    -0.089 HD
ATOM     23  H   UNL     1      33.989 -12.538 -21.557  0.00  0.00    -0.089 HD
ATOM     24  H   UNL     1      35.315 -12.504 -22.564  0.00  0.00    -0.089 HD
ENDBRANCH  20  21
BRANCH  20  25
ATOM     25  C   UNL     1      34.218 -11.409 -24.344  0.00  0.00    +0.008 C 
BRANCH  25  26
ATOM     26  C   UNL     1      34.074 -10.031 -23.744  0.00  0.00    -0.024 C 
ATOM     27  C   UNL     1      35.083  -9.099 -23.932  0.00  0.00    -0.004 C 
ATOM     28  C   UNL     1      32.935  -9.722 -23.017  0.00  0.00    -0.004 C 
ATOM     29  C   UNL     1      34.950  -7.826 -23.379  0.00  0.00    -0.000 C 
ATOM     30  C   UNL     1      32.802  -8.448 -22.464  0.00  0.00    -0.000 C 
ATOM     31  C   UNL     1      33.809  -7.500 -22.644  0.00  0.00    -0.000 C 
ENDBRANCH  25  26
ENDBRANCH  20  25
ENDBRANCH  19  20
ENDBRANCH  18  19
ENDBRANCH   3  18
TORSDOF 7
ENDMDL
MODEL 2
REMARK VINA RESULT:     -11.1      3.214     10.445
REMARK  Name = 11314340
REMARK  7 active torsions:
REMARK  status: ('A' for Active; 'I' for Inactive)
REMARK    1  A    between atoms: C_2  and  C_10
REMARK    2  A    between atoms: C_3  and  O_18
REMARK    3  A    between atoms: O_18  and  C_19
REMARK    4  A    between atoms: C_19  and  C_20
REMARK    5  A    between atoms: C_20  and  N_21
REMARK    6  A    between atoms: C_20  and  C_25
REMARK    7  A    between atoms: C_25  and  C_26
REMARK                            x       y       z     vdW  Elec       q    Type
REMARK                         _______ _______ _______ _____ _____    ______ ____
ROOT
ATOM      1  N   UNL     1      37.324 -19.003 -20.093  0.00  0.00    -0.239 NA
ATOM      2  C   UNL     1      35.497 -18.844 -21.659  0.00  0.00    +0.022 C 
ATOM      3  C   UNL     1      35.635 -20.730 -20.184  0.00  0.00    +0.158 C 
ATOM      4  C   UNL     1      34.979 -20.046 -21.201  0.00  0.00    +0.040 C 
ATOM      5  C   UNL     1      36.659 -18.366 -21.082  0.00  0.00    +0.099 C 
ATOM      6  C   UNL     1      36.794 -20.172 -19.669  0.00  0.00    +0.136 C 
ENDROOT
BRANCH   2  10
ATOM      7  N   UNL     1      33.221 -14.763 -25.093  0.00  0.00    -0.280 N 
ATOM      8  N   UNL     1      32.993 -15.960 -25.669  0.00  0.00    -0.173 NA
ATOM      9  C   UNL     1      34.120 -16.150 -23.705  0.00  0.00    +0.032 A 
ATOM     10  C   UNL     1      34.836 -18.106 -22.719  0.00  0.00    +0.002 C 
ATOM     11  C   UNL     1      33.543 -16.853 -24.826  0.00  0.00    +0.102 A 
ATOM     12  C   UNL     1      34.781 -16.703 -22.616  0.00  0.00    +0.003 C 
ATOM     13  C   UNL     1      33.896 -14.818 -23.909  0.00  0.00    +0.053 A 
ATOM     14  C   UNL     1      34.281 -18.849 -23.809  0.00  0.00    +0.002 C 
ATOM     15  C   UNL     1      33.613 -18.255 -24.904  0.00  0.00    +0.021 C 
ATOM     16  C   UNL     1      34.232 -13.605 -23.145  0.00  0.00    +0.051 C 
ATOM     17  H   UNL     1      32.924 -13.915 -25.497  0.00  0.00    +0.189 HD
ENDBRANCH   2  10
BRANCH   3  18
ATOM     18  O   UNL     1      35.155 -21.908 -19.712  0.00  0.00    -0.476 OA
BRANCH  18  19
ATOM     19  C   UNL     1      34.985 -22.026 -18.298  0.00  0.00    +0.184 C 
BRANCH  19  20
ATOM     20  C   UNL     1      33.501 -22.202 -17.954  0.00  0.00    -0.017 C 
BRANCH  20  21
ATOM     21  N   UNL     1      32.734 -22.205 -19.203  0.00  0.00    +0.384 N 
ATOM     22  H   UNL     1      33.374 -22.249 -19.996  0.00  0.00    -0.089 HD
ATOM     23  H   UNL     1      32.177 -21.352 -19.262  0.00  0.00    -0.089 HD
ATOM     24  H   UNL     1      32.115 -23.017 -19.220  0.00  0.00    -0.089 HD
ENDBRANCH  20  21
BRANCH  20  25
ATOM     25  C   UNL     1      33.204 -23.517 -17.202  0.00  0.00    +0.008 C 
BRANCH  25  26
ATOM     26  C   UNL     1      32.292 -23.366 -16.008  0.00  0.00    -0.024 C 
ATOM     27  C   UNL     1      32.827 -23.441 -14.731  0.00  0.00    -0.004 C 
ATOM     28  C   UNL     1      30.937 -23.154 -16.209  0.00  0.00    -0.004 C 
ATOM     29  C   UNL     1      31.986 -23.302 -13.628  0.00  0.00    -0.000 C 
ATOM     30  C   UNL     1      30.096 -23.015 -15.105  0.00  0.00    -0.000 C 
ATOM     31  C   UNL     1      30.619 -23.089 -13.815  0.00  0.00    -0.000 C 
ENDBRANCH  25  26
ENDBRANCH  20  25
ENDBRANCH  19  20
ENDBRANCH  18  19
ENDBRANCH   3  18
TORSDOF 7
ENDMDL
MODEL 3
REMARK VINA RESULT:     -10.9      1.642      2.192
REMARK  Name = 11314340
REMARK  7 active torsions:
REMARK  status: ('A' for Active; 'I' for Inactive)
REMARK    1  A    between atoms: C_2  and  C_10
REMARK    2  A    between atoms: C_3  and  O_18
REMARK    3  A    between atoms: O_18  and  C_19
REMARK    4  A    between atoms: C_19  and  C_20
REMARK    5  A    between atoms: C_20  and  N_21
REMARK    6  A    between atoms: C_20  and  C_25
REMARK    7  A    between atoms: C_25  and  C_26
REMARK                            x       y       z     vdW  Elec       q    Type
REMARK                         _______ _______ _______ _____ _____    ______ ____
ROOT
ATOM      1  N   UNL     1      33.628 -18.138 -24.985  0.00  0.00    -0.239 NA
ATOM      2  C   UNL     1      34.756 -18.220 -22.856  0.00  0.00    +0.022 C 
ATOM      3  C   UNL     1      34.396 -16.105 -23.927  0.00  0.00    +0.158 C 
ATOM      4  C   UNL     1      34.894 -16.840 -22.857  0.00  0.00    +0.040 C 
ATOM      5  C   UNL     1      34.123 -18.819 -23.928  0.00  0.00    +0.099 C 
ATOM      6  C   UNL     1      33.778 -16.794 -24.957  0.00  0.00    +0.136 C 
ENDROOT
BRANCH   2  10
ATOM      7  N   UNL     1      35.434 -21.870 -18.400  0.00  0.00    -0.280 N 
ATOM      8  N   UNL     1      36.626 -21.289 -18.642  0.00  0.00    -0.173 NA
ATOM      9  C   UNL     1      35.009 -20.561 -20.063  0.00  0.00    +0.032 A 
ATOM     10  C   UNL     1      35.265 -19.016 -21.754  0.00  0.00    +0.002 C 
ATOM     11  C   UNL     1      36.397 -20.463 -19.679  0.00  0.00    +0.102 A 
ATOM     12  C   UNL     1      34.369 -19.873 -21.086  0.00  0.00    +0.003 C 
ATOM     13  C   UNL     1      34.425 -21.468 -19.226  0.00  0.00    +0.053 A 
ATOM     14  C   UNL     1      36.648 -18.883 -21.412  0.00  0.00    +0.002 C 
ATOM     15  C   UNL     1      37.269 -19.598 -20.364  0.00  0.00    +0.021 C 
ATOM     16  C   UNL     1      33.057 -22.001 -19.103  0.00  0.00    +0.051 C 
ATOM     17  H   UNL     1      35.303 -22.532 -17.683  0.00  0.00    +0.189 HD
ENDBRANCH   2  10
BRANCH   3  18
ATOM     18  O   UNL     1      34.513 -14.754 -23.960  0.00  0.00    -0.476 OA
BRANCH  18  19
ATOM     19  C   UNL     1      34.353 -14.052 -22.726  0.00  0.00    +0.184 C 
BRANCH  19  20
ATOM     20  C   UNL     1      33.570 -12.754 -22.950  0.00  0.00    -0.017 C 
BRANCH  20  21
ATOM     21  N   UNL     1      33.331 -12.600 -24.388  0.00  0.00    +0.384 N 
ATOM     22  H   UNL     1      33.848 -13.316 -24.898  0.00  0.00    -0.089 HD
ATOM     23  H   UNL     1      33.645 -11.676 -24.688  0.00  0.00    -0.089 HD
ATOM     24  H   UNL     1      32.333 -12.699 -24.580  0.00  0.00    -0.089 HD
ENDBRANCH  20  21
BRANCH  20  25
ATOM     25  C   UNL     1      32.205 -12.734 -22.230  0.00  0.00    +0.008 C 
BRANCH  25  26
ATOM     26  C   UNL     1      31.994 -11.554 -21.312  0.00  0.00    -0.024 C 
ATOM     27  C   UNL     1      31.846 -11.770 -19.950  0.00  0.00    -0.004 C 
ATOM     28  C   UNL     1      31.953 -10.276 -21.847  0.00  0.00    -0.004 C 
ATOM     29  C   UNL     1      31.651 -10.680 -19.103  0.00  0.00    -0.000 C 
ATOM     30  C   UNL     1      31.758  -9.186 -20.998  0.00  0.00    -0.000 C 
ATOM     31  C   UNL     1      31.607  -9.388 -19.626  0.00  0.00    -0.000 C 
ENDBRANCH  25  26
ENDBRANCH  20  25
ENDBRANCH  19  20
ENDBRANCH  18  19
ENDBRANCH   3  18
TORSDOF 7
ENDMDL
MODEL 4
REMARK VINA RESULT:     -10.9      4.394      8.189
REMARK  Name = 11314340
REMARK  7 active torsions:
REMARK  status: ('A' for Active; 'I' for Inactive)
REMARK    1  A    between atoms: C_2  and  C_10
REMARK    2  A    between atoms: C_3  and  O_18
REMARK    3  A    between atoms: O_18  and  C_19
REMARK    4  A    between atoms: C_19  and  C_20
REMARK    5  A    between atoms: C_20  and  N_21
REMARK    6  A    between atoms: C_20  and  C_25
REMARK    7  A    between atoms: C_25  and  C_26
REMARK                            x       y       z     vdW  Elec       q    Type
REMARK                         _______ _______ _______ _____ _____    ______ ____
ROOT
ATOM      1  N   UNL     1      36.741 -22.098 -16.889  0.00  0.00    -0.239 NA
ATOM      2  C   UNL     1      34.435 -22.767 -16.658  0.00  0.00    +0.022 C 
ATOM      3  C   UNL     1      35.205 -21.858 -18.740  0.00  0.00    +0.158 C 
ATOM      4  C   UNL     1      34.177 -22.385 -17.966  0.00  0.00    +0.040 C 
ATOM      5  C   UNL     1      35.717 -22.607 -16.167  0.00  0.00    +0.099 C 
ATOM      6  C   UNL     1      36.457 -21.735 -18.159  0.00  0.00    +0.136 C 
ENDROOT
BRANCH   2  10
ATOM      7  N   UNL     1      29.380 -24.384 -14.320  0.00  0.00    -0.280 N 
ATOM      8  N   UNL     1      30.368 -24.850 -13.529  0.00  0.00    -0.173 NA
ATOM      9  C   UNL     1      31.168 -23.703 -15.321  0.00  0.00    +0.032 A 
ATOM     10  C   UNL     1      33.384 -23.320 -15.825  0.00  0.00    +0.002 C 
ATOM     11  C   UNL     1      31.502 -24.441 -14.127  0.00  0.00    +0.102 A 
ATOM     12  C   UNL     1      32.047 -23.113 -16.219  0.00  0.00    +0.003 C 
ATOM     13  C   UNL     1      29.805 -23.686 -15.413  0.00  0.00    +0.053 A 
ATOM     14  C   UNL     1      33.767 -24.044 -14.652  0.00  0.00    +0.002 C 
ATOM     15  C   UNL     1      32.846 -24.633 -13.757  0.00  0.00    +0.021 C 
ATOM     16  C   UNL     1      28.861 -23.108 -16.384  0.00  0.00    +0.051 C 
ATOM     17  H   UNL     1      28.427 -24.536 -14.123  0.00  0.00    +0.189 HD
ENDBRANCH   2  10
BRANCH   3  18
ATOM     18  O   UNL     1      34.987 -21.475 -20.023  0.00  0.00    -0.476 OA
BRANCH  18  19
ATOM     19  C   UNL     1      34.202 -20.300 -20.232  0.00  0.00    +0.184 C 
BRANCH  19  20
ATOM     20  C   UNL     1      35.026 -19.234 -20.964  0.00  0.00    -0.017 C 
BRANCH  20  21
ATOM     21  N   UNL     1      36.420 -19.346 -20.527  0.00  0.00    +0.384 N 
ATOM     22  H   UNL     1      36.728 -20.314 -20.614  0.00  0.00    -0.089 HD
ATOM     23  H   UNL     1      36.496 -19.051 -19.553  0.00  0.00    -0.089 HD
ATOM     24  H   UNL     1      37.009 -18.749 -21.110  0.00  0.00    -0.089 HD
ENDBRANCH  20  21
BRANCH  20  25
ATOM     25  C   UNL     1      34.988 -19.386 -22.500  0.00  0.00    +0.008 C 
BRANCH  25  26
ATOM     26  C   UNL     1      34.660 -18.117 -23.249  0.00  0.00    -0.024 C 
ATOM     27  C   UNL     1      35.114 -16.902 -22.760  0.00  0.00    -0.004 C 
ATOM     28  C   UNL     1      33.911 -18.189 -24.414  0.00  0.00    -0.004 C 
ATOM     29  C   UNL     1      34.811 -15.730 -23.452  0.00  0.00    -0.000 C 
ATOM     30  C   UNL     1      33.608 -17.016 -25.105  0.00  0.00    -0.000 C 
ATOM     31  C   UNL     1      34.058 -15.787 -24.625  0.00  0.00    -0.000 C 
ENDBRANCH  25  26
ENDBRANCH  20  25
ENDBRANCH  19  20
ENDBRANCH  18  19
ENDBRANCH   3  18
TORSDOF 7
ENDMDL
MODEL 5
REMARK VINA RESULT:     -10.8      5.414      9.423
REMARK  Name = 11314340
REMARK  7 active torsions:
REMARK  status: ('A' for Active; 'I' for Inactive)
REMARK    1  A    between atoms: C_2  and  C_10
REMARK    2  A    between atoms: C_3  and  O_18
REMARK    3  A    between atoms: O_18  and  C_19
REMARK    4  A    between atoms: C_19  and  C_20
REMARK    5  A    between atoms: C_20  and  N_21
REMARK    6  A    between atoms: C_20  and  C_25
REMARK    7  A    between atoms: C_25  and  C_26
REMARK                            x       y       z     vdW  Elec       q    Type
REMARK                         _______ _______ _______ _____ _____    ______ ____
ROOT
ATOM      1  N   UNL     1      31.462 -23.330 -15.147  0.00  0.00    -0.239 NA
ATOM      2  C   UNL     1      33.872 -23.394 -15.149  0.00  0.00    +0.022 C 
ATOM      3  C   UNL     1      32.699 -22.813 -17.158  0.00  0.00    +0.158 C 
ATOM      4  C   UNL     1      33.897 -23.030 -16.486  0.00  0.00    +0.040 C 
ATOM      5  C   UNL     1      32.646 -23.531 -14.527  0.00  0.00    +0.099 C 
ATOM      6  C   UNL     1      31.520 -22.976 -16.451  0.00  0.00    +0.136 C 
ENDROOT
BRANCH   2  10
ATOM      7  N   UNL     1      37.910 -24.415 -11.112  0.00  0.00    -0.280 N 
ATOM      8  N   UNL     1      38.536 -24.294 -12.300  0.00  0.00    -0.173 NA
ATOM      9  C   UNL     1      36.284 -24.044 -12.484  0.00  0.00    +0.032 A 
ATOM     10  C   UNL     1      35.105 -23.628 -14.420  0.00  0.00    +0.002 C 
ATOM     11  C   UNL     1      37.547 -24.060 -13.182  0.00  0.00    +0.102 A 
ATOM     12  C   UNL     1      35.025 -23.835 -13.029  0.00  0.00    +0.003 C 
ATOM     13  C   UNL     1      36.554 -24.274 -11.165  0.00  0.00    +0.053 A 
ATOM     14  C   UNL     1      36.331 -23.635 -15.158  0.00  0.00    +0.002 C 
ATOM     15  C   UNL     1      37.599 -23.851 -14.572  0.00  0.00    +0.021 C 
ATOM     16  C   UNL     1      35.711 -24.378  -9.961  0.00  0.00    +0.051 C 
ATOM     17  H   UNL     1      38.394 -24.593 -10.273  0.00  0.00    +0.189 HD
ENDBRANCH   2  10
BRANCH   3  18
ATOM     18  O   UNL     1      32.687 -22.455 -18.466  0.00  0.00    -0.476 OA
BRANCH  18  19
ATOM     19  C   UNL     1      33.949 -22.211 -19.090  0.00  0.00    +0.184 C 
BRANCH  19  20
ATOM     20  C   UNL     1      33.801 -21.162 -20.198  0.00  0.00    -0.017 C 
BRANCH  20  21
ATOM     21  N   UNL     1      32.561 -20.416 -19.965  0.00  0.00    +0.384 N 
ATOM     22  H   UNL     1      32.327 -19.875 -20.797  0.00  0.00    -0.089 HD
ATOM     23  H   UNL     1      32.688 -19.784 -19.173  0.00  0.00    -0.089 HD
ATOM     24  H   UNL     1      31.804 -21.069 -19.760  0.00  0.00    -0.089 HD
ENDBRANCH  20  21
BRANCH  20  25
ATOM     25  C   UNL     1      34.969 -20.154 -20.241  0.00  0.00    +0.008 C 
BRANCH  25  26
ATOM     26  C   UNL     1      34.893 -19.150 -21.365  0.00  0.00    -0.024 C 
ATOM     27  C   UNL     1      35.223 -17.826 -21.118  0.00  0.00    -0.004 C 
ATOM     28  C   UNL     1      34.495 -19.568 -22.626  0.00  0.00    -0.004 C 
ATOM     29  C   UNL     1      35.152 -16.898 -22.156  0.00  0.00    -0.000 C 
ATOM     30  C   UNL     1      34.425 -18.639 -23.664  0.00  0.00    -0.000 C 
ATOM     31  C   UNL     1      34.753 -17.304 -23.430  0.00  0.00    -0.000 C 
ENDBRANCH  25  26
ENDBRANCH  20  25
ENDBRANCH  19  20
ENDBRANCH  18  19
ENDBRANCH   3  18
TORSDOF 7
ENDMDL
MODEL 6
REMARK VINA RESULT:     -10.7      3.766      6.397
REMARK  Name = 11314340
REMARK  7 active torsions:
REMARK  status: ('A' for Active; 'I' for Inactive)
REMARK    1  A    between atoms: C_2  and  C_10
REMARK    2  A    between atoms: C_3  and  O_18
REMARK    3  A    between atoms: O_18  and  C_19
REMARK    4  A    between atoms: C_19  and  C_20
REMARK    5  A    between atoms: C_20  and  N_21
REMARK    6  A    between atoms: C_20  and  C_25
REMARK    7  A    between atoms: C_25  and  C_26
REMARK                            x       y       z     vdW  Elec       q    Type
REMARK                         _______ _______ _______ _____ _____    ______ ____
ROOT
ATOM      1  N   UNL     1      32.746 -21.900 -19.097  0.00  0.00    -0.239 NA
ATOM      2  C   UNL     1      34.859 -22.007 -17.939  0.00  0.00    +0.022 C 
ATOM      3  C   UNL     1      34.716 -20.868 -20.045  0.00  0.00    +0.158 C 
ATOM      4  C   UNL     1      35.470 -21.285 -18.953  0.00  0.00    +0.040 C 
ATOM      5  C   UNL     1      33.511 -22.289 -18.051  0.00  0.00    +0.099 C 
ATOM      6  C   UNL     1      33.372 -21.199 -20.069  0.00  0.00    +0.136 C 
ENDROOT
BRANCH   2  10
ATOM      7  N   UNL     1      36.591 -24.156 -12.838  0.00  0.00    -0.280 N 
ATOM      8  N   UNL     1      37.687 -23.748 -13.507  0.00  0.00    -0.173 NA
ATOM      9  C   UNL     1      35.778 -23.395 -14.687  0.00  0.00    +0.032 A 
ATOM     10  C   UNL     1      35.618 -22.457 -16.787  0.00  0.00    +0.002 C 
ATOM     11  C   UNL     1      37.215 -23.266 -14.671  0.00  0.00    +0.102 A 
ATOM     12  C   UNL     1      34.911 -23.015 -15.704  0.00  0.00    +0.003 C 
ATOM     13  C   UNL     1      35.414 -23.966 -13.501  0.00  0.00    +0.053 A 
ATOM     14  C   UNL     1      37.041 -22.308 -16.819  0.00  0.00    +0.002 C 
ATOM     15  C   UNL     1      37.896 -22.705 -15.767  0.00  0.00    +0.021 C 
ATOM     16  C   UNL     1      34.118 -24.355 -12.918  0.00  0.00    +0.051 C 
ATOM     17  H   UNL     1      36.637 -24.559 -11.940  0.00  0.00    +0.189 HD
ENDBRANCH   2  10
BRANCH   3  18
ATOM     18  O   UNL     1      35.282 -20.160 -21.054  0.00  0.00    -0.476 OA
BRANCH  18  19
ATOM     19  C   UNL     1      34.417 -19.345 -21.847  0.00  0.00    +0.184 C 
BRANCH  19  20
ATOM     20  C   UNL     1      35.153 -18.082 -22.308  0.00  0.00    -0.017 C 
BRANCH  20  21
ATOM     21  N   UNL     1      36.588 -18.376 -22.363  0.00  0.00    +0.384 N 
ATOM     22  H   UNL     1      36.829 -19.037 -21.625  0.00  0.00    -0.089 HD
ATOM     23  H   UNL     1      37.117 -17.513 -22.233  0.00  0.00    -0.089 HD
ATOM     24  H   UNL     1      36.818 -18.782 -23.271  0.00  0.00    -0.089 HD
ENDBRANCH  20  21
BRANCH  20  25
ATOM     25  C   UNL     1      34.707 -17.594 -23.703  0.00  0.00    +0.008 C 
BRANCH  25  26
ATOM     26  C   UNL     1      34.329 -16.134 -23.768  0.00  0.00    -0.024 C 
ATOM     27  C   UNL     1      34.629 -15.306 -22.696  0.00  0.00    -0.004 C 
ATOM     28  C   UNL     1      33.690 -15.646 -24.897  0.00  0.00    -0.004 C 
ATOM     29  C   UNL     1      34.280 -13.957 -22.755  0.00  0.00    -0.000 C 
ATOM     30  C   UNL     1      33.341 -14.296 -24.955  0.00  0.00    -0.000 C 
ATOM     31  C   UNL     1      33.636 -13.452 -23.885  0.00  0.00    -0.000 C 
ENDBRANCH  25  26
ENDBRANCH  20  25
ENDBRANCH  19  20
ENDBRANCH  18  19
ENDBRANCH   3  18
TORSDOF 7
ENDMDL
MODEL 7
REMARK VINA RESULT:     -10.6      4.490      7.950
REMARK  Name = 11314340
REMARK  7 active torsions:
REMARK  status: ('A' for Active; 'I' for Inactive)
REMARK    1  A    between atoms: C_2  and  C_10
REMARK    2  A    between atoms: C_3  and  O_18
REMARK    3  A    between atoms: O_18  and  C_19
REMARK    4  A    between atoms: C_19  and  C_20
REMARK    5  A    between atoms: C_20  and  N_21
REMARK    6  A    between atoms: C_20  and  C_25
REMARK    7  A    between atoms: C_25  and  C_26
REMARK                            x       y       z     vdW  Elec       q    Type
REMARK                         _______ _______ _______ _____ _____    ______ ____
ROOT
ATOM      1  N   UNL     1      32.629 -22.520 -18.363  0.00  0.00    -0.239 NA
ATOM      2  C   UNL     1      34.400 -22.877 -16.766  0.00  0.00    +0.022 C 
ATOM      3  C   UNL     1      34.822 -21.575 -18.735  0.00  0.00    +0.158 C 
ATOM      4  C   UNL     1      35.273 -22.130 -17.542  0.00  0.00    +0.040 C 
ATOM      5  C   UNL     1      33.102 -23.044 -17.210  0.00  0.00    +0.099 C 
ATOM      6  C   UNL     1      33.504 -21.798 -19.097  0.00  0.00    +0.136 C 
ENDROOT
BRANCH   2  10
ATOM      7  N   UNL     1      37.421 -25.310 -12.454  0.00  0.00    -0.280 N 
ATOM      8  N   UNL     1      36.153 -25.147 -12.028  0.00  0.00    -0.173 NA
ATOM      9  C   UNL     1      36.448 -24.405 -14.155  0.00  0.00    +0.032 A 
ATOM     10  C   UNL     1      34.840 -23.470 -15.516  0.00  0.00    +0.002 C 
ATOM     11  C   UNL     1      35.514 -24.583 -13.069  0.00  0.00    +0.102 A 
ATOM     12  C   UNL     1      36.189 -23.859 -15.406  0.00  0.00    +0.003 C 
ATOM     13  C   UNL     1      37.655 -24.880 -13.727  0.00  0.00    +0.053 A 
ATOM     14  C   UNL     1      33.876 -23.624 -14.470  0.00  0.00    +0.002 C 
ATOM     15  C   UNL     1      34.172 -24.185 -13.207  0.00  0.00    +0.021 C 
ATOM     16  C   UNL     1      38.985 -24.980 -14.353  0.00  0.00    +0.051 C 
ATOM     17  H   UNL     1      38.123 -25.706 -11.889  0.00  0.00    +0.189 HD
ENDBRANCH   2  10
BRANCH   3  18
ATOM     18  O   UNL     1      35.649 -20.838 -19.518  0.00  0.00    -0.476 OA
BRANCH  18  19
ATOM     19  C   UNL     1      35.078 -20.217 -20.671  0.00  0.00    +0.184 C 
BRANCH  19  20
ATOM     20  C   UNL     1      35.803 -18.902 -20.980  0.00  0.00    -0.017 C 
BRANCH  20  21
ATOM     21  N   UNL     1      37.121 -18.938 -20.338  0.00  0.00    +0.384 N 
ATOM     22  H   UNL     1      37.680 -18.149 -20.663  0.00  0.00    -0.089 HD
ATOM     23  H   UNL     1      37.592 -19.811 -20.579  0.00  0.00    -0.089 HD
ATOM     24  H   UNL     1      37.008 -18.881 -19.325  0.00  0.00    -0.089 HD
ENDBRANCH  20  21
BRANCH  20  25
ATOM     25  C   UNL     1      36.008 -18.660 -22.490  0.00  0.00    +0.008 C 
BRANCH  25  26
ATOM     26  C   UNL     1      35.212 -17.510 -23.058  0.00  0.00    -0.024 C 
ATOM     27  C   UNL     1      34.525 -17.682 -24.250  0.00  0.00    -0.004 C 
ATOM     28  C   UNL     1      35.182 -16.303 -22.378  0.00  0.00    -0.004 C 
ATOM     29  C   UNL     1      33.789 -16.620 -24.774  0.00  0.00    -0.000 C 
ATOM     30  C   UNL     1      34.446 -15.240 -22.904  0.00  0.00    -0.000 C 
ATOM     31  C   UNL     1      33.750 -15.399 -24.101  0.00  0.00    -0.000 C 
ENDBRANCH  25  26
ENDBRANCH  20  25
ENDBRANCH  19  20
ENDBRANCH  18  19
ENDBRANCH   3  18
TORSDOF 7
ENDMDL
MODEL 8
REMARK VINA RESULT:     -10.6      3.226      5.963
REMARK  Name = 11314340
REMARK  7 active torsions:
REMARK  status: ('A' for Active; 'I' for Inactive)
REMARK    1  A    between atoms: C_2  and  C_10
REMARK    2  A    between atoms: C_3  and  O_18
REMARK    3  A    between atoms: O_18  and  C_19
REMARK    4  A    between atoms: C_19  and  C_20
REMARK    5  A    between atoms: C_20  and  N_21
REMARK    6  A    between atoms: C_20  and  C_25
REMARK    7  A    between atoms: C_25  and  C_26
REMARK                            x       y       z     vdW  Elec       q    Type
REMARK                         _______ _______ _______ _____ _____    ______ ____
ROOT
ATOM      1  N   UNL     1      31.661 -11.939 -19.935  0.00  0.00    -0.239 NA
ATOM      2  C   UNL     1      32.600 -12.615 -22.051  0.00  0.00    +0.022 C 
ATOM      3  C   UNL     1      31.953 -10.330 -21.716  0.00  0.00    +0.158 C 
ATOM      4  C   UNL     1      32.483 -11.321 -22.535  0.00  0.00    +0.040 C 
ATOM      5  C   UNL     1      32.181 -12.875 -20.760  0.00  0.00    +0.099 C 
ATOM      6  C   UNL     1      31.559 -10.688 -20.437  0.00  0.00    +0.136 C 
ENDROOT
BRANCH   2  10
ATOM      7  N   UNL     1      35.213 -17.369 -24.102  0.00  0.00    -0.280 N 
ATOM      8  N   UNL     1      34.720 -16.684 -25.153  0.00  0.00    -0.173 NA
ATOM      9  C   UNL     1      34.287 -15.654 -23.174  0.00  0.00    +0.032 A 
ATOM     10  C   UNL     1      33.149 -13.671 -22.881  0.00  0.00    +0.002 C 
ATOM     11  C   UNL     1      34.133 -15.603 -24.608  0.00  0.00    +0.102 A 
ATOM     12  C   UNL     1      33.826 -14.731 -22.245  0.00  0.00    +0.003 C 
ATOM     13  C   UNL     1      34.981 -16.795 -22.886  0.00  0.00    +0.053 A 
ATOM     14  C   UNL     1      32.969 -13.575 -24.297  0.00  0.00    +0.002 C 
ATOM     15  C   UNL     1      33.452 -14.533 -25.217  0.00  0.00    +0.021 C 
ATOM     16  C   UNL     1      35.449 -17.408 -21.632  0.00  0.00    +0.051 C 
ATOM     17  H   UNL     1      35.702 -18.218 -24.205  0.00  0.00    +0.189 HD
ENDBRANCH   2  10
BRANCH   3  18
ATOM     18  O   UNL     1      31.825  -9.054 -22.157  0.00  0.00    -0.476 OA
BRANCH  18  19
ATOM     19  C   UNL     1      31.529  -8.051 -21.184  0.00  0.00    +0.184 C 
BRANCH  19  20
ATOM     20  C   UNL     1      32.706  -7.079 -21.048  0.00  0.00    -0.017 C 
BRANCH  20  21
ATOM     21  N   UNL     1      33.250  -7.199 -19.692  0.00  0.00    +0.384 N 
ATOM     22  H   UNL     1      32.988  -6.379 -19.145  0.00  0.00    -0.089 HD
ATOM     23  H   UNL     1      34.268  -7.266 -19.739  0.00  0.00    -0.089 HD
ATOM     24  H   UNL     1      32.875  -8.038 -19.248  0.00  0.00    -0.089 HD
ENDBRANCH  20  21
BRANCH  20  25
ATOM     25  C   UNL     1      33.845  -7.358 -22.051  0.00  0.00    +0.008 C 
BRANCH  25  26
ATOM     26  C   UNL     1      33.841  -6.470 -23.271  0.00  0.00    -0.024 C 
ATOM     27  C   UNL     1      34.960  -6.433 -24.090  0.00  0.00    -0.004 C 
ATOM     28  C   UNL     1      32.718  -5.706 -23.553  0.00  0.00    -0.004 C 
ATOM     29  C   UNL     1      34.956  -5.613 -25.217  0.00  0.00    -0.000 C 
ATOM     30  C   UNL     1      32.716  -4.885 -24.681  0.00  0.00    -0.000 C 
ATOM     31  C   UNL     1      33.834  -4.838 -25.513  0.00  0.00    -0.000 C 
ENDBRANCH  25  26
ENDBRANCH  20  25
ENDBRANCH  19  20
ENDBRANCH  18  19
ENDBRANCH   3  18
TORSDOF 7
ENDMDL
MODEL 9
REMARK VINA RESULT:     -10.6      3.838     10.831
REMARK  Name = 11314340
REMARK  7 active torsions:
REMARK  status: ('A' for Active; 'I' for Inactive)
REMARK    1  A    between atoms: C_2  and  C_10
REMARK    2  A    between atoms: C_3  and  O_18
REMARK    3  A    between atoms: O_18  and  C_19
REMARK    4  A    between atoms: C_19  and  C_20
REMARK    5  A    between atoms: C_20  and  N_21
REMARK    6  A    between atoms: C_20  and  C_25
REMARK    7  A    between atoms: C_25  and  C_26
REMARK                            x       y       z     vdW  Elec       q    Type
REMARK                         _______ _______ _______ _____ _____    ______ ____
ROOT
ATOM      1  N   UNL     1      36.404 -21.278 -19.064  0.00  0.00    -0.239 NA
ATOM      2  C   UNL     1      35.008 -20.015 -20.572  0.00  0.00    +0.022 C 
ATOM      3  C   UNL     1      34.015 -21.645 -19.119  0.00  0.00    +0.158 C 
ATOM      4  C   UNL     1      33.881 -20.678 -20.109  0.00  0.00    +0.040 C 
ATOM      5  C   UNL     1      36.235 -20.343 -20.027  0.00  0.00    +0.099 C 
ATOM      6  C   UNL     1      35.286 -21.906 -18.635  0.00  0.00    +0.136 C 
ENDROOT
BRANCH   2  10
ATOM      7  N   UNL     1      34.534 -15.074 -23.572  0.00  0.00    -0.280 N 
ATOM      8  N   UNL     1      34.599 -16.089 -24.457  0.00  0.00    -0.173 NA
ATOM      9  C   UNL     1      34.706 -16.814 -22.306  0.00  0.00    +0.032 A 
ATOM     10  C   UNL     1      34.901 -19.001 -21.605  0.00  0.00    +0.002 C 
ATOM     11  C   UNL     1      34.707 -17.195 -23.698  0.00  0.00    +0.102 A 
ATOM     12  C   UNL     1      34.798 -17.655 -21.204  0.00  0.00    +0.003 C 
ATOM     13  C   UNL     1      34.594 -15.454 -22.263  0.00  0.00    +0.053 A 
ATOM     14  C   UNL     1      34.907 -19.430 -22.970  0.00  0.00    +0.002 C 
ATOM     15  C   UNL     1      34.811 -18.548 -24.070  0.00  0.00    +0.021 C 
ATOM     16  C   UNL     1      34.538 -14.475 -21.164  0.00  0.00    +0.051 C 
ATOM     17  H   UNL     1      34.451 -14.133 -23.850  0.00  0.00    +0.189 HD
ENDBRANCH   2  10
BRANCH   3  18
ATOM     18  O   UNL     1      32.934 -22.311 -18.643  0.00  0.00    -0.476 OA
BRANCH  18  19
ATOM     19  C   UNL     1      33.161 -23.282 -17.620  0.00  0.00    +0.184 C 
BRANCH  19  20
ATOM     20  C   UNL     1      32.554 -22.808 -16.294  0.00  0.00    -0.017 C 
BRANCH  20  21
ATOM     21  N   UNL     1      31.095 -22.912 -16.390  0.00  0.00    +0.384 N 
ATOM     22  H   UNL     1      30.696 -21.985 -16.536  0.00  0.00    -0.089 HD
ATOM     23  H   UNL     1      30.725 -23.309 -15.526  0.00  0.00    -0.089 HD
ATOM     24  H   UNL     1      30.848 -23.517 -17.174  0.00  0.00    -0.089 HD
ENDBRANCH  20  21
BRANCH  20  25
ATOM     25  C   UNL     1      33.018 -23.641 -15.081  0.00  0.00    +0.008 C 
BRANCH  25  26
ATOM     26  C   UNL     1      34.516 -23.767 -14.940  0.00  0.00    -0.024 C 
ATOM     27  C   UNL     1      35.078 -25.022 -14.762  0.00  0.00    -0.004 C 
ATOM     28  C   UNL     1      35.302 -22.627 -14.990  0.00  0.00    -0.004 C 
ATOM     29  C   UNL     1      36.462 -25.139 -14.632  0.00  0.00    -0.000 C 
ATOM     30  C   UNL     1      36.686 -22.745 -14.860  0.00  0.00    -0.000 C 
ATOM     31  C   UNL     1      37.266 -24.000 -14.681  0.00  0.00    -0.000 C 
ENDBRANCH  25  26
ENDBRANCH  20  25
ENDBRANCH  19  20
ENDBRANCH  18  19
ENDBRANCH   3  18
TORSDOF 7
ENDMDL
