MODEL 1
REMARK VINA RESULT:     -11.6      0.000      0.000
REMARK  Name = 4470378
REMARK  6 active torsions:
REMARK  status: ('A' for Active; 'I' for Inactive)
REMARK    1  A    between atoms: C_5  and  O_10
REMARK    2  A    between atoms: C_6  and  O_24
REMARK    3  A    between atoms: O_10  and  C_11
REMARK    4  A    between atoms: C_12  and  C_19
REMARK    5  A    between atoms: O_24  and  C_25
REMARK    6  A    between atoms: C_26  and  C_33
REMARK                            x       y       z     vdW  Elec       q    Type
REMARK                         _______ _______ _______ _____ _____    ______ ____
ROOT
ATOM      1  F   UNL     1      32.324 -23.487 -17.667  0.00  0.00    -0.221 F 
ATOM      2  F   UNL     1      34.103 -22.958 -13.291  0.00  0.00    -0.199 F 
ATOM      3  N   UNL     1      35.698 -22.767 -16.544  0.00  0.00    -0.331 NA
ATOM      4  C   UNL     1      33.165 -23.232 -15.457  0.00  0.00    +0.031 C 
ATOM      5  C   UNL     1      34.622 -23.013 -17.324  0.00  0.00    +0.298 C 
ATOM      6  C   UNL     1      35.471 -22.761 -15.218  0.00  0.00    +0.312 C 
ATOM      7  C   UNL     1      33.347 -23.249 -16.836  0.00  0.00    +0.270 C 
ATOM      8  C   UNL     1      34.248 -22.982 -14.621  0.00  0.00    +0.201 C 
ATOM      9  C   UNL     1      31.814 -23.481 -14.878  0.00  0.00    +0.032 C 
ENDROOT
BRANCH   5  10
ATOM     10  O   UNL     1      34.828 -23.026 -18.679  0.00  0.00    -0.428 OA
BRANCH  10  11
ATOM     11  C   UNL     1      34.623 -21.846 -19.363  0.00  0.00    +0.148 C 
ATOM     12  C   UNL     1      35.508 -19.888 -20.431  0.00  0.00    +0.032 C 
ATOM     13  C   UNL     1      35.716 -21.082 -19.740  0.00  0.00    +0.040 C 
ATOM     14  C   UNL     1      33.329 -21.449 -19.659  0.00  0.00    +0.038 C 
ATOM     15  C   UNL     1      34.212 -19.475 -20.737  0.00  0.00    +0.003 C 
ATOM     16  C   UNL     1      33.122 -20.256 -20.351  0.00  0.00    +0.003 C 
BRANCH  12  19
ATOM     17  N   UNL     1      37.547 -18.682 -19.925  0.00  0.00    -0.387 N 
ATOM     18  N   UNL     1      36.791 -18.709 -22.114  0.00  0.00    -0.345 N 
ATOM     19  C   UNL     1      36.637 -19.079 -20.831  0.00  0.00    +0.096 C 
ATOM     20  H   UNL     1      38.313 -18.131 -20.204  0.00  0.00    +0.157 HD
ATOM     21  H   UNL     1      37.448 -18.944 -18.980  0.00  0.00    +0.157 HD
ATOM     22  H   UNL     1      37.562 -18.157 -22.379  0.00  0.00    +0.144 HD
ATOM     23  H   UNL     1      36.132 -18.990 -22.789  0.00  0.00    +0.144 HD
ENDBRANCH  12  19
ENDBRANCH  10  11
ENDBRANCH   5  10
BRANCH   6  24
ATOM     24  O   UNL     1      36.566 -22.512 -14.408  0.00  0.00    -0.426 OA
BRANCH  24  25
ATOM     25  C   UNL     1      37.155 -23.574 -13.796  0.00  0.00    +0.148 C 
ATOM     26  C   UNL     1      38.838 -25.308 -13.775  0.00  0.00    +0.034 C 
ATOM     27  C   UNL     1      38.235 -24.218 -14.401  0.00  0.00    +0.040 C 
ATOM     28  C   UNL     1      36.677 -24.023 -12.565  0.00  0.00    +0.038 C 
ATOM     29  C   UNL     1      38.360 -25.757 -12.543  0.00  0.00    +0.003 C 
ATOM     30  C   UNL     1      37.280 -25.113 -11.938  0.00  0.00    +0.003 C 
BRANCH  26  33
ATOM     31  N   UNL     1      40.825 -26.793 -13.673  0.00  0.00    -0.343 N 
ATOM     32  N   UNL     1      40.189 -25.815 -15.697  0.00  0.00    -0.285 NA
ATOM     33  C   UNL     1      39.964 -25.978 -14.406  0.00  0.00    +0.117 C 
ATOM     34  H   UNL     1      41.582 -27.237 -14.119  0.00  0.00    +0.144 HD
ATOM     35  H   UNL     1      40.677 -26.925 -12.708  0.00  0.00    +0.144 HD
ATOM     36  H   UNL     1      40.950 -26.268 -16.125  0.00  0.00    +0.188 HD
ENDBRANCH  26  33
ENDBRANCH  24  25
ENDBRANCH   6  24
TORSDOF 6
ENDMDL
MODEL 2
REMARK VINA RESULT:     -11.2      2.705      5.152
REMARK  Name = 4470378
REMARK  6 active torsions:
REMARK  status: ('A' for Active; 'I' for Inactive)
REMARK    1  A    between atoms: C_5  and  O_10
REMARK    2  A    between atoms: C_6  and  O_24
REMARK    3  A    between atoms: O_10  and  C_11
REMARK    4  A    between atoms: C_12  and  C_19
REMARK    5  A    between atoms: O_24  and  C_25
REMARK    6  A    between atoms: C_26  and  C_33
REMARK                            x       y       z     vdW  Elec       q    Type
REMARK                         _______ _______ _______ _____ _____    ______ ____
ROOT
ATOM      1  F   UNL     1      33.780 -22.748 -19.322  0.00  0.00    -0.221 F 
ATOM      2  F   UNL     1      37.624 -21.002 -17.138  0.00  0.00    -0.199 F 
ATOM      3  N   UNL     1      34.923 -23.080 -15.895  0.00  0.00    -0.331 NA
ATOM      4  C   UNL     1      35.718 -21.851 -18.276  0.00  0.00    +0.031 C 
ATOM      5  C   UNL     1      34.197 -23.189 -17.030  0.00  0.00    +0.298 C 
ATOM      6  C   UNL     1      36.046 -22.345 -15.986  0.00  0.00    +0.312 C 
ATOM      7  C   UNL     1      34.547 -22.600 -18.234  0.00  0.00    +0.270 C 
ATOM      8  C   UNL     1      36.492 -21.715 -17.128  0.00  0.00    +0.201 C 
ATOM      9  C   UNL     1      36.141 -21.194 -19.546  0.00  0.00    +0.032 C 
ENDROOT
BRANCH   5  10
ATOM     10  O   UNL     1      33.047 -23.931 -16.962  0.00  0.00    -0.428 OA
BRANCH  10  11
ATOM     11  C   UNL     1      32.102 -23.554 -16.031  0.00  0.00    +0.148 C 
ATOM     12  C   UNL     1      29.831 -23.003 -15.486  0.00  0.00    +0.032 C 
ATOM     13  C   UNL     1      30.786 -23.385 -16.429  0.00  0.00    +0.040 C 
ATOM     14  C   UNL     1      32.489 -23.352 -14.716  0.00  0.00    +0.038 C 
ATOM     15  C   UNL     1      30.205 -22.796 -14.159  0.00  0.00    +0.003 C 
ATOM     16  C   UNL     1      31.535 -22.970 -13.773  0.00  0.00    +0.003 C 
BRANCH  12  19
ATOM     17  N   UNL     1      27.540 -22.382 -15.003  0.00  0.00    -0.387 N 
ATOM     18  N   UNL     1      28.067 -23.094 -17.143  0.00  0.00    -0.345 N 
ATOM     19  C   UNL     1      28.454 -22.822 -15.886  0.00  0.00    +0.096 C 
ATOM     20  H   UNL     1      26.604 -22.261 -15.282  0.00  0.00    +0.157 HD
ATOM     21  H   UNL     1      27.808 -22.179 -14.077  0.00  0.00    +0.157 HD
ATOM     22  H   UNL     1      27.127 -22.970 -17.408  0.00  0.00    +0.144 HD
ATOM     23  H   UNL     1      28.724 -23.419 -17.801  0.00  0.00    +0.144 HD
ENDBRANCH  12  19
ENDBRANCH  10  11
ENDBRANCH   5  10
BRANCH   6  24
ATOM     24  O   UNL     1      36.797 -22.226 -14.829  0.00  0.00    -0.426 OA
BRANCH  24  25
ATOM     25  C   UNL     1      37.186 -23.371 -14.206  0.00  0.00    +0.148 C 
ATOM     26  C   UNL     1      38.718 -25.229 -14.009  0.00  0.00    +0.034 C 
ATOM     27  C   UNL     1      38.320 -24.054 -14.647  0.00  0.00    +0.040 C 
ATOM     28  C   UNL     1      36.450 -23.864 -13.129  0.00  0.00    +0.038 C 
ATOM     29  C   UNL     1      37.982 -25.723 -12.932  0.00  0.00    +0.003 C 
ATOM     30  C   UNL     1      36.848 -25.039 -12.492  0.00  0.00    +0.003 C 
BRANCH  26  33
ATOM     31  N   UNL     1      40.683 -26.688 -13.590  0.00  0.00    -0.343 N 
ATOM     32  N   UNL     1      40.253 -25.881 -15.740  0.00  0.00    -0.285 NA
ATOM     33  C   UNL     1      39.901 -25.941 -14.469  0.00  0.00    +0.117 C 
ATOM     34  H   UNL     1      41.479 -27.162 -13.922  0.00  0.00    +0.144 HD
ATOM     35  H   UNL     1      40.440 -26.743 -12.637  0.00  0.00    +0.144 HD
ATOM     36  H   UNL     1      41.052 -26.363 -16.052  0.00  0.00    +0.188 HD
ENDBRANCH  26  33
ENDBRANCH  24  25
ENDBRANCH   6  24
TORSDOF 6
ENDMDL
MODEL 3
REMARK VINA RESULT:     -11.1      3.285      5.644
REMARK  Name = 4470378
REMARK  6 active torsions:
REMARK  status: ('A' for Active; 'I' for Inactive)
REMARK    1  A    between atoms: C_5  and  O_10
REMARK    2  A    between atoms: C_6  and  O_24
REMARK    3  A    between atoms: O_10  and  C_11
REMARK    4  A    between atoms: C_12  and  C_19
REMARK    5  A    between atoms: O_24  and  C_25
REMARK    6  A    between atoms: C_26  and  C_33
REMARK                            x       y       z     vdW  Elec       q    Type
REMARK                         _______ _______ _______ _____ _____    ______ ____
ROOT
ATOM      1  F   UNL     1      33.473 -22.525 -19.255  0.00  0.00    -0.221 F 
ATOM      2  F   UNL     1      37.561 -21.032 -17.343  0.00  0.00    -0.199 F 
ATOM      3  N   UNL     1      34.978 -23.213 -16.026  0.00  0.00    -0.331 NA
ATOM      4  C   UNL     1      35.528 -21.750 -18.344  0.00  0.00    +0.031 C 
ATOM      5  C   UNL     1      34.130 -23.201 -17.080  0.00  0.00    +0.298 C 
ATOM      6  C   UNL     1      36.096 -22.479 -16.166  0.00  0.00    +0.312 C 
ATOM      7  C   UNL     1      34.356 -22.493 -18.250  0.00  0.00    +0.270 C 
ATOM      8  C   UNL     1      36.425 -21.737 -17.281  0.00  0.00    +0.201 C 
ATOM      9  C   UNL     1      35.821 -20.968 -19.579  0.00  0.00    +0.032 C 
ENDROOT
BRANCH   5  10
ATOM     10  O   UNL     1      32.983 -23.940 -16.962  0.00  0.00    -0.428 OA
BRANCH  10  11
ATOM     11  C   UNL     1      32.045 -23.514 -16.044  0.00  0.00    +0.148 C 
ATOM     12  C   UNL     1      29.777 -22.939 -15.513  0.00  0.00    +0.032 C 
ATOM     13  C   UNL     1      30.725 -23.371 -16.441  0.00  0.00    +0.040 C 
ATOM     14  C   UNL     1      32.442 -23.236 -14.747  0.00  0.00    +0.038 C 
ATOM     15  C   UNL     1      30.162 -22.656 -14.202  0.00  0.00    +0.003 C 
ATOM     16  C   UNL     1      31.495 -22.804 -13.819  0.00  0.00    +0.003 C 
BRANCH  12  19
ATOM     17  N   UNL     1      27.477 -22.354 -15.028  0.00  0.00    -0.387 N 
ATOM     18  N   UNL     1      28.011 -23.071 -17.165  0.00  0.00    -0.345 N 
ATOM     19  C   UNL     1      28.395 -22.784 -15.910  0.00  0.00    +0.096 C 
ATOM     20  H   UNL     1      26.538 -22.252 -15.305  0.00  0.00    +0.157 HD
ATOM     21  H   UNL     1      27.743 -22.141 -14.103  0.00  0.00    +0.157 HD
ATOM     22  H   UNL     1      27.068 -22.964 -17.427  0.00  0.00    +0.144 HD
ATOM     23  H   UNL     1      28.672 -23.388 -17.822  0.00  0.00    +0.144 HD
ENDBRANCH  12  19
ENDBRANCH  10  11
ENDBRANCH   5  10
BRANCH   6  24
ATOM     24  O   UNL     1      36.971 -22.482 -15.093  0.00  0.00    -0.426 OA
BRANCH  24  25
ATOM     25  C   UNL     1      36.957 -23.565 -14.269  0.00  0.00    +0.148 C 
ATOM     26  C   UNL     1      36.536 -24.538 -12.098  0.00  0.00    +0.034 C 
ATOM     27  C   UNL     1      36.549 -23.428 -12.942  0.00  0.00    +0.040 C 
ATOM     28  C   UNL     1      37.352 -24.813 -14.751  0.00  0.00    +0.038 C 
ATOM     29  C   UNL     1      36.931 -25.785 -12.579  0.00  0.00    +0.003 C 
ATOM     30  C   UNL     1      37.339 -25.923 -13.906  0.00  0.00    +0.003 C 
BRANCH  26  33
ATOM     31  N   UNL     1      36.664 -23.421  -9.884  0.00  0.00    -0.343 N 
ATOM     32  N   UNL     1      35.186 -25.199 -10.222  0.00  0.00    -0.285 NA
ATOM     33  C   UNL     1      36.110 -24.394 -10.714  0.00  0.00    +0.117 C 
ATOM     34  H   UNL     1      36.362 -23.341  -8.951  0.00  0.00    +0.144 HD
ATOM     35  H   UNL     1      37.357 -22.813 -10.230  0.00  0.00    +0.144 HD
ATOM     36  H   UNL     1      34.897 -25.102  -9.286  0.00  0.00    +0.188 HD
ENDBRANCH  26  33
ENDBRANCH  24  25
ENDBRANCH   6  24
TORSDOF 6
ENDMDL
MODEL 4
REMARK VINA RESULT:     -11.0      0.505      7.633
REMARK  Name = 4470378
REMARK  6 active torsions:
REMARK  status: ('A' for Active; 'I' for Inactive)
REMARK    1  A    between atoms: C_5  and  O_10
REMARK    2  A    between atoms: C_6  and  O_24
REMARK    3  A    between atoms: O_10  and  C_11
REMARK    4  A    between atoms: C_12  and  C_19
REMARK    5  A    between atoms: O_24  and  C_25
REMARK    6  A    between atoms: C_26  and  C_33
REMARK                            x       y       z     vdW  Elec       q    Type
REMARK                         _______ _______ _______ _____ _____    ______ ____
ROOT
ATOM      1  F   UNL     1      33.274 -23.086 -13.223  0.00  0.00    -0.221 F 
ATOM      2  F   UNL     1      32.152 -23.473 -17.825  0.00  0.00    -0.199 F 
ATOM      3  N   UNL     1      35.339 -22.871 -16.199  0.00  0.00    -0.331 NA
ATOM      4  C   UNL     1      32.661 -23.287 -15.511  0.00  0.00    +0.031 C 
ATOM      5  C   UNL     1      34.927 -22.884 -14.910  0.00  0.00    +0.298 C 
ATOM      6  C   UNL     1      34.380 -23.070 -17.121  0.00  0.00    +0.312 C 
ATOM      7  C   UNL     1      33.614 -23.086 -14.517  0.00  0.00    +0.270 C 
ATOM      8  C   UNL     1      33.046 -23.281 -16.847  0.00  0.00    +0.201 C 
ATOM      9  C   UNL     1      31.233 -23.508 -15.144  0.00  0.00    +0.032 C 
ENDROOT
BRANCH   5  10
ATOM     10  O   UNL     1      35.884 -22.682 -13.952  0.00  0.00    -0.428 OA
BRANCH  10  11
ATOM     11  C   UNL     1      36.552 -23.792 -13.477  0.00  0.00    +0.148 C 
ATOM     12  C   UNL     1      38.410 -25.305 -13.602  0.00  0.00    +0.032 C 
ATOM     13  C   UNL     1      37.736 -24.181 -14.082  0.00  0.00    +0.040 C 
ATOM     14  C   UNL     1      36.023 -24.495 -12.407  0.00  0.00    +0.038 C 
ATOM     15  C   UNL     1      37.891 -26.022 -12.525  0.00  0.00    +0.003 C 
ATOM     16  C   UNL     1      36.697 -25.618 -11.927  0.00  0.00    +0.003 C 
BRANCH  12  19
ATOM     17  N   UNL     1      40.493 -26.540 -13.569  0.00  0.00    -0.387 N 
ATOM     18  N   UNL     1      39.969 -25.303 -15.456  0.00  0.00    -0.345 N 
ATOM     19  C   UNL     1      39.647 -25.724 -14.221  0.00  0.00    +0.096 C 
ATOM     20  H   UNL     1      41.334 -26.821 -13.997  0.00  0.00    +0.157 HD
ATOM     21  H   UNL     1      40.272 -26.857 -12.663  0.00  0.00    +0.157 HD
ATOM     22  H   UNL     1      40.814 -25.592 -15.871  0.00  0.00    +0.144 HD
ATOM     23  H   UNL     1      39.360 -24.704 -15.945  0.00  0.00    +0.144 HD
ENDBRANCH  12  19
ENDBRANCH  10  11
ENDBRANCH   5  10
BRANCH   6  24
ATOM     24  O   UNL     1      34.790 -23.057 -18.444  0.00  0.00    -0.426 OA
BRANCH  24  25
ATOM     25  C   UNL     1      34.540 -21.936 -19.172  0.00  0.00    +0.148 C 
ATOM     26  C   UNL     1      35.342 -19.997 -20.372  0.00  0.00    +0.034 C 
ATOM     27  C   UNL     1      35.598 -21.148 -19.626  0.00  0.00    +0.040 C 
ATOM     28  C   UNL     1      33.225 -21.572 -19.464  0.00  0.00    +0.038 C 
ATOM     29  C   UNL     1      34.027 -19.633 -20.663  0.00  0.00    +0.003 C 
ATOM     30  C   UNL     1      32.969 -20.421 -20.210  0.00  0.00    +0.003 C 
BRANCH  26  33
ATOM     31  N   UNL     1      36.492 -18.711 -22.157  0.00  0.00    -0.343 N 
ATOM     32  N   UNL     1      37.432 -18.863 -20.023  0.00  0.00    -0.285 NA
ATOM     33  C   UNL     1      36.446 -19.176 -20.844  0.00  0.00    +0.117 C 
ATOM     34  H   UNL     1      37.248 -18.157 -22.457  0.00  0.00    +0.144 HD
ATOM     35  H   UNL     1      35.768 -18.937 -22.786  0.00  0.00    +0.144 HD
ATOM     36  H   UNL     1      38.179 -18.307 -20.342  0.00  0.00    +0.188 HD
ENDBRANCH  26  33
ENDBRANCH  24  25
ENDBRANCH   6  24
TORSDOF 6
ENDMDL
MODEL 5
REMARK VINA RESULT:     -10.9      5.929      9.404
REMARK  Name = 4470378
REMARK  6 active torsions:
REMARK  status: ('A' for Active; 'I' for Inactive)
REMARK    1  A    between atoms: C_5  and  O_10
REMARK    2  A    between atoms: C_6  and  O_24
REMARK    3  A    between atoms: O_10  and  C_11
REMARK    4  A    between atoms: C_12  and  C_19
REMARK    5  A    between atoms: O_24  and  C_25
REMARK    6  A    between atoms: C_26  and  C_33
REMARK                            x       y       z     vdW  Elec       q    Type
REMARK                         _______ _______ _______ _____ _____    ______ ____
ROOT
ATOM      1  F   UNL     1      33.148 -14.704 -24.712  0.00  0.00    -0.221 F 
ATOM      2  F   UNL     1      33.835 -19.401 -24.471  0.00  0.00    -0.199 F 
ATOM      3  N   UNL     1      35.231 -16.691 -22.504  0.00  0.00    -0.331 NA
ATOM      4  C   UNL     1      33.457 -17.060 -24.633  0.00  0.00    +0.031 C 
ATOM      5  C   UNL     1      34.612 -15.650 -23.105  0.00  0.00    +0.298 C 
ATOM      6  C   UNL     1      34.939 -17.909 -22.995  0.00  0.00    +0.312 C 
ATOM      7  C   UNL     1      33.726 -15.779 -24.162  0.00  0.00    +0.270 C 
ATOM      8  C   UNL     1      34.075 -18.157 -24.040  0.00  0.00    +0.201 C 
ATOM      9  C   UNL     1      32.512 -17.257 -25.769  0.00  0.00    +0.032 C 
ENDROOT
BRANCH   5  10
ATOM     10  O   UNL     1      34.894 -14.399 -22.623  0.00  0.00    -0.428 OA
BRANCH  10  11
ATOM     11  C   UNL     1      33.886 -13.733 -21.956  0.00  0.00    +0.148 C 
ATOM     12  C   UNL     1      32.477 -11.806 -21.720  0.00  0.00    +0.032 C 
ATOM     13  C   UNL     1      33.496 -12.479 -22.396  0.00  0.00    +0.040 C 
ATOM     14  C   UNL     1      33.286 -14.333 -20.861  0.00  0.00    +0.038 C 
ATOM     15  C   UNL     1      31.863 -12.397 -20.616  0.00  0.00    +0.003 C 
ATOM     16  C   UNL     1      32.268 -13.661 -20.186  0.00  0.00    +0.003 C 
BRANCH  12  19
ATOM     17  N   UNL     1      32.838  -9.773 -22.986  0.00  0.00    -0.387 N 
ATOM     18  N   UNL     1      30.883  -9.983 -21.762  0.00  0.00    -0.345 N 
ATOM     19  C   UNL     1      32.058 -10.496 -22.165  0.00  0.00    +0.096 C 
ATOM     20  H   UNL     1      32.546  -8.881 -23.285  0.00  0.00    +0.157 HD
ATOM     21  H   UNL     1      33.703 -10.135 -23.290  0.00  0.00    +0.157 HD
ATOM     22  H   UNL     1      30.604  -9.089 -22.069  0.00  0.00    +0.144 HD
ATOM     23  H   UNL     1      30.301 -10.500 -21.159  0.00  0.00    +0.144 HD
ENDBRANCH  12  19
ENDBRANCH  10  11
ENDBRANCH   5  10
BRANCH   6  24
ATOM     24  O   UNL     1      35.568 -18.983 -22.389  0.00  0.00    -0.426 OA
BRANCH  24  25
ATOM     25  C   UNL     1      34.875 -19.668 -21.439  0.00  0.00    +0.148 C 
ATOM     26  C   UNL     1      34.848 -21.053 -19.459  0.00  0.00    +0.034 C 
ATOM     27  C   UNL     1      35.559 -20.350 -20.432  0.00  0.00    +0.040 C 
ATOM     28  C   UNL     1      33.481 -19.691 -21.474  0.00  0.00    +0.038 C 
ATOM     29  C   UNL     1      33.454 -21.076 -19.494  0.00  0.00    +0.003 C 
ATOM     30  C   UNL     1      32.770 -20.394 -20.501  0.00  0.00    +0.003 C 
BRANCH  26  33
ATOM     31  N   UNL     1      36.835 -21.368 -18.003  0.00  0.00    -0.343 N 
ATOM     32  N   UNL     1      35.004 -22.809 -17.826  0.00  0.00    -0.285 NA
ATOM     33  C   UNL     1      35.561 -21.764 -18.409  0.00  0.00    +0.117 C 
ATOM     34  H   UNL     1      37.300 -21.863 -17.291  0.00  0.00    +0.144 HD
ATOM     35  H   UNL     1      37.269 -20.593 -18.428  0.00  0.00    +0.144 HD
ATOM     36  H   UNL     1      35.485 -23.291 -17.115  0.00  0.00    +0.188 HD
ENDBRANCH  26  33
ENDBRANCH  24  25
ENDBRANCH   6  24
TORSDOF 6
ENDMDL
MODEL 6
REMARK VINA RESULT:     -10.8      8.234     11.818
REMARK  Name = 4470378
REMARK  6 active torsions:
REMARK  status: ('A' for Active; 'I' for Inactive)
REMARK    1  A    between atoms: C_5  and  O_10
REMARK    2  A    between atoms: C_6  and  O_24
REMARK    3  A    between atoms: O_10  and  C_11
REMARK    4  A    between atoms: C_12  and  C_19
REMARK    5  A    between atoms: O_24  and  C_25
REMARK    6  A    between atoms: C_26  and  C_33
REMARK                            x       y       z     vdW  Elec       q    Type
REMARK                         _______ _______ _______ _____ _____    ______ ____
ROOT
ATOM      1  F   UNL     1      31.564 -11.703 -21.580  0.00  0.00    -0.221 F 
ATOM      2  F   UNL     1      34.090 -15.542 -20.369  0.00  0.00    -0.199 F 
ATOM      3  N   UNL     1      34.208 -13.460 -23.337  0.00  0.00    -0.331 NA
ATOM      4  C   UNL     1      32.800 -13.626 -20.928  0.00  0.00    +0.031 C 
ATOM      5  C   UNL     1      33.238 -12.574 -23.015  0.00  0.00    +0.298 C 
ATOM      6  C   UNL     1      34.448 -14.421 -22.427  0.00  0.00    +0.312 C 
ATOM      7  C   UNL     1      32.512 -12.612 -21.835  0.00  0.00    +0.270 C 
ATOM      8  C   UNL     1      33.791 -14.557 -21.224  0.00  0.00    +0.201 C 
ATOM      9  C   UNL     1      32.048 -13.716 -19.643  0.00  0.00    +0.032 C 
ENDROOT
BRANCH   5  10
ATOM     10  O   UNL     1      32.973 -11.586 -23.926  0.00  0.00    -0.428 OA
BRANCH  10  11
ATOM     11  C   UNL     1      33.608 -10.373 -23.751  0.00  0.00    +0.148 C 
ATOM     12  C   UNL     1      33.637  -8.164 -22.814  0.00  0.00    +0.032 C 
ATOM     13  C   UNL     1      32.995  -9.391 -22.990  0.00  0.00    +0.040 C 
ATOM     14  C   UNL     1      34.844 -10.164 -24.339  0.00  0.00    +0.038 C 
ATOM     15  C   UNL     1      34.883  -7.939 -23.400  0.00  0.00    +0.003 C 
ATOM     16  C   UNL     1      35.486  -8.938 -24.163  0.00  0.00    +0.003 C 
BRANCH  12  19
ATOM     17  N   UNL     1      32.602  -5.985 -22.599  0.00  0.00    -0.387 N 
ATOM     18  N   UNL     1      32.834  -7.293 -20.702  0.00  0.00    -0.345 N 
ATOM     19  C   UNL     1      33.012  -7.128 -22.023  0.00  0.00    +0.096 C 
ATOM     20  H   UNL     1      32.177  -5.284 -22.054  0.00  0.00    +0.157 HD
ATOM     21  H   UNL     1      32.726  -5.849 -23.567  0.00  0.00    +0.157 HD
ATOM     22  H   UNL     1      32.408  -6.582 -20.170  0.00  0.00    +0.144 HD
ATOM     23  H   UNL     1      33.131  -8.124 -20.265  0.00  0.00    +0.144 HD
ENDBRANCH  12  19
ENDBRANCH  10  11
ENDBRANCH   5  10
BRANCH   6  24
ATOM     24  O   UNL     1      35.438 -15.335 -22.747  0.00  0.00    -0.426 OA
BRANCH  24  25
ATOM     25  C   UNL     1      35.081 -16.644 -22.849  0.00  0.00    +0.148 C 
ATOM     26  C   UNL     1      34.939 -18.855 -21.886  0.00  0.00    +0.034 C 
ATOM     27  C   UNL     1      35.304 -17.513 -21.781  0.00  0.00    +0.040 C 
ATOM     28  C   UNL     1      34.493 -17.117 -24.022  0.00  0.00    +0.038 C 
ATOM     29  C   UNL     1      34.352 -19.329 -23.059  0.00  0.00    +0.003 C 
ATOM     30  C   UNL     1      34.128 -18.459 -24.127  0.00  0.00    +0.003 C 
BRANCH  26  33
ATOM     31  N   UNL     1      34.142 -20.532 -20.238  0.00  0.00    -0.343 N 
ATOM     32  N   UNL     1      36.380 -19.860 -20.245  0.00  0.00    -0.285 NA
ATOM     33  C   UNL     1      35.172 -19.762 -20.773  0.00  0.00    +0.117 C 
ATOM     34  H   UNL     1      34.321 -21.139 -19.485  0.00  0.00    +0.144 HD
ATOM     35  H   UNL     1      33.234 -20.471 -20.615  0.00  0.00    +0.144 HD
ATOM     36  H   UNL     1      36.538 -20.473 -19.492  0.00  0.00    +0.188 HD
ENDBRANCH  26  33
ENDBRANCH  24  25
ENDBRANCH   6  24
TORSDOF 6
ENDMDL
MODEL 7
REMARK VINA RESULT:     -10.8      8.219     13.489
REMARK  Name = 4470378
REMARK  6 active torsions:
REMARK  status: ('A' for Active; 'I' for Inactive)
REMARK    1  A    between atoms: C_5  and  O_10
REMARK    2  A    between atoms: C_6  and  O_24
REMARK    3  A    between atoms: O_10  and  C_11
REMARK    4  A    between atoms: C_12  and  C_19
REMARK    5  A    between atoms: O_24  and  C_25
REMARK    6  A    between atoms: C_26  and  C_33
REMARK                            x       y       z     vdW  Elec       q    Type
REMARK                         _______ _______ _______ _____ _____    ______ ____
ROOT
ATOM      1  F   UNL     1      34.071 -15.530 -20.264  0.00  0.00    -0.221 F 
ATOM      2  F   UNL     1      31.564 -11.728 -21.626  0.00  0.00    -0.199 F 
ATOM      3  N   UNL     1      34.253 -13.518 -23.278  0.00  0.00    -0.331 NA
ATOM      4  C   UNL     1      32.789 -13.631 -20.899  0.00  0.00    +0.031 C 
ATOM      5  C   UNL     1      34.485 -14.466 -22.342  0.00  0.00    +0.298 C 
ATOM      6  C   UNL     1      33.277 -12.638 -22.990  0.00  0.00    +0.312 C 
ATOM      7  C   UNL     1      33.789 -14.565 -21.149  0.00  0.00    +0.270 C 
ATOM      8  C   UNL     1      32.521 -12.640 -21.838  0.00  0.00    +0.201 C 
ATOM      9  C   UNL     1      32.009 -13.690 -19.630  0.00  0.00    +0.032 C 
ENDROOT
BRANCH   5  10
ATOM     10  O   UNL     1      35.475 -15.374 -22.611  0.00  0.00    -0.428 OA
BRANCH  10  11
ATOM     11  C   UNL     1      35.106 -16.697 -22.740  0.00  0.00    +0.148 C 
ATOM     12  C   UNL     1      34.934 -18.902 -21.811  0.00  0.00    +0.032 C 
ATOM     13  C   UNL     1      35.307 -17.564 -21.679  0.00  0.00    +0.040 C 
ATOM     14  C   UNL     1      34.541 -17.130 -23.929  0.00  0.00    +0.038 C 
ATOM     15  C   UNL     1      34.365 -19.354 -23.001  0.00  0.00    +0.003 C 
ATOM     16  C   UNL     1      34.169 -18.468 -24.061  0.00  0.00    +0.003 C 
BRANCH  12  19
ATOM     17  N   UNL     1      36.354 -19.963 -20.160  0.00  0.00    -0.387 N 
ATOM     18  N   UNL     1      34.114 -20.546 -20.232  0.00  0.00    -0.345 N 
ATOM     19  C   UNL     1      35.138 -19.820 -20.713  0.00  0.00    +0.096 C 
ATOM     20  H   UNL     1      36.485 -20.590 -19.413  0.00  0.00    +0.157 HD
ATOM     21  H   UNL     1      37.115 -19.439 -20.502  0.00  0.00    +0.157 HD
ATOM     22  H   UNL     1      34.260 -21.170 -19.485  0.00  0.00    +0.144 HD
ATOM     23  H   UNL     1      33.217 -20.453 -20.628  0.00  0.00    +0.144 HD
ENDBRANCH  12  19
ENDBRANCH  10  11
ENDBRANCH   5  10
BRANCH   6  24
ATOM     24  O   UNL     1      33.031 -11.662 -23.941  0.00  0.00    -0.426 OA
BRANCH  24  25
ATOM     25  C   UNL     1      33.579 -10.432 -23.741  0.00  0.00    +0.148 C 
ATOM     26  C   UNL     1      33.429  -8.197 -22.836  0.00  0.00    +0.034 C 
ATOM     27  C   UNL     1      32.868  -9.457 -23.040  0.00  0.00    +0.040 C 
ATOM     28  C   UNL     1      34.850 -10.146 -24.238  0.00  0.00    +0.038 C 
ATOM     29  C   UNL     1      34.700  -7.910 -23.333  0.00  0.00    +0.003 C 
ATOM     30  C   UNL     1      35.411  -8.885 -24.033  0.00  0.00    +0.003 C 
BRANCH  26  33
ATOM     31  N   UNL     1      32.021  -7.483 -20.919  0.00  0.00    -0.343 N 
ATOM     32  N   UNL     1      32.634  -5.945 -22.568  0.00  0.00    -0.285 NA
ATOM     33  C   UNL     1      32.688  -7.181 -22.105  0.00  0.00    +0.117 C 
ATOM     34  H   UNL     1      31.525  -6.780 -20.441  0.00  0.00    +0.144 HD
ATOM     35  H   UNL     1      32.046  -8.399 -20.559  0.00  0.00    +0.144 HD
ATOM     36  H   UNL     1      32.132  -5.256 -22.075  0.00  0.00    +0.188 HD
ENDBRANCH  26  33
ENDBRANCH  24  25
ENDBRANCH   6  24
TORSDOF 6
ENDMDL
MODEL 8
REMARK VINA RESULT:     -10.7      1.576      2.344
REMARK  Name = 4470378
REMARK  6 active torsions:
REMARK  status: ('A' for Active; 'I' for Inactive)
REMARK    1  A    between atoms: C_5  and  O_10
REMARK    2  A    between atoms: C_6  and  O_24
REMARK    3  A    between atoms: O_10  and  C_11
REMARK    4  A    between atoms: C_12  and  C_19
REMARK    5  A    between atoms: O_24  and  C_25
REMARK    6  A    between atoms: C_26  and  C_33
REMARK                            x       y       z     vdW  Elec       q    Type
REMARK                         _______ _______ _______ _____ _____    ______ ____
ROOT
ATOM      1  F   UNL     1      30.614 -22.359 -17.157  0.00  0.00    -0.221 F 
ATOM      2  F   UNL     1      32.348 -23.767 -12.961  0.00  0.00    -0.199 F 
ATOM      3  N   UNL     1      33.819 -23.816 -16.277  0.00  0.00    -0.331 NA
ATOM      4  C   UNL     1      31.435 -23.049 -15.035  0.00  0.00    +0.031 C 
ATOM      5  C   UNL     1      32.792 -23.279 -16.975  0.00  0.00    +0.298 C 
ATOM      6  C   UNL     1      33.618 -23.955 -14.955  0.00  0.00    +0.312 C 
ATOM      7  C   UNL     1      31.591 -22.883 -16.407  0.00  0.00    +0.270 C 
ATOM      8  C   UNL     1      32.469 -23.597 -14.283  0.00  0.00    +0.201 C 
ATOM      9  C   UNL     1      30.163 -22.641 -14.372  0.00  0.00    +0.032 C 
ENDROOT
BRANCH   5  10
ATOM     10  O   UNL     1      32.970 -23.128 -18.324  0.00  0.00    -0.428 OA
BRANCH  10  11
ATOM     11  C   UNL     1      34.002 -22.311 -18.741  0.00  0.00    +0.148 C 
ATOM     12  C   UNL     1      34.779 -20.457 -20.051  0.00  0.00    +0.032 C 
ATOM     13  C   UNL     1      33.736 -21.283 -19.629  0.00  0.00    +0.040 C 
ATOM     14  C   UNL     1      35.281 -22.537 -18.261  0.00  0.00    +0.038 C 
ATOM     15  C   UNL     1      36.073 -20.672 -19.577  0.00  0.00    +0.003 C 
ATOM     16  C   UNL     1      36.325 -21.713 -18.682  0.00  0.00    +0.003 C 
BRANCH  12  19
ATOM     17  N   UNL     1      33.631 -19.537 -21.975  0.00  0.00    -0.387 N 
ATOM     18  N   UNL     1      35.163 -18.207 -20.858  0.00  0.00    -0.345 N 
ATOM     19  C   UNL     1      34.519 -19.380 -20.978  0.00  0.00    +0.096 C 
ATOM     20  H   UNL     1      33.459 -18.799 -22.603  0.00  0.00    +0.157 HD
ATOM     21  H   UNL     1      33.152 -20.392 -22.077  0.00  0.00    +0.157 HD
ATOM     22  H   UNL     1      34.981 -17.477 -21.494  0.00  0.00    +0.144 HD
ATOM     23  H   UNL     1      35.818 -18.076 -20.134  0.00  0.00    +0.144 HD
ENDBRANCH  12  19
ENDBRANCH  10  11
ENDBRANCH   5  10
BRANCH   6  24
ATOM     24  O   UNL     1      34.663 -24.505 -14.230  0.00  0.00    -0.426 OA
BRANCH  24  25
ATOM     25  C   UNL     1      35.929 -24.148 -14.576  0.00  0.00    +0.148 C 
ATOM     26  C   UNL     1      38.278 -24.683 -14.760  0.00  0.00    +0.034 C 
ATOM     27  C   UNL     1      36.980 -25.050 -14.407  0.00  0.00    +0.040 C 
ATOM     28  C   UNL     1      36.178 -22.879 -15.099  0.00  0.00    +0.038 C 
ATOM     29  C   UNL     1      38.527 -23.414 -15.283  0.00  0.00    +0.003 C 
ATOM     30  C   UNL     1      37.476 -22.512 -15.452  0.00  0.00    +0.003 C 
BRANCH  26  33
ATOM     31  N   UNL     1      39.501 -26.376 -13.417  0.00  0.00    -0.343 N 
ATOM     32  N   UNL     1      40.274 -25.773 -15.538  0.00  0.00    -0.285 NA
ATOM     33  C   UNL     1      39.373 -25.624 -14.584  0.00  0.00    +0.117 C 
ATOM     34  H   UNL     1      40.249 -27.007 -13.318  0.00  0.00    +0.144 HD
ATOM     35  H   UNL     1      38.841 -26.278 -12.692  0.00  0.00    +0.144 HD
ATOM     36  H   UNL     1      41.016 -26.409 -15.420  0.00  0.00    +0.188 HD
ENDBRANCH  26  33
ENDBRANCH  24  25
ENDBRANCH   6  24
TORSDOF 6
ENDMDL
MODEL 9
REMARK VINA RESULT:     -10.6      5.924     11.457
REMARK  Name = 4470378
REMARK  6 active torsions:
REMARK  status: ('A' for Active; 'I' for Inactive)
REMARK    1  A    between atoms: C_5  and  O_10
REMARK    2  A    between atoms: C_6  and  O_24
REMARK    3  A    between atoms: O_10  and  C_11
REMARK    4  A    between atoms: C_12  and  C_19
REMARK    5  A    between atoms: O_24  and  C_25
REMARK    6  A    between atoms: C_26  and  C_33
REMARK                            x       y       z     vdW  Elec       q    Type
REMARK                         _______ _______ _______ _____ _____    ______ ____
ROOT
ATOM      1  F   UNL     1      33.783 -19.377 -24.581  0.00  0.00    -0.221 F 
ATOM      2  F   UNL     1      33.170 -14.665 -24.684  0.00  0.00    -0.199 F 
ATOM      3  N   UNL     1      35.204 -16.750 -22.522  0.00  0.00    -0.331 NA
ATOM      4  C   UNL     1      33.442 -17.026 -24.674  0.00  0.00    +0.031 C 
ATOM      5  C   UNL     1      34.903 -17.960 -23.046  0.00  0.00    +0.298 C 
ATOM      6  C   UNL     1      34.603 -15.695 -23.101  0.00  0.00    +0.312 C 
ATOM      7  C   UNL     1      34.038 -18.150 -24.111  0.00  0.00    +0.270 C 
ATOM      8  C   UNL     1      33.727 -15.765 -24.162  0.00  0.00    +0.201 C 
ATOM      9  C   UNL     1      32.501 -17.173 -25.821  0.00  0.00    +0.032 C 
ENDROOT
BRANCH   5  10
ATOM     10  O   UNL     1      35.502 -19.050 -22.473  0.00  0.00    -0.428 OA
BRANCH  10  11
ATOM     11  C   UNL     1      34.804 -19.711 -21.483  0.00  0.00    +0.148 C 
ATOM     12  C   UNL     1      34.795 -21.028 -19.478  0.00  0.00    +0.032 C 
ATOM     13  C   UNL     1      35.502 -20.360 -20.478  0.00  0.00    +0.040 C 
ATOM     14  C   UNL     1      33.419 -19.711 -21.516  0.00  0.00    +0.038 C 
ATOM     15  C   UNL     1      33.401 -21.038 -19.497  0.00  0.00    +0.003 C 
ATOM     16  C   UNL     1      32.712 -20.380 -20.516  0.00  0.00    +0.003 C 
BRANCH  12  19
ATOM     17  N   UNL     1      34.903 -22.668 -17.698  0.00  0.00    -0.387 N 
ATOM     18  N   UNL     1      36.785 -21.395 -18.147  0.00  0.00    -0.345 N 
ATOM     19  C   UNL     1      35.509 -21.710 -18.422  0.00  0.00    +0.096 C 
ATOM     20  H   UNL     1      35.395 -23.128 -16.981  0.00  0.00    +0.157 HD
ATOM     21  H   UNL     1      33.967 -22.910 -17.887  0.00  0.00    +0.157 HD
ATOM     22  H   UNL     1      37.265 -21.863 -17.426  0.00  0.00    +0.144 HD
ATOM     23  H   UNL     1      37.242 -20.694 -18.667  0.00  0.00    +0.144 HD
ENDBRANCH  12  19
ENDBRANCH  10  11
ENDBRANCH   5  10
BRANCH   6  24
ATOM     24  O   UNL     1      34.903 -14.451 -22.571  0.00  0.00    -0.426 OA
BRANCH  24  25
ATOM     25  C   UNL     1      33.908 -13.782 -21.927  0.00  0.00    +0.148 C 
ATOM     26  C   UNL     1      32.499 -11.831 -21.709  0.00  0.00    +0.034 C 
ATOM     27  C   UNL     1      33.518 -12.518 -22.370  0.00  0.00    +0.040 C 
ATOM     28  C   UNL     1      33.281 -14.359 -20.823  0.00  0.00    +0.038 C 
ATOM     29  C   UNL     1      31.871 -12.408 -20.605  0.00  0.00    +0.003 C 
ATOM     30  C   UNL     1      32.262 -13.672 -20.162  0.00  0.00    +0.003 C 
BRANCH  26  33
ATOM     31  N   UNL     1      32.853  -9.804 -23.097  0.00  0.00    -0.343 N 
ATOM     32  N   UNL     1      30.984  -9.966 -21.705  0.00  0.00    -0.285 NA
ATOM     33  C   UNL     1      32.092 -10.513 -22.171  0.00  0.00    +0.117 C 
ATOM     34  H   UNL     1      32.560  -8.913 -23.396  0.00  0.00    +0.144 HD
ATOM     35  H   UNL     1      33.685 -10.193 -23.454  0.00  0.00    +0.144 HD
ATOM     36  H   UNL     1      30.707  -9.074 -22.017  0.00  0.00    +0.188 HD
ENDBRANCH  26  33
ENDBRANCH  24  25
ENDBRANCH   6  24
TORSDOF 6
ENDMDL
