MODEL 1
REMARK VINA RESULT:     -11.9      0.000      0.000
REMARK  Name = 24871491
REMARK  6 active torsions:
REMARK  status: ('A' for Active; 'I' for Inactive)
REMARK    1  A    between atoms: N_1  and  C_11
REMARK    2  A    between atoms: N_2  and  C_18
REMARK    3  A    between atoms: C_6  and  C_31
REMARK    4  A    between atoms: C_19  and  C_24
REMARK    5  A    between atoms: C_24  and  C_26
REMARK    6  A    between atoms: C_26  and  O_27
REMARK                            x       y       z     vdW  Elec       q    Type
REMARK                         _______ _______ _______ _____ _____    ______ ____
ROOT
ATOM      1  N   UNL     1      32.569 -23.310 -16.764  0.00  0.00    -0.287 N 
ATOM      2  N   UNL     1      34.035 -24.729 -12.514  0.00  0.00    -0.247 N 
ATOM      3  N   UNL     1      33.319 -24.025 -14.632  0.00  0.00    -0.322 NA
ATOM      4  N   UNL     1      31.752 -24.303 -12.823  0.00  0.00    -0.169 NA
ATOM      5  C   UNL     1      32.288 -23.649 -15.418  0.00  0.00    +0.202 C 
ATOM      6  C   UNL     1      30.980 -23.577 -14.984  0.00  0.00    +0.118 C 
ATOM      7  C   UNL     1      32.983 -24.334 -13.365  0.00  0.00    +0.150 C 
ATOM      8  C   UNL     1      30.768 -23.920 -13.664  0.00  0.00    +0.120 C 
ATOM      9  H   UNL     1      31.828 -23.497 -17.384  0.00  0.00    +0.155 HD
ATOM     10  H   UNL     1      33.744 -24.944 -11.599  0.00  0.00    +0.165 HD
ENDROOT
BRANCH   1  11
ATOM     11  C   UNL     1      33.701 -22.759 -17.386  0.00  0.00    +0.050 C 
ATOM     12  C   UNL     1      34.903 -22.659 -16.684  0.00  0.00    +0.010 C 
ATOM     13  C   UNL     1      36.027 -22.112 -17.303  0.00  0.00    -0.021 C 
ATOM     14  C   UNL     1      33.625 -22.314 -18.705  0.00  0.00    +0.015 C 
ATOM     15  C   UNL     1      35.951 -21.666 -18.622  0.00  0.00    -0.004 C 
ATOM     16  C   UNL     1      34.749 -21.766 -19.323  0.00  0.00    +0.001 C 
ATOM     17  C   UNL     1      37.312 -22.003 -16.553  0.00  0.00    +0.031 C 
ENDBRANCH   1  11
BRANCH   2  18
ATOM     18  C   UNL     1      35.423 -24.878 -12.717  0.00  0.00    +0.058 C 
ATOM     19  C   UNL     1      38.167 -25.172 -13.117  0.00  0.00    -0.011 C 
ATOM     20  C   UNL     1      36.323 -24.202 -11.895  0.00  0.00    +0.015 C 
ATOM     21  C   UNL     1      35.894 -25.701 -13.740  0.00  0.00    +0.015 C 
ATOM     22  C   UNL     1      37.696 -24.349 -12.095  0.00  0.00    -0.002 C 
ATOM     23  C   UNL     1      37.266 -25.848 -13.940  0.00  0.00    -0.002 C 
BRANCH  19  24
ATOM     24  C   UNL     1      39.635 -25.329 -13.331  0.00  0.00    +0.136 C 
BRANCH  24  26
ATOM     25  O   UNL     1      40.632 -26.169 -15.388  0.00  0.00    -0.250 OA
ATOM     26  C   UNL     1      40.042 -25.279 -14.790  0.00  0.00    +0.318 C 
BRANCH  26  27
ATOM     27  O   UNL     1      39.674 -24.110 -15.379  0.00  0.00    -0.480 OA
ATOM     28  H   UNL     1      40.241 -23.366 -15.338  0.00  0.00    +0.295 HD
ENDBRANCH  26  27
ENDBRANCH  24  26
ENDBRANCH  19  24
ENDBRANCH   2  18
BRANCH   6  31
ATOM     29  O   UNL     1      29.985 -22.257 -16.663  0.00  0.00    -0.270 OA
ATOM     30  N   UNL     1      28.667 -23.863 -15.692  0.00  0.00    -0.325 N 
ATOM     31  C   UNL     1      29.868 -23.174 -15.830  0.00  0.00    +0.248 C 
ATOM     32  H   UNL     1      27.892 -23.617 -16.247  0.00  0.00    +0.145 HD
ATOM     33  H   UNL     1      28.591 -24.595 -15.038  0.00  0.00    +0.145 HD
ENDBRANCH   6  31
TORSDOF 6
ENDMDL
MODEL 2
REMARK VINA RESULT:     -10.4      3.054      7.163
REMARK  Name = 24871491
REMARK  6 active torsions:
REMARK  status: ('A' for Active; 'I' for Inactive)
REMARK    1  A    between atoms: N_1  and  C_11
REMARK    2  A    between atoms: N_2  and  C_18
REMARK    3  A    between atoms: C_6  and  C_31
REMARK    4  A    between atoms: C_19  and  C_24
REMARK    5  A    between atoms: C_24  and  C_26
REMARK    6  A    between atoms: C_26  and  O_27
REMARK                            x       y       z     vdW  Elec       q    Type
REMARK                         _______ _______ _______ _____ _____    ______ ____
ROOT
ATOM      1  N   UNL     1      34.370 -24.879 -13.827  0.00  0.00    -0.287 N 
ATOM      2  N   UNL     1      37.335 -22.529 -16.639  0.00  0.00    -0.247 N 
ATOM      3  N   UNL     1      35.851 -23.694 -15.249  0.00  0.00    -0.322 NA
ATOM      4  N   UNL     1      38.210 -23.633 -14.766  0.00  0.00    -0.169 NA
ATOM      5  C   UNL     1      35.683 -24.455 -14.147  0.00  0.00    +0.202 C 
ATOM      6  C   UNL     1      36.715 -24.839 -13.316  0.00  0.00    +0.118 C 
ATOM      7  C   UNL     1      37.122 -23.325 -15.496  0.00  0.00    +0.150 C 
ATOM      8  C   UNL     1      37.971 -24.395 -13.678  0.00  0.00    +0.120 C 
ATOM      9  H   UNL     1      34.335 -25.742 -13.356  0.00  0.00    +0.155 HD
ATOM     10  H   UNL     1      38.278 -22.283 -16.778  0.00  0.00    +0.165 HD
ENDROOT
BRANCH   1  11
ATOM     11  C   UNL     1      33.107 -24.307 -14.053  0.00  0.00    +0.050 C 
ATOM     12  C   UNL     1      32.803 -23.757 -15.299  0.00  0.00    +0.010 C 
ATOM     13  C   UNL     1      31.549 -23.189 -15.522  0.00  0.00    -0.021 C 
ATOM     14  C   UNL     1      32.157 -24.290 -13.033  0.00  0.00    +0.015 C 
ATOM     15  C   UNL     1      30.598 -23.172 -14.502  0.00  0.00    -0.004 C 
ATOM     16  C   UNL     1      30.903 -23.721 -13.256  0.00  0.00    +0.001 C 
ATOM     17  C   UNL     1      31.224 -22.599 -16.853  0.00  0.00    +0.031 C 
ENDBRANCH   1  11
BRANCH   2  18
ATOM     18  C   UNL     1      36.464 -22.017 -17.622  0.00  0.00    +0.058 C 
ATOM     19  C   UNL     1      34.742 -21.003 -19.567  0.00  0.00    -0.011 C 
ATOM     20  C   UNL     1      36.964 -21.211 -18.644  0.00  0.00    +0.015 C 
ATOM     21  C   UNL     1      35.103 -22.316 -17.572  0.00  0.00    +0.015 C 
ATOM     22  C   UNL     1      36.103 -20.703 -19.617  0.00  0.00    -0.002 C 
ATOM     23  C   UNL     1      34.241 -21.809 -18.544  0.00  0.00    -0.002 C 
BRANCH  19  24
ATOM     24  C   UNL     1      33.820 -20.461 -20.608  0.00  0.00    +0.136 C 
BRANCH  24  26
ATOM     25  O   UNL     1      34.711 -18.234 -21.031  0.00  0.00    -0.250 OA
ATOM     26  C   UNL     1      34.434 -19.353 -21.441  0.00  0.00    +0.318 C 
BRANCH  26  27
ATOM     27  O   UNL     1      34.649 -19.745 -22.725  0.00  0.00    -0.480 OA
ATOM     28  H   UNL     1      35.493 -20.055 -22.985  0.00  0.00    +0.295 HD
ENDBRANCH  26  27
ENDBRANCH  24  26
ENDBRANCH  19  24
ENDBRANCH   2  18
BRANCH   6  31
ATOM     29  O   UNL     1      35.909 -25.239 -11.139  0.00  0.00    -0.270 OA
ATOM     30  N   UNL     1      37.076 -26.941 -12.139  0.00  0.00    -0.325 N 
ATOM     31  C   UNL     1      36.536 -25.658 -12.128  0.00  0.00    +0.248 C 
ATOM     32  H   UNL     1      36.975 -27.524 -11.353  0.00  0.00    +0.145 HD
ATOM     33  H   UNL     1      37.559 -27.265 -12.933  0.00  0.00    +0.145 HD
ENDBRANCH   6  31
TORSDOF 6
ENDMDL
MODEL 3
REMARK VINA RESULT:     -10.3      3.066      7.237
REMARK  Name = 24871491
REMARK  6 active torsions:
REMARK  status: ('A' for Active; 'I' for Inactive)
REMARK    1  A    between atoms: N_1  and  C_11
REMARK    2  A    between atoms: N_2  and  C_18
REMARK    3  A    between atoms: C_6  and  C_31
REMARK    4  A    between atoms: C_19  and  C_24
REMARK    5  A    between atoms: C_24  and  C_26
REMARK    6  A    between atoms: C_26  and  O_27
REMARK                            x       y       z     vdW  Elec       q    Type
REMARK                         _______ _______ _______ _____ _____    ______ ____
ROOT
ATOM      1  N   UNL     1      34.319 -24.949 -13.823  0.00  0.00    -0.287 N 
ATOM      2  N   UNL     1      37.275 -22.519 -16.576  0.00  0.00    -0.247 N 
ATOM      3  N   UNL     1      35.795 -23.725 -15.216  0.00  0.00    -0.322 NA
ATOM      4  N   UNL     1      38.144 -23.606 -14.691  0.00  0.00    -0.169 NA
ATOM      5  C   UNL     1      35.627 -24.492 -14.118  0.00  0.00    +0.202 C 
ATOM      6  C   UNL     1      36.654 -24.853 -13.270  0.00  0.00    +0.118 C 
ATOM      7  C   UNL     1      37.062 -23.323 -15.439  0.00  0.00    +0.150 C 
ATOM      8  C   UNL     1      37.904 -24.377 -13.609  0.00  0.00    +0.120 C 
ATOM      9  H   UNL     1      34.297 -25.815 -13.355  0.00  0.00    +0.155 HD
ATOM     10  H   UNL     1      38.214 -22.249 -16.698  0.00  0.00    +0.165 HD
ENDROOT
BRANCH   1  11
ATOM     11  C   UNL     1      33.047 -24.408 -14.070  0.00  0.00    +0.050 C 
ATOM     12  C   UNL     1      31.912 -25.211 -13.953  0.00  0.00    +0.010 C 
ATOM     13  C   UNL     1      30.649 -24.672 -14.198  0.00  0.00    -0.021 C 
ATOM     14  C   UNL     1      32.918 -23.067 -14.431  0.00  0.00    +0.015 C 
ATOM     15  C   UNL     1      30.520 -23.331 -14.559  0.00  0.00    -0.004 C 
ATOM     16  C   UNL     1      31.655 -22.528 -14.676  0.00  0.00    +0.001 C 
ATOM     17  C   UNL     1      29.436 -25.531 -14.075  0.00  0.00    +0.031 C 
ENDBRANCH   1  11
BRANCH   2  18
ATOM     18  C   UNL     1      36.410 -22.026 -17.574  0.00  0.00    +0.058 C 
ATOM     19  C   UNL     1      34.697 -21.051 -19.547  0.00  0.00    -0.011 C 
ATOM     20  C   UNL     1      35.047 -22.316 -17.519  0.00  0.00    +0.015 C 
ATOM     21  C   UNL     1      36.917 -21.249 -18.615  0.00  0.00    +0.015 C 
ATOM     22  C   UNL     1      34.190 -21.828 -18.506  0.00  0.00    -0.002 C 
ATOM     23  C   UNL     1      36.060 -20.761 -19.602  0.00  0.00    -0.002 C 
BRANCH  19  24
ATOM     24  C   UNL     1      33.781 -20.529 -20.602  0.00  0.00    +0.136 C 
BRANCH  24  26
ATOM     25  O   UNL     1      34.670 -18.302 -21.028  0.00  0.00    -0.250 OA
ATOM     26  C   UNL     1      34.390 -19.420 -21.438  0.00  0.00    +0.318 C 
BRANCH  26  27
ATOM     27  O   UNL     1      34.595 -19.810 -22.724  0.00  0.00    -0.480 OA
ATOM     28  H   UNL     1      34.052 -20.471 -23.105  0.00  0.00    +0.295 HD
ENDBRANCH  26  27
ENDBRANCH  24  26
ENDBRANCH  19  24
ENDBRANCH   2  18
BRANCH   6  31
ATOM     29  O   UNL     1      35.785 -25.296 -11.126  0.00  0.00    -0.270 OA
ATOM     30  N   UNL     1      37.084 -26.930 -12.073  0.00  0.00    -0.325 N 
ATOM     31  C   UNL     1      36.474 -25.680 -12.088  0.00  0.00    +0.248 C 
ATOM     32  H   UNL     1      36.985 -27.517 -11.289  0.00  0.00    +0.145 HD
ATOM     33  H   UNL     1      37.616 -27.227 -12.847  0.00  0.00    +0.145 HD
ENDBRANCH   6  31
TORSDOF 6
ENDMDL
MODEL 4
REMARK VINA RESULT:      -9.2      2.843      5.337
REMARK  Name = 24871491
REMARK  6 active torsions:
REMARK  status: ('A' for Active; 'I' for Inactive)
REMARK    1  A    between atoms: N_1  and  C_11
REMARK    2  A    between atoms: N_2  and  C_18
REMARK    3  A    between atoms: C_6  and  C_31
REMARK    4  A    between atoms: C_19  and  C_24
REMARK    5  A    between atoms: C_24  and  C_26
REMARK    6  A    between atoms: C_26  and  O_27
REMARK                            x       y       z     vdW  Elec       q    Type
REMARK                         _______ _______ _______ _____ _____    ______ ____
ROOT
ATOM      1  N   UNL     1      32.815 -22.231 -17.154  0.00  0.00    -0.287 N 
ATOM      2  N   UNL     1      37.413 -22.803 -16.285  0.00  0.00    -0.247 N 
ATOM      3  N   UNL     1      35.124 -22.522 -16.704  0.00  0.00    -0.322 NA
ATOM      4  N   UNL     1      36.765 -22.014 -18.394  0.00  0.00    -0.169 NA
ATOM      5  C   UNL     1      34.164 -22.156 -17.579  0.00  0.00    +0.202 C 
ATOM      6  C   UNL     1      34.423 -21.714 -18.861  0.00  0.00    +0.118 C 
ATOM      7  C   UNL     1      36.384 -22.428 -17.171  0.00  0.00    +0.150 C 
ATOM      8  C   UNL     1      35.755 -21.662 -19.218  0.00  0.00    +0.120 C 
ATOM      9  H   UNL     1      32.227 -21.568 -17.581  0.00  0.00    +0.155 HD
ATOM     10  H   UNL     1      38.316 -22.719 -16.669  0.00  0.00    +0.165 HD
ENDROOT
BRANCH   1  11
ATOM     11  C   UNL     1      32.155 -23.069 -16.241  0.00  0.00    +0.050 C 
ATOM     12  C   UNL     1      30.785 -23.301 -16.372  0.00  0.00    +0.010 C 
ATOM     13  C   UNL     1      30.130 -24.133 -15.465  0.00  0.00    -0.021 C 
ATOM     14  C   UNL     1      32.867 -23.670 -15.204  0.00  0.00    +0.015 C 
ATOM     15  C   UNL     1      30.842 -24.735 -14.428  0.00  0.00    -0.004 C 
ATOM     16  C   UNL     1      32.211 -24.502 -14.296  0.00  0.00    +0.001 C 
ATOM     17  C   UNL     1      28.665 -24.381 -15.604  0.00  0.00    +0.031 C 
ENDBRANCH   1  11
BRANCH   2  18
ATOM     18  C   UNL     1      37.405 -23.276 -14.957  0.00  0.00    +0.058 C 
ATOM     19  C   UNL     1      37.387 -24.212 -12.329  0.00  0.00    -0.011 C 
ATOM     20  C   UNL     1      38.008 -24.494 -14.647  0.00  0.00    +0.015 C 
ATOM     21  C   UNL     1      36.791 -22.526 -13.953  0.00  0.00    +0.015 C 
ATOM     22  C   UNL     1      38.000 -24.962 -13.332  0.00  0.00    -0.002 C 
ATOM     23  C   UNL     1      36.782 -22.994 -12.640  0.00  0.00    -0.002 C 
BRANCH  19  24
ATOM     24  C   UNL     1      37.378 -24.713 -10.924  0.00  0.00    +0.136 C 
BRANCH  24  26
ATOM     25  O   UNL     1      34.977 -25.107 -10.837  0.00  0.00    -0.250 OA
ATOM     26  C   UNL     1      36.000 -24.716 -10.292  0.00  0.00    +0.318 C 
BRANCH  26  27
ATOM     27  O   UNL     1      36.023 -24.223  -9.025  0.00  0.00    -0.480 OA
ATOM     28  H   UNL     1      35.300 -23.720  -8.706  0.00  0.00    +0.295 HD
ENDBRANCH  26  27
ENDBRANCH  24  26
ENDBRANCH  19  24
ENDBRANCH   2  18
BRANCH   6  31
ATOM     29  O   UNL     1      32.328 -21.957 -19.910  0.00  0.00    -0.270 OA
ATOM     30  N   UNL     1      33.620 -20.184 -20.577  0.00  0.00    -0.325 N 
ATOM     31  C   UNL     1      33.390 -21.318 -19.805  0.00  0.00    +0.248 C 
ATOM     32  H   UNL     1      32.943 -19.886 -21.227  0.00  0.00    +0.145 HD
ATOM     33  H   UNL     1      34.459 -19.680 -20.474  0.00  0.00    +0.145 HD
ENDBRANCH   6  31
TORSDOF 6
ENDMDL
