MODEL 1
REMARK VINA RESULT:     -11.5      0.000      0.000
REMARK  Name = 44129624
REMARK  6 active torsions:
REMARK  status: ('A' for Active; 'I' for Inactive)
REMARK    1  A    between atoms: C_1  and  O_20
REMARK    2  A    between atoms: C_4  and  C_8
REMARK    3  A    between atoms: C_8  and  C_9
REMARK    4  A    between atoms: C_10  and  C_16
REMARK    5  A    between atoms: O_20  and  C_21
REMARK    6  A    between atoms: C_21  and  C_23
REMARK                            x       y       z     vdW  Elec       q    Type
REMARK                         _______ _______ _______ _____ _____    ______ ____
ROOT
ATOM      1  C   UNL     1      33.510 -21.967 -18.876  0.00  0.00    +0.138 C 
ATOM      2  C   UNL     1      32.970 -21.017 -19.743  0.00  0.00    +0.037 C 
ATOM      3  C   UNL     1      34.892 -22.045 -18.700  0.00  0.00    +0.037 C 
ATOM      4  C   UNL     1      35.192 -20.222 -20.256  0.00  0.00    +0.039 C 
ATOM      5  C   UNL     1      33.810 -20.145 -20.432  0.00  0.00    +0.006 C 
ATOM      6  C   UNL     1      35.732 -21.171 -19.390  0.00  0.00    +0.006 C 
ENDROOT
BRANCH   4   8
ATOM      7  O   UNL     1      37.297 -19.475 -20.950  0.00  0.00    -0.287 OA
ATOM      8  C   UNL     1      36.068 -19.309 -20.974  0.00  0.00    +0.196 C 
BRANCH   8   9
ATOM      9  C   UNL     1      35.547 -18.151 -21.762  0.00  0.00    +0.039 C 
ATOM     10  C   UNL     1      34.576 -15.988 -23.232  0.00  0.00    +0.001 C 
ATOM     11  C   UNL     1      35.274 -16.941 -21.123  0.00  0.00    +0.003 C 
ATOM     12  C   UNL     1      35.334 -18.280 -23.134  0.00  0.00    +0.003 C 
ATOM     13  C   UNL     1      34.788 -15.860 -21.859  0.00  0.00    +0.000 C 
ATOM     14  C   UNL     1      34.848 -17.199 -23.869  0.00  0.00    +0.000 C 
BRANCH  10  16
ATOM     15  S   UNL     1      33.085 -13.570 -25.967  0.00  0.00    -0.086 S 
ATOM     16  C   UNL     1      34.077 -14.874 -23.987  0.00  0.00    +0.007 C 
ATOM     17  C   UNL     1      33.973 -13.520 -23.556  0.00  0.00    +0.007 C 
ATOM     18  C   UNL     1      33.629 -15.041 -25.279  0.00  0.00    +0.035 C 
ATOM     19  C   UNL     1      33.449 -12.704 -24.535  0.00  0.00    +0.035 C 
ENDBRANCH  10  16
ENDBRANCH   8   9
ENDBRANCH   4   8
BRANCH   1  20
ATOM     20  O   UNL     1      32.684 -22.827 -18.197  0.00  0.00    -0.478 OA
BRANCH  20  21
ATOM     21  C   UNL     1      33.046 -23.146 -16.864  0.00  0.00    +0.184 C 
BRANCH  21  23
ATOM     22  N   UNL     1      30.605 -22.792 -16.601  0.00  0.00    +0.388 N 
ATOM     23  C   UNL     1      31.788 -23.496 -16.084  0.00  0.00    -0.017 C 
ATOM     24  C   UNL     1      31.847 -23.052 -14.631  0.00  0.00    -0.020 C 
ATOM     25  C   UNL     1      30.386 -22.925 -14.225  0.00  0.00    -0.025 C 
ATOM     26  C   UNL     1      29.607 -22.912 -15.533  0.00  0.00    -0.082 C 
ATOM     27  H   UNL     1      30.270 -23.234 -17.457  0.00  0.00    -0.084 HD
ATOM     28  H   UNL     1      30.806 -21.821 -16.836  0.00  0.00    -0.084 HD
ENDBRANCH  21  23
ENDBRANCH  20  21
ENDBRANCH   1  20
TORSDOF 6
ENDMDL
MODEL 2
REMARK VINA RESULT:     -10.4      4.438      9.208
REMARK  Name = 44129624
REMARK  6 active torsions:
REMARK  status: ('A' for Active; 'I' for Inactive)
REMARK    1  A    between atoms: C_1  and  O_20
REMARK    2  A    between atoms: C_4  and  C_8
REMARK    3  A    between atoms: C_8  and  C_9
REMARK    4  A    between atoms: C_10  and  C_16
REMARK    5  A    between atoms: O_20  and  C_21
REMARK    6  A    between atoms: C_21  and  C_23
REMARK                            x       y       z     vdW  Elec       q    Type
REMARK                         _______ _______ _______ _____ _____    ______ ____
ROOT
ATOM      1  C   UNL     1      34.502 -15.015 -22.254  0.00  0.00    +0.138 C 
ATOM      2  C   UNL     1      34.672 -15.682 -21.042  0.00  0.00    +0.037 C 
ATOM      3  C   UNL     1      34.525 -15.728 -23.453  0.00  0.00    +0.037 C 
ATOM      4  C   UNL     1      34.886 -17.777 -22.224  0.00  0.00    +0.039 C 
ATOM      5  C   UNL     1      34.864 -17.063 -21.026  0.00  0.00    +0.006 C 
ATOM      6  C   UNL     1      34.716 -17.110 -23.437  0.00  0.00    +0.006 C 
ENDROOT
BRANCH   4   8
ATOM      7  O   UNL     1      35.529 -19.799 -23.209  0.00  0.00    -0.287 OA
ATOM      8  C   UNL     1      35.083 -19.218 -22.208  0.00  0.00    +0.196 C 
BRANCH   8   9
ATOM      9  C   UNL     1      34.767 -20.057 -21.012  0.00  0.00    +0.039 C 
ATOM     10  C   UNL     1      34.177 -21.621 -18.779  0.00  0.00    +0.001 C 
ATOM     11  C   UNL     1      35.800 -20.628 -20.269  0.00  0.00    +0.003 C 
ATOM     12  C   UNL     1      33.439 -20.268 -20.639  0.00  0.00    +0.003 C 
ATOM     13  C   UNL     1      35.504 -21.410 -19.152  0.00  0.00    +0.000 C 
ATOM     14  C   UNL     1      33.144 -21.051 -19.523  0.00  0.00    +0.000 C 
BRANCH  10  16
ATOM     15  S   UNL     1      34.265 -23.780 -15.480  0.00  0.00    -0.086 S 
ATOM     16  C   UNL     1      33.875 -22.426 -17.629  0.00  0.00    +0.007 C 
ATOM     17  C   UNL     1      32.594 -22.899 -17.222  0.00  0.00    +0.007 C 
ATOM     18  C   UNL     1      34.873 -22.833 -16.771  0.00  0.00    +0.035 C 
ATOM     19  C   UNL     1      32.662 -23.648 -16.068  0.00  0.00    +0.035 C 
ENDBRANCH  10  16
ENDBRANCH   8   9
ENDBRANCH   4   8
BRANCH   1  20
ATOM     20  O   UNL     1      34.314 -13.655 -22.270  0.00  0.00    -0.478 OA
BRANCH  20  21
ATOM     21  C   UNL     1      33.270 -13.162 -23.092  0.00  0.00    +0.184 C 
BRANCH  21  23
ATOM     22  N   UNL     1      32.359 -11.062 -22.136  0.00  0.00    +0.388 N 
ATOM     23  C   UNL     1      32.210 -12.523 -22.208  0.00  0.00    -0.017 C 
ATOM     24  C   UNL     1      32.311 -12.954 -20.753  0.00  0.00    -0.020 C 
ATOM     25  C   UNL     1      31.642 -11.823 -19.986  0.00  0.00    -0.025 C 
ATOM     26  C   UNL     1      31.559 -10.666 -20.971  0.00  0.00    -0.082 C 
ATOM     27  H   UNL     1      32.003 -10.622 -22.984  0.00  0.00    -0.084 HD
ATOM     28  H   UNL     1      33.335 -10.778 -22.049  0.00  0.00    -0.084 HD
ENDBRANCH  21  23
ENDBRANCH  20  21
ENDBRANCH   1  20
TORSDOF 6
ENDMDL
MODEL 3
REMARK VINA RESULT:     -10.3      4.652     10.093
REMARK  Name = 44129624
REMARK  6 active torsions:
REMARK  status: ('A' for Active; 'I' for Inactive)
REMARK    1  A    between atoms: C_1  and  O_20
REMARK    2  A    between atoms: C_4  and  C_8
REMARK    3  A    between atoms: C_8  and  C_9
REMARK    4  A    between atoms: C_10  and  C_16
REMARK    5  A    between atoms: O_20  and  C_21
REMARK    6  A    between atoms: C_21  and  C_23
REMARK                            x       y       z     vdW  Elec       q    Type
REMARK                         _______ _______ _______ _____ _____    ______ ____
ROOT
ATOM      1  C   UNL     1      35.569 -19.139 -21.005  0.00  0.00    +0.138 C 
ATOM      2  C   UNL     1      34.206 -19.428 -20.961  0.00  0.00    +0.037 C 
ATOM      3  C   UNL     1      36.475 -19.942 -20.312  0.00  0.00    +0.037 C 
ATOM      4  C   UNL     1      34.653 -21.323 -19.532  0.00  0.00    +0.039 C 
ATOM      5  C   UNL     1      33.747 -20.519 -20.225  0.00  0.00    +0.006 C 
ATOM      6  C   UNL     1      36.016 -21.035 -19.576  0.00  0.00    +0.006 C 
ENDROOT
BRANCH   4   8
ATOM      7  O   UNL     1      33.399 -23.281 -19.283  0.00  0.00    -0.287 OA
ATOM      8  C   UNL     1      34.175 -22.463 -18.767  0.00  0.00    +0.196 C 
BRANCH   8   9
ATOM      9  C   UNL     1      34.583 -22.706 -17.350  0.00  0.00    +0.039 C 
ATOM     10  C   UNL     1      35.345 -23.158 -14.705  0.00  0.00    +0.001 C 
ATOM     11  C   UNL     1      35.856 -22.335 -16.919  0.00  0.00    +0.003 C 
ATOM     12  C   UNL     1      33.691 -23.304 -16.459  0.00  0.00    +0.003 C 
ATOM     13  C   UNL     1      36.237 -22.561 -15.596  0.00  0.00    +0.000 C 
ATOM     14  C   UNL     1      34.072 -23.529 -15.137  0.00  0.00    +0.000 C 
BRANCH  10  16
ATOM     15  S   UNL     1      37.227 -23.415 -11.249  0.00  0.00    -0.086 S 
ATOM     16  C   UNL     1      35.738 -23.389 -13.343  0.00  0.00    +0.007 C 
ATOM     17  C   UNL     1      34.952 -23.970 -12.307  0.00  0.00    +0.007 C 
ATOM     18  C   UNL     1      36.997 -23.041 -12.904  0.00  0.00    +0.035 C 
ATOM     19  C   UNL     1      35.640 -24.044 -11.116  0.00  0.00    +0.035 C 
ENDBRANCH  10  16
ENDBRANCH   8   9
ENDBRANCH   4   8
BRANCH   1  20
ATOM     20  O   UNL     1      36.021 -18.064 -21.729  0.00  0.00    -0.478 OA
BRANCH  20  21
ATOM     21  C   UNL     1      35.263 -17.693 -22.868  0.00  0.00    +0.184 C 
BRANCH  21  23
ATOM     22  N   UNL     1      34.629 -15.623 -21.658  0.00  0.00    +0.388 N 
ATOM     23  C   UNL     1      35.156 -16.177 -22.914  0.00  0.00    -0.017 C 
ATOM     24  C   UNL     1      34.163 -15.683 -23.954  0.00  0.00    -0.020 C 
ATOM     25  C   UNL     1      33.758 -14.305 -23.452  0.00  0.00    -0.025 C 
ATOM     26  C   UNL     1      34.216 -14.258 -22.001  0.00  0.00    -0.082 C 
ATOM     27  H   UNL     1      35.353 -15.611 -20.940  0.00  0.00    -0.084 HD
ATOM     28  H   UNL     1      33.860 -16.178 -21.285  0.00  0.00    -0.084 HD
ENDBRANCH  21  23
ENDBRANCH  20  21
ENDBRANCH   1  20
TORSDOF 6
ENDMDL
MODEL 4
REMARK VINA RESULT:     -10.2      5.143     10.026
REMARK  Name = 44129624
REMARK  6 active torsions:
REMARK  status: ('A' for Active; 'I' for Inactive)
REMARK    1  A    between atoms: C_1  and  O_20
REMARK    2  A    between atoms: C_4  and  C_8
REMARK    3  A    between atoms: C_8  and  C_9
REMARK    4  A    between atoms: C_10  and  C_16
REMARK    5  A    between atoms: O_20  and  C_21
REMARK    6  A    between atoms: C_21  and  C_23
REMARK                            x       y       z     vdW  Elec       q    Type
REMARK                         _______ _______ _______ _____ _____    ______ ____
ROOT
ATOM      1  C   UNL     1      33.449 -12.149 -23.283  0.00  0.00    +0.138 C 
ATOM      2  C   UNL     1      33.530 -12.531 -24.622  0.00  0.00    +0.037 C 
ATOM      3  C   UNL     1      33.725 -13.074 -22.276  0.00  0.00    +0.037 C 
ATOM      4  C   UNL     1      34.164 -14.762 -23.947  0.00  0.00    +0.039 C 
ATOM      5  C   UNL     1      33.887 -13.837 -24.954  0.00  0.00    +0.006 C 
ATOM      6  C   UNL     1      34.083 -14.380 -22.608  0.00  0.00    +0.006 C 
ENDROOT
BRANCH   4   8
ATOM      7  O   UNL     1      34.770 -16.426 -25.474  0.00  0.00    -0.287 OA
ATOM      8  C   UNL     1      34.538 -16.124 -24.294  0.00  0.00    +0.196 C 
BRANCH   8   9
ATOM      9  C   UNL     1      34.662 -17.207 -23.271  0.00  0.00    +0.039 C 
ATOM     10  C   UNL     1      34.891 -19.228 -21.362  0.00  0.00    +0.001 C 
ATOM     11  C   UNL     1      35.210 -16.925 -22.020  0.00  0.00    +0.003 C 
ATOM     12  C   UNL     1      34.229 -18.499 -23.568  0.00  0.00    +0.003 C 
ATOM     13  C   UNL     1      35.325 -17.936 -21.066  0.00  0.00    +0.000 C 
ATOM     14  C   UNL     1      34.344 -19.509 -22.614  0.00  0.00    +0.000 C 
BRANCH  10  16
ATOM     15  S   UNL     1      34.290 -22.109 -18.738  0.00  0.00    -0.086 S 
ATOM     16  C   UNL     1      35.009 -20.267 -20.379  0.00  0.00    +0.007 C 
ATOM     17  C   UNL     1      36.208 -20.757 -19.785  0.00  0.00    +0.007 C 
ATOM     18  C   UNL     1      33.891 -20.914 -19.899  0.00  0.00    +0.035 C 
ATOM     19  C   UNL     1      35.961 -21.761 -18.874  0.00  0.00    +0.035 C 
ENDBRANCH  10  16
ENDBRANCH   8   9
ENDBRANCH   4   8
BRANCH   1  20
ATOM     20  O   UNL     1      33.097 -10.863 -22.955  0.00  0.00    -0.478 OA
BRANCH  20  21
ATOM     21  C   UNL     1      32.090 -10.706 -21.970  0.00  0.00    +0.184 C 
BRANCH  21  23
ATOM     22  N   UNL     1      33.062  -8.436 -22.206  0.00  0.00    +0.388 N 
ATOM     23  C   UNL     1      31.972  -9.230 -21.621  0.00  0.00    -0.017 C 
ATOM     24  C   UNL     1      32.108  -8.959 -20.131  0.00  0.00    -0.020 C 
ATOM     25  C   UNL     1      32.565  -7.510 -20.060  0.00  0.00    -0.025 C 
ATOM     26  C   UNL     1      33.035  -7.169 -21.467  0.00  0.00    -0.082 C 
ATOM     27  H   UNL     1      32.896  -8.276 -23.200  0.00  0.00    -0.084 HD
ATOM     28  H   UNL     1      33.964  -8.907 -22.135  0.00  0.00    -0.084 HD
ENDBRANCH  21  23
ENDBRANCH  20  21
ENDBRANCH   1  20
TORSDOF 6
ENDMDL
MODEL 5
REMARK VINA RESULT:     -10.2      2.327      3.933
REMARK  Name = 44129624
REMARK  6 active torsions:
REMARK  status: ('A' for Active; 'I' for Inactive)
REMARK    1  A    between atoms: C_1  and  O_20
REMARK    2  A    between atoms: C_4  and  C_8
REMARK    3  A    between atoms: C_8  and  C_9
REMARK    4  A    between atoms: C_10  and  C_16
REMARK    5  A    between atoms: O_20  and  C_21
REMARK    6  A    between atoms: C_21  and  C_23
REMARK                            x       y       z     vdW  Elec       q    Type
REMARK                         _______ _______ _______ _____ _____    ______ ____
ROOT
ATOM      1  C   UNL     1      35.943 -19.786 -20.569  0.00  0.00    +0.138 C 
ATOM      2  C   UNL     1      36.801 -18.855 -21.152  0.00  0.00    +0.037 C 
ATOM      3  C   UNL     1      34.632 -19.912 -21.029  0.00  0.00    +0.037 C 
ATOM      4  C   UNL     1      35.039 -18.174 -22.658  0.00  0.00    +0.039 C 
ATOM      5  C   UNL     1      36.350 -18.049 -22.196  0.00  0.00    +0.006 C 
ATOM      6  C   UNL     1      34.181 -19.105 -22.074  0.00  0.00    +0.006 C 
ENDROOT
BRANCH   4   8
ATOM      7  O   UNL     1      34.433 -17.809 -24.886  0.00  0.00    -0.287 OA
ATOM      8  C   UNL     1      34.569 -17.335 -23.748  0.00  0.00    +0.196 C 
BRANCH   8   9
ATOM      9  C   UNL     1      34.233 -15.891 -23.562  0.00  0.00    +0.039 C 
ATOM     10  C   UNL     1      33.606 -13.195 -23.214  0.00  0.00    +0.001 C 
ATOM     11  C   UNL     1      34.480 -15.271 -22.337  0.00  0.00    +0.003 C 
ATOM     12  C   UNL     1      33.672 -15.164 -24.612  0.00  0.00    +0.003 C 
ATOM     13  C   UNL     1      34.166 -13.922 -22.164  0.00  0.00    +0.000 C 
ATOM     14  C   UNL     1      33.359 -13.816 -24.438  0.00  0.00    +0.000 C 
BRANCH  10  16
ATOM     15  S   UNL     1      32.111  -9.719 -22.105  0.00  0.00    -0.086 S 
ATOM     16  C   UNL     1      33.285 -11.807 -23.033  0.00  0.00    +0.007 C 
ATOM     17  C   UNL     1      33.876 -10.694 -23.697  0.00  0.00    +0.007 C 
ATOM     18  C   UNL     1      32.310 -11.419 -22.140  0.00  0.00    +0.035 C 
ATOM     19  C   UNL     1      33.331  -9.497 -23.286  0.00  0.00    +0.035 C 
ENDBRANCH  10  16
ENDBRANCH   8   9
ENDBRANCH   4   8
BRANCH   1  20
ATOM     20  O   UNL     1      36.387 -20.580 -19.540  0.00  0.00    -0.478 OA
BRANCH  20  21
ATOM     21  C   UNL     1      35.823 -21.877 -19.442  0.00  0.00    +0.184 C 
BRANCH  21  23
ATOM     22  N   UNL     1      35.567 -22.586 -17.079  0.00  0.00    +0.388 N 
ATOM     23  C   UNL     1      34.917 -21.928 -18.222  0.00  0.00    -0.017 C 
ATOM     24  C   UNL     1      33.670 -22.770 -18.443  0.00  0.00    -0.020 C 
ATOM     25  C   UNL     1      33.254 -23.187 -17.041  0.00  0.00    -0.025 C 
ATOM     26  C   UNL     1      34.467 -22.909 -16.164  0.00  0.00    -0.082 C 
ATOM     27  H   UNL     1      36.233 -21.955 -16.633  0.00  0.00    -0.084 HD
ATOM     28  H   UNL     1      36.093 -23.413 -17.358  0.00  0.00    -0.084 HD
ENDBRANCH  21  23
ENDBRANCH  20  21
ENDBRANCH   1  20
TORSDOF 6
ENDMDL
MODEL 6
REMARK VINA RESULT:     -10.2      2.189      3.814
REMARK  Name = 44129624
REMARK  6 active torsions:
REMARK  status: ('A' for Active; 'I' for Inactive)
REMARK    1  A    between atoms: C_1  and  O_20
REMARK    2  A    between atoms: C_4  and  C_8
REMARK    3  A    between atoms: C_8  and  C_9
REMARK    4  A    between atoms: C_10  and  C_16
REMARK    5  A    between atoms: O_20  and  C_21
REMARK    6  A    between atoms: C_21  and  C_23
REMARK                            x       y       z     vdW  Elec       q    Type
REMARK                         _______ _______ _______ _____ _____    ______ ____
ROOT
ATOM      1  C   UNL     1      33.023 -23.440 -15.632  0.00  0.00    +0.138 C 
ATOM      2  C   UNL     1      34.297 -23.169 -15.136  0.00  0.00    +0.037 C 
ATOM      3  C   UNL     1      32.724 -23.180 -16.969  0.00  0.00    +0.037 C 
ATOM      4  C   UNL     1      34.976 -22.378 -17.316  0.00  0.00    +0.039 C 
ATOM      5  C   UNL     1      35.274 -22.638 -15.978  0.00  0.00    +0.006 C 
ATOM      6  C   UNL     1      33.701 -22.650 -17.811  0.00  0.00    +0.006 C 
ENDROOT
BRANCH   4   8
ATOM      7  O   UNL     1      37.193 -22.085 -17.999  0.00  0.00    -0.287 OA
ATOM      8  C   UNL     1      35.996 -21.827 -18.194  0.00  0.00    +0.196 C 
BRANCH   8   9
ATOM      9  C   UNL     1      35.664 -20.941 -19.350  0.00  0.00    +0.039 C 
ATOM     10  C   UNL     1      35.045 -19.288 -21.510  0.00  0.00    +0.001 C 
ATOM     11  C   UNL     1      36.662 -20.171 -19.946  0.00  0.00    +0.003 C 
ATOM     12  C   UNL     1      34.357 -20.885 -19.834  0.00  0.00    +0.003 C 
ATOM     13  C   UNL     1      36.352 -19.344 -21.027  0.00  0.00    +0.000 C 
ATOM     14  C   UNL     1      34.047 -20.059 -20.913  0.00  0.00    +0.000 C 
BRANCH  10  16
ATOM     15  S   UNL     1      34.553 -16.294 -24.029  0.00  0.00    -0.086 S 
ATOM     16  C   UNL     1      34.728 -18.438 -22.623  0.00  0.00    +0.007 C 
ATOM     17  C   UNL     1      34.102 -18.817 -23.845  0.00  0.00    +0.007 C 
ATOM     18  C   UNL     1      35.027 -17.093 -22.590  0.00  0.00    +0.035 C 
ATOM     19  C   UNL     1      33.946 -17.748 -24.700  0.00  0.00    +0.035 C 
ENDBRANCH  10  16
ENDBRANCH   8   9
ENDBRANCH   4   8
BRANCH   1  20
ATOM     20  O   UNL     1      32.060 -23.962 -14.804  0.00  0.00    -0.478 OA
BRANCH  20  21
ATOM     21  C   UNL     1      31.131 -23.049 -14.245  0.00  0.00    +0.184 C 
BRANCH  21  23
ATOM     22  N   UNL     1      29.693 -24.752 -15.333  0.00  0.00    +0.388 N 
ATOM     23  C   UNL     1      29.735 -23.414 -14.725  0.00  0.00    -0.017 C 
ATOM     24  C   UNL     1      29.235 -22.511 -15.841  0.00  0.00    -0.020 C 
ATOM     25  C   UNL     1      28.191 -23.354 -16.558  0.00  0.00    -0.025 C 
ATOM     26  C   UNL     1      28.432 -24.779 -16.082  0.00  0.00    -0.082 C 
ATOM     27  H   UNL     1      29.700 -25.474 -14.613  0.00  0.00    -0.084 HD
ATOM     28  H   UNL     1      30.501 -24.930 -15.930  0.00  0.00    -0.084 HD
ENDBRANCH  21  23
ENDBRANCH  20  21
ENDBRANCH   1  20
TORSDOF 6
ENDMDL
MODEL 7
REMARK VINA RESULT:     -10.1      2.847      5.529
REMARK  Name = 44129624
REMARK  6 active torsions:
REMARK  status: ('A' for Active; 'I' for Inactive)
REMARK    1  A    between atoms: C_1  and  O_20
REMARK    2  A    between atoms: C_4  and  C_8
REMARK    3  A    between atoms: C_8  and  C_9
REMARK    4  A    between atoms: C_10  and  C_16
REMARK    5  A    between atoms: O_20  and  C_21
REMARK    6  A    between atoms: C_21  and  C_23
REMARK                            x       y       z     vdW  Elec       q    Type
REMARK                         _______ _______ _______ _____ _____    ______ ____
ROOT
ATOM      1  C   UNL     1      35.047 -18.818 -22.821  0.00  0.00    +0.138 C 
ATOM      2  C   UNL     1      34.189 -19.110 -23.881  0.00  0.00    +0.037 C 
ATOM      3  C   UNL     1      35.366 -17.492 -22.527  0.00  0.00    +0.037 C 
ATOM      4  C   UNL     1      33.969 -16.752 -24.354  0.00  0.00    +0.039 C 
ATOM      5  C   UNL     1      33.650 -18.078 -24.647  0.00  0.00    +0.006 C 
ATOM      6  C   UNL     1      34.827 -16.459 -23.294  0.00  0.00    +0.006 C 
ENDROOT
BRANCH   4   8
ATOM      7  O   UNL     1      32.781 -15.930 -26.192  0.00  0.00    -0.287 OA
ATOM      8  C   UNL     1      33.405 -15.675 -25.152  0.00  0.00    +0.196 C 
BRANCH   8   9
ATOM      9  C   UNL     1      33.543 -14.237 -24.769  0.00  0.00    +0.039 C 
ATOM     10  C   UNL     1      33.799 -11.553 -24.055  0.00  0.00    +0.001 C 
ATOM     11  C   UNL     1      33.710 -13.266 -25.757  0.00  0.00    +0.003 C 
ATOM     12  C   UNL     1      33.505 -13.866 -23.425  0.00  0.00    +0.003 C 
ATOM     13  C   UNL     1      33.838 -11.924 -25.399  0.00  0.00    +0.000 C 
ATOM     14  C   UNL     1      33.633 -12.524 -23.068  0.00  0.00    +0.000 C 
BRANCH  10  16
ATOM     15  S   UNL     1      33.318  -7.889 -22.679  0.00  0.00    -0.086 S 
ATOM     16  C   UNL     1      33.930 -10.170 -23.690  0.00  0.00    +0.007 C 
ATOM     17  C   UNL     1      35.031  -9.309 -23.965  0.00  0.00    +0.007 C 
ATOM     18  C   UNL     1      32.929  -9.526 -22.996  0.00  0.00    +0.035 C 
ATOM     19  C   UNL     1      34.830  -8.038 -23.470  0.00  0.00    +0.035 C 
ENDBRANCH  10  16
ENDBRANCH   8   9
ENDBRANCH   4   8
BRANCH   1  20
ATOM     20  O   UNL     1      35.578 -19.834 -22.066  0.00  0.00    -0.478 OA
BRANCH  20  21
ATOM     21  C   UNL     1      35.457 -19.718 -20.658  0.00  0.00    +0.184 C 
BRANCH  21  23
ATOM     22  N   UNL     1      33.551 -20.917 -19.618  0.00  0.00    +0.388 N 
ATOM     23  C   UNL     1      34.935 -21.033 -20.101  0.00  0.00    -0.017 C 
ATOM     24  C   UNL     1      35.694 -21.499 -18.868  0.00  0.00    -0.020 C 
ATOM     25  C   UNL     1      34.707 -22.406 -18.148  0.00  0.00    -0.025 C 
ATOM     26  C   UNL     1      33.353 -22.100 -18.773  0.00  0.00    -0.082 C 
ATOM     27  H   UNL     1      32.897 -20.920 -20.400  0.00  0.00    -0.084 HD
ATOM     28  H   UNL     1      33.392 -20.048 -19.109  0.00  0.00    -0.084 HD
ENDBRANCH  21  23
ENDBRANCH  20  21
ENDBRANCH   1  20
TORSDOF 6
ENDMDL
MODEL 8
REMARK VINA RESULT:     -10.1      5.172     10.640
REMARK  Name = 44129624
REMARK  6 active torsions:
REMARK  status: ('A' for Active; 'I' for Inactive)
REMARK    1  A    between atoms: C_1  and  O_20
REMARK    2  A    between atoms: C_4  and  C_8
REMARK    3  A    between atoms: C_8  and  C_9
REMARK    4  A    between atoms: C_10  and  C_16
REMARK    5  A    between atoms: O_20  and  C_21
REMARK    6  A    between atoms: C_21  and  C_23
REMARK                            x       y       z     vdW  Elec       q    Type
REMARK                         _______ _______ _______ _____ _____    ______ ____
ROOT
ATOM      1  C   UNL     1      33.488 -12.210 -23.432  0.00  0.00    +0.138 C 
ATOM      2  C   UNL     1      33.840 -13.095 -22.414  0.00  0.00    +0.037 C 
ATOM      3  C   UNL     1      33.484 -12.640 -24.759  0.00  0.00    +0.037 C 
ATOM      4  C   UNL     1      34.184 -14.840 -24.048  0.00  0.00    +0.039 C 
ATOM      5  C   UNL     1      34.188 -14.409 -22.721  0.00  0.00    +0.006 C 
ATOM      6  C   UNL     1      33.831 -13.955 -25.067  0.00  0.00    +0.006 C 
ENDROOT
BRANCH   4   8
ATOM      7  O   UNL     1      34.766 -16.541 -25.543  0.00  0.00    -0.287 OA
ATOM      8  C   UNL     1      34.544 -16.212 -24.368  0.00  0.00    +0.196 C 
BRANCH   8   9
ATOM      9  C   UNL     1      34.664 -17.274 -23.323  0.00  0.00    +0.039 C 
ATOM     10  C   UNL     1      34.889 -19.256 -21.373  0.00  0.00    +0.001 C 
ATOM     11  C   UNL     1      34.132 -18.542 -23.555  0.00  0.00    +0.003 C 
ATOM     12  C   UNL     1      35.308 -16.996 -22.117  0.00  0.00    +0.003 C 
ATOM     13  C   UNL     1      34.244 -19.533 -22.579  0.00  0.00    +0.000 C 
ATOM     14  C   UNL     1      35.420 -17.987 -21.142  0.00  0.00    +0.000 C 
BRANCH  10  16
ATOM     15  S   UNL     1      34.280 -22.083 -18.694  0.00  0.00    -0.086 S 
ATOM     16  C   UNL     1      35.004 -20.277 -20.371  0.00  0.00    +0.007 C 
ATOM     17  C   UNL     1      36.202 -20.766 -19.775  0.00  0.00    +0.007 C 
ATOM     18  C   UNL     1      33.884 -20.907 -19.874  0.00  0.00    +0.035 C 
ATOM     19  C   UNL     1      35.953 -21.752 -18.845  0.00  0.00    +0.035 C 
ENDBRANCH  10  16
ENDBRANCH   8   9
ENDBRANCH   4   8
BRANCH   1  20
ATOM     20  O   UNL     1      33.146 -10.915 -23.131  0.00  0.00    -0.478 OA
BRANCH  20  21
ATOM     21  C   UNL     1      34.093  -9.910 -23.451  0.00  0.00    +0.184 C 
BRANCH  21  23
ATOM     22  N   UNL     1      32.213  -8.344 -23.046  0.00  0.00    +0.388 N 
ATOM     23  C   UNL     1      33.645  -8.597 -22.828  0.00  0.00    -0.017 C 
ATOM     24  C   UNL     1      34.310  -7.383 -23.458  0.00  0.00    -0.020 C 
ATOM     25  C   UNL     1      33.346  -6.243 -23.170  0.00  0.00    -0.025 C 
ATOM     26  C   UNL     1      32.042  -6.915 -22.761  0.00  0.00    -0.082 C 
ATOM     27  H   UNL     1      31.648  -8.907 -22.410  0.00  0.00    -0.084 HD
ATOM     28  H   UNL     1      31.917  -8.588 -23.990  0.00  0.00    -0.084 HD
ENDBRANCH  21  23
ENDBRANCH  20  21
ENDBRANCH   1  20
TORSDOF 6
ENDMDL
MODEL 9
REMARK VINA RESULT:     -10.1      4.293      9.803
REMARK  Name = 44129624
REMARK  6 active torsions:
REMARK  status: ('A' for Active; 'I' for Inactive)
REMARK    1  A    between atoms: C_1  and  O_20
REMARK    2  A    between atoms: C_4  and  C_8
REMARK    3  A    between atoms: C_8  and  C_9
REMARK    4  A    between atoms: C_10  and  C_16
REMARK    5  A    between atoms: O_20  and  C_21
REMARK    6  A    between atoms: C_21  and  C_23
REMARK                            x       y       z     vdW  Elec       q    Type
REMARK                         _______ _______ _______ _____ _____    ______ ____
ROOT
ATOM      1  C   UNL     1      34.943 -18.966 -21.641  0.00  0.00    +0.138 C 
ATOM      2  C   UNL     1      33.923 -19.771 -21.135  0.00  0.00    +0.037 C 
ATOM      3  C   UNL     1      36.240 -19.085 -21.139  0.00  0.00    +0.037 C 
ATOM      4  C   UNL     1      35.495 -20.815 -19.626  0.00  0.00    +0.039 C 
ATOM      5  C   UNL     1      34.198 -20.695 -20.128  0.00  0.00    +0.006 C 
ATOM      6  C   UNL     1      36.515 -20.010 -20.132  0.00  0.00    +0.006 C 
ENDROOT
BRANCH   4   8
ATOM      7  O   UNL     1      36.940 -22.192 -18.408  0.00  0.00    -0.287 OA
ATOM      8  C   UNL     1      35.782 -21.781 -18.578  0.00  0.00    +0.196 C 
BRANCH   8   9
ATOM      9  C   UNL     1      34.723 -22.317 -17.670  0.00  0.00    +0.039 C 
ATOM     10  C   UNL     1      32.747 -23.318 -15.975  0.00  0.00    +0.001 C 
ATOM     11  C   UNL     1      35.054 -22.722 -16.377  0.00  0.00    +0.003 C 
ATOM     12  C   UNL     1      33.405 -22.413 -18.116  0.00  0.00    +0.003 C 
ATOM     13  C   UNL     1      34.065 -23.222 -15.530  0.00  0.00    +0.000 C 
ATOM     14  C   UNL     1      32.417 -22.914 -17.269  0.00  0.00    +0.000 C 
BRANCH  10  16
ATOM     15  S   UNL     1      30.675 -24.882 -13.007  0.00  0.00    -0.086 S 
ATOM     16  C   UNL     1      31.730 -23.832 -15.102  0.00  0.00    +0.007 C 
ATOM     17  C   UNL     1      30.331 -23.907 -15.360  0.00  0.00    +0.007 C 
ATOM     18  C   UNL     1      32.055 -24.329 -13.858  0.00  0.00    +0.035 C 
ATOM     19  C   UNL     1      29.639 -24.458 -14.303  0.00  0.00    +0.035 C 
ENDBRANCH  10  16
ENDBRANCH   8   9
ENDBRANCH   4   8
BRANCH   1  20
ATOM     20  O   UNL     1      34.673 -18.055 -22.632  0.00  0.00    -0.478 OA
BRANCH  20  21
ATOM     21  C   UNL     1      35.295 -16.786 -22.523  0.00  0.00    +0.184 C 
BRANCH  21  23
ATOM     22  N   UNL     1      33.966 -14.861 -23.350  0.00  0.00    +0.388 N 
ATOM     23  C   UNL     1      34.895 -15.939 -23.721  0.00  0.00    -0.017 C 
ATOM     24  C   UNL     1      34.116 -16.721 -24.768  0.00  0.00    -0.020 C 
ATOM     25  C   UNL     1      33.325 -15.656 -25.511  0.00  0.00    -0.025 C 
ATOM     26  C   UNL     1      33.382 -14.422 -24.622  0.00  0.00    -0.082 C 
ATOM     27  H   UNL     1      34.466 -14.095 -22.900  0.00  0.00    -0.084 HD
ATOM     28  H   UNL     1      33.257 -15.174 -22.687  0.00  0.00    -0.084 HD
ENDBRANCH  21  23
ENDBRANCH  20  21
ENDBRANCH   1  20
TORSDOF 6
ENDMDL
