MODEL 1
REMARK VINA RESULT:     -12.0      0.000      0.000
REMARK  Name = 5496659
REMARK  9 active torsions:
REMARK  status: ('A' for Active; 'I' for Inactive)
REMARK    1  A    between atoms: C_1  and  N_4
REMARK    2  A    between atoms: C_1  and  C_20
REMARK    3  A    between atoms: C_5  and  C_7
REMARK    4  A    between atoms: C_10  and  C_15
REMARK    5  A    between atoms: C_20  and  C_22
REMARK    6  A    between atoms: C_20  and  C_25
REMARK    7  A    between atoms: C_22  and  O_23
REMARK    8  A    between atoms: C_25  and  C_26
REMARK    9  A    between atoms: C_29  and  C_34
REMARK                            x       y       z     vdW  Elec       q    Type
REMARK                         _______ _______ _______ _____ _____    ______ ____
ROOT
ATOM      1  C   UNL     1      33.296 -23.688 -15.578  0.00  0.00    +0.083 C 
ATOM      2  C   UNL     1      32.020 -23.347 -14.810  0.00  0.00    +0.022 C 
ENDROOT
BRANCH   1   4
ATOM      3  O   UNL     1      33.573 -24.278 -18.373  0.00  0.00    -0.270 OA
ATOM      4  N   UNL     1      33.506 -22.737 -16.644  0.00  0.00    -0.302 N 
ATOM      5  C   UNL     1      33.628 -23.120 -17.970  0.00  0.00    +0.246 C 
ATOM      6  H   UNL     1      33.564 -21.779 -16.419  0.00  0.00    +0.150 HD
BRANCH   5   7
ATOM      7  C   UNL     1      33.866 -22.023 -18.943  0.00  0.00    +0.053 C 
ATOM      8  C   UNL     1      35.169 -21.664 -19.284  0.00  0.00    +0.005 C 
ATOM      9  C   UNL     1      32.785 -21.352 -19.515  0.00  0.00    +0.005 C 
ATOM     10  C   UNL     1      34.312 -19.962 -20.770  0.00  0.00    +0.000 C 
ATOM     11  C   UNL     1      35.393 -20.633 -20.197  0.00  0.00    +0.000 C 
ATOM     12  C   UNL     1      33.008 -20.322 -20.428  0.00  0.00    +0.000 C 
BRANCH  10  15
ATOM     13  O   UNL     1      35.182 -15.886 -24.372  0.00  0.00    -0.163 OA
ATOM     14  N   UNL     1      34.982 -16.829 -23.539  0.00  0.00    -0.127 N 
ATOM     15  C   UNL     1      34.541 -18.892 -21.716  0.00  0.00    +0.003 C 
ATOM     16  C   UNL     1      34.250 -19.079 -23.063  0.00  0.00    +0.022 C 
ATOM     17  C   UNL     1      35.052 -17.675 -21.280  0.00  0.00    +0.022 C 
ATOM     18  C   UNL     1      34.474 -18.043 -23.962  0.00  0.00    +0.121 C 
ATOM     19  C   UNL     1      35.267 -16.653 -22.199  0.00  0.00    +0.121 C 
ENDBRANCH  10  15
ENDBRANCH   5   7
ENDBRANCH   1   4
BRANCH   1  20
ATOM     20  C   UNL     1      34.523 -23.817 -14.646  0.00  0.00    +0.121 C 
BRANCH  20  22
ATOM     21  O   UNL     1      35.808 -21.772 -14.311  0.00  0.00    -0.250 OA
ATOM     22  C   UNL     1      35.585 -22.773 -14.980  0.00  0.00    +0.319 C 
BRANCH  22  23
ATOM     23  O   UNL     1      36.234 -23.128 -16.128  0.00  0.00    -0.444 OA
ATOM     24  C   UNL     1      37.332 -22.289 -16.498  0.00  0.00    +0.256 C 
ENDBRANCH  22  23
ENDBRANCH  20  22
BRANCH  20  25
ATOM     25  C   UNL     1      35.142 -25.230 -14.697  0.00  0.00    +0.039 C 
BRANCH  25  26
ATOM     26  C   UNL     1      36.391 -25.352 -13.855  0.00  0.00    -0.021 C 
ATOM     27  C   UNL     1      37.606 -25.689 -14.453  0.00  0.00    -0.002 C 
ATOM     28  C   UNL     1      36.330 -25.130 -12.479  0.00  0.00    -0.004 C 
ATOM     29  C   UNL     1      38.757 -25.804 -13.675  0.00  0.00    +0.030 C 
ATOM     30  C   UNL     1      37.481 -25.244 -11.702  0.00  0.00    -0.000 C 
ATOM     31  C   UNL     1      38.695 -25.582 -12.299  0.00  0.00    +0.003 C 
BRANCH  29  34
ATOM     32  N   UNL     1      41.000 -26.869 -13.602  0.00  0.00    -0.343 N 
ATOM     33  N   UNL     1      40.265 -25.801 -15.546  0.00  0.00    -0.285 NA
ATOM     34  C   UNL     1      40.023 -26.158 -14.298  0.00  0.00    +0.117 C 
ATOM     35  H   UNL     1      41.850 -27.098 -14.044  0.00  0.00    +0.144 HD
ATOM     36  H   UNL     1      40.840 -27.142 -12.670  0.00  0.00    +0.144 HD
ATOM     37  H   UNL     1      41.122 -26.040 -15.970  0.00  0.00    +0.188 HD
ENDBRANCH  29  34
ENDBRANCH  25  26
ENDBRANCH  20  25
ENDBRANCH   1  20
TORSDOF 9
ENDMDL
MODEL 2
REMARK VINA RESULT:     -11.6      1.452      2.440
REMARK  Name = 5496659
REMARK  9 active torsions:
REMARK  status: ('A' for Active; 'I' for Inactive)
REMARK    1  A    between atoms: C_1  and  N_4
REMARK    2  A    between atoms: C_1  and  C_20
REMARK    3  A    between atoms: C_5  and  C_7
REMARK    4  A    between atoms: C_10  and  C_15
REMARK    5  A    between atoms: C_20  and  C_22
REMARK    6  A    between atoms: C_20  and  C_25
REMARK    7  A    between atoms: C_22  and  O_23
REMARK    8  A    between atoms: C_25  and  C_26
REMARK    9  A    between atoms: C_29  and  C_34
REMARK                            x       y       z     vdW  Elec       q    Type
REMARK                         _______ _______ _______ _____ _____    ______ ____
ROOT
ATOM      1  C   UNL     1      32.450 -23.607 -15.399  0.00  0.00    +0.083 C 
ATOM      2  C   UNL     1      31.258 -23.068 -14.610  0.00  0.00    +0.022 C 
ENDROOT
BRANCH   1   4
ATOM      3  O   UNL     1      33.587 -24.322 -17.936  0.00  0.00    -0.270 OA
ATOM      4  N   UNL     1      32.778 -22.709 -16.482  0.00  0.00    -0.302 N 
ATOM      5  C   UNL     1      33.326 -23.151 -17.675  0.00  0.00    +0.246 C 
ATOM      6  H   UNL     1      32.605 -21.746 -16.367  0.00  0.00    +0.150 HD
BRANCH   5   7
ATOM      7  C   UNL     1      33.630 -22.099 -18.679  0.00  0.00    +0.053 C 
ATOM      8  C   UNL     1      34.952 -21.840 -19.039  0.00  0.00    +0.005 C 
ATOM      9  C   UNL     1      32.593 -21.370 -19.260  0.00  0.00    +0.005 C 
ATOM     10  C   UNL     1      34.199 -20.122 -20.563  0.00  0.00    +0.000 C 
ATOM     11  C   UNL     1      35.237 -20.851 -19.982  0.00  0.00    +0.000 C 
ATOM     12  C   UNL     1      32.877 -20.382 -20.202  0.00  0.00    +0.000 C 
BRANCH  10  15
ATOM     13  O   UNL     1      35.315 -16.212 -24.279  0.00  0.00    -0.163 OA
ATOM     14  N   UNL     1      35.058 -17.116 -23.421  0.00  0.00    -0.127 N 
ATOM     15  C   UNL     1      34.493 -19.096 -21.539  0.00  0.00    +0.003 C 
ATOM     16  C   UNL     1      34.136 -19.278 -22.871  0.00  0.00    +0.022 C 
ATOM     17  C   UNL     1      35.132 -17.925 -21.147  0.00  0.00    +0.022 C 
ATOM     18  C   UNL     1      34.423 -18.284 -23.799  0.00  0.00    +0.121 C 
ATOM     19  C   UNL     1      35.408 -16.945 -22.095  0.00  0.00    +0.121 C 
ENDBRANCH  10  15
ENDBRANCH   5   7
ENDBRANCH   1   4
BRANCH   1  20
ATOM     20  C   UNL     1      33.664 -23.912 -14.492  0.00  0.00    +0.121 C 
BRANCH  20  22
ATOM     21  O   UNL     1      32.334 -25.235 -12.935  0.00  0.00    -0.250 OA
ATOM     22  C   UNL     1      33.220 -24.411 -13.120  0.00  0.00    +0.319 C 
BRANCH  22  23
ATOM     23  O   UNL     1      33.957 -23.798 -12.148  0.00  0.00    -0.444 OA
ATOM     24  C   UNL     1      34.899 -24.637 -11.470  0.00  0.00    +0.256 C 
ENDBRANCH  22  23
ENDBRANCH  20  22
BRANCH  20  25
ATOM     25  C   UNL     1      34.589 -22.687 -14.331  0.00  0.00    +0.039 C 
BRANCH  25  26
ATOM     26  C   UNL     1      35.998 -22.951 -14.811  0.00  0.00    -0.021 C 
ATOM     27  C   UNL     1      36.709 -24.044 -14.317  0.00  0.00    -0.002 C 
ATOM     28  C   UNL     1      36.588 -22.099 -15.744  0.00  0.00    -0.004 C 
ATOM     29  C   UNL     1      38.010 -24.286 -14.758  0.00  0.00    +0.030 C 
ATOM     30  C   UNL     1      37.888 -22.341 -16.185  0.00  0.00    -0.000 C 
ATOM     31  C   UNL     1      38.600 -23.434 -15.691  0.00  0.00    +0.003 C 
BRANCH  29  34
ATOM     32  N   UNL     1      38.677 -25.792 -12.899  0.00  0.00    -0.343 N 
ATOM     33  N   UNL     1      39.521 -26.131 -15.052  0.00  0.00    -0.285 NA
ATOM     34  C   UNL     1      38.753 -25.425 -14.242  0.00  0.00    +0.117 C 
ATOM     35  H   UNL     1      39.188 -26.567 -12.571  0.00  0.00    +0.144 HD
ATOM     36  H   UNL     1      38.111 -25.277 -12.279  0.00  0.00    +0.144 HD
ATOM     37  H   UNL     1      40.025 -26.903 -14.704  0.00  0.00    +0.188 HD
ENDBRANCH  29  34
ENDBRANCH  25  26
ENDBRANCH  20  25
ENDBRANCH   1  20
TORSDOF 9
ENDMDL
MODEL 3
REMARK VINA RESULT:     -10.9      1.805      2.385
REMARK  Name = 5496659
REMARK  9 active torsions:
REMARK  status: ('A' for Active; 'I' for Inactive)
REMARK    1  A    between atoms: C_1  and  N_4
REMARK    2  A    between atoms: C_1  and  C_20
REMARK    3  A    between atoms: C_5  and  C_7
REMARK    4  A    between atoms: C_10  and  C_15
REMARK    5  A    between atoms: C_20  and  C_22
REMARK    6  A    between atoms: C_20  and  C_25
REMARK    7  A    between atoms: C_22  and  O_23
REMARK    8  A    between atoms: C_25  and  C_26
REMARK    9  A    between atoms: C_29  and  C_34
REMARK                            x       y       z     vdW  Elec       q    Type
REMARK                         _______ _______ _______ _____ _____    ______ ____
ROOT
ATOM      1  C   UNL     1      33.207 -23.795 -16.074  0.00  0.00    +0.083 C 
ATOM      2  C   UNL     1      31.824 -23.629 -15.447  0.00  0.00    +0.022 C 
ENDROOT
BRANCH   1   4
ATOM      3  O   UNL     1      33.724 -24.171 -18.873  0.00  0.00    -0.270 OA
ATOM      4  N   UNL     1      33.437 -22.760 -17.056  0.00  0.00    -0.302 N 
ATOM      5  C   UNL     1      33.679 -23.042 -18.391  0.00  0.00    +0.246 C 
ATOM      6  H   UNL     1      33.420 -21.819 -16.765  0.00  0.00    +0.150 HD
BRANCH   5   7
ATOM      7  C   UNL     1      33.920 -21.869 -19.268  0.00  0.00    +0.053 C 
ATOM      8  C   UNL     1      32.842 -21.157 -19.794  0.00  0.00    +0.005 C 
ATOM      9  C   UNL     1      35.225 -21.478 -19.567  0.00  0.00    +0.005 C 
ATOM     10  C   UNL     1      34.374 -19.664 -20.917  0.00  0.00    +0.000 C 
ATOM     11  C   UNL     1      33.069 -20.055 -20.618  0.00  0.00    +0.000 C 
ATOM     12  C   UNL     1      35.453 -20.377 -20.391  0.00  0.00    +0.000 C 
BRANCH  10  15
ATOM     13  O   UNL     1      35.273 -15.317 -24.178  0.00  0.00    -0.163 OA
ATOM     14  N   UNL     1      35.066 -16.322 -23.424  0.00  0.00    -0.127 N 
ATOM     15  C   UNL     1      34.611 -18.522 -21.773  0.00  0.00    +0.003 C 
ATOM     16  C   UNL     1      34.462 -18.643 -23.151  0.00  0.00    +0.022 C 
ATOM     17  C   UNL     1      34.987 -17.303 -21.220  0.00  0.00    +0.022 C 
ATOM     18  C   UNL     1      34.692 -17.538 -23.963  0.00  0.00    +0.121 C 
ATOM     19  C   UNL     1      35.211 -16.213 -22.055  0.00  0.00    +0.121 C 
ENDBRANCH  10  15
ENDBRANCH   5   7
ENDBRANCH   1   4
BRANCH   1  20
ATOM     20  C   UNL     1      34.329 -23.864 -15.012  0.00  0.00    +0.121 C 
BRANCH  20  22
ATOM     21  O   UNL     1      35.428 -21.728 -14.595  0.00  0.00    -0.250 OA
ATOM     22  C   UNL     1      35.371 -22.772 -15.233  0.00  0.00    +0.319 C 
BRANCH  22  23
ATOM     23  O   UNL     1      36.215 -23.140 -16.241  0.00  0.00    -0.444 OA
ATOM     24  C   UNL     1      37.261 -22.209 -16.537  0.00  0.00    +0.256 C 
ENDBRANCH  22  23
ENDBRANCH  20  22
BRANCH  20  25
ATOM     25  C   UNL     1      35.014 -25.247 -14.984  0.00  0.00    +0.039 C 
BRANCH  25  26
ATOM     26  C   UNL     1      35.966 -25.404 -13.821  0.00  0.00    -0.021 C 
ATOM     27  C   UNL     1      35.828 -24.596 -12.692  0.00  0.00    -0.002 C 
ATOM     28  C   UNL     1      36.985 -26.355 -13.877  0.00  0.00    -0.004 C 
ATOM     29  C   UNL     1      36.709 -24.740 -11.620  0.00  0.00    +0.030 C 
ATOM     30  C   UNL     1      37.864 -26.499 -12.804  0.00  0.00    -0.000 C 
ATOM     31  C   UNL     1      37.727 -25.691 -11.676  0.00  0.00    +0.003 C 
BRANCH  29  34
ATOM     32  N   UNL     1      37.080 -22.600 -10.415  0.00  0.00    -0.343 N 
ATOM     33  N   UNL     1      35.942 -24.357  -9.375  0.00  0.00    -0.285 NA
ATOM     34  C   UNL     1      36.566 -23.896 -10.444  0.00  0.00    +0.117 C 
ATOM     35  H   UNL     1      36.972 -22.047  -9.608  0.00  0.00    +0.144 HD
ATOM     36  H   UNL     1      37.551 -22.240 -11.201  0.00  0.00    +0.144 HD
ATOM     37  H   UNL     1      35.845 -23.786  -8.577  0.00  0.00    +0.188 HD
ENDBRANCH  29  34
ENDBRANCH  25  26
ENDBRANCH  20  25
ENDBRANCH   1  20
TORSDOF 9
ENDMDL
MODEL 4
REMARK VINA RESULT:     -10.8      3.949     11.071
REMARK  Name = 5496659
REMARK  9 active torsions:
REMARK  status: ('A' for Active; 'I' for Inactive)
REMARK    1  A    between atoms: C_1  and  N_4
REMARK    2  A    between atoms: C_1  and  C_20
REMARK    3  A    between atoms: C_5  and  C_7
REMARK    4  A    between atoms: C_10  and  C_15
REMARK    5  A    between atoms: C_20  and  C_22
REMARK    6  A    between atoms: C_20  and  C_25
REMARK    7  A    between atoms: C_22  and  O_23
REMARK    8  A    between atoms: C_25  and  C_26
REMARK    9  A    between atoms: C_29  and  C_34
REMARK                            x       y       z     vdW  Elec       q    Type
REMARK                         _______ _______ _______ _____ _____    ______ ____
ROOT
ATOM      1  C   UNL     1      36.029 -19.494 -21.239  0.00  0.00    +0.083 C 
ATOM      2  C   UNL     1      37.287 -18.790 -20.732  0.00  0.00    +0.022 C 
ENDROOT
BRANCH   1   4
ATOM      3  O   UNL     1      36.772 -21.966 -19.982  0.00  0.00    -0.270 OA
ATOM      4  N   UNL     1      35.346 -20.144 -20.146  0.00  0.00    -0.302 N 
ATOM      5  C   UNL     1      35.783 -21.343 -19.603  0.00  0.00    +0.246 C 
ATOM      6  H   UNL     1      34.540 -19.721 -19.772  0.00  0.00    +0.150 HD
BRANCH   5   7
ATOM      7  C   UNL     1      34.957 -21.895 -18.500  0.00  0.00    +0.053 C 
ATOM      8  C   UNL     1      35.561 -22.291 -17.307  0.00  0.00    +0.005 C 
ATOM      9  C   UNL     1      33.577 -22.018 -18.657  0.00  0.00    +0.005 C 
ATOM     10  C   UNL     1      33.403 -22.933 -16.428  0.00  0.00    +0.000 C 
ATOM     11  C   UNL     1      34.784 -22.810 -16.270  0.00  0.00    +0.000 C 
ATOM     12  C   UNL     1      32.800 -22.537 -17.622  0.00  0.00    +0.000 C 
BRANCH  10  15
ATOM     13  O   UNL     1      30.331 -24.992 -12.345  0.00  0.00    -0.163 OA
ATOM     14  N   UNL     1      31.041 -24.515 -13.289  0.00  0.00    -0.127 N 
ATOM     15  C   UNL     1      32.597 -23.473 -15.355  0.00  0.00    +0.003 C 
ATOM     16  C   UNL     1      31.212 -23.356 -15.399  0.00  0.00    +0.022 C 
ATOM     17  C   UNL     1      33.205 -24.110 -14.279  0.00  0.00    +0.022 C 
ATOM     18  C   UNL     1      30.448 -23.880 -14.363  0.00  0.00    +0.121 C 
ATOM     19  C   UNL     1      32.418 -24.626 -13.255  0.00  0.00    +0.121 C 
ENDBRANCH  10  15
ENDBRANCH   5   7
ENDBRANCH   1   4
BRANCH   1  20
ATOM     20  C   UNL     1      35.105 -18.543 -22.035  0.00  0.00    +0.121 C 
BRANCH  20  22
ATOM     21  O   UNL     1      35.040 -20.185 -23.835  0.00  0.00    -0.250 OA
ATOM     22  C   UNL     1      34.521 -19.235 -23.262  0.00  0.00    +0.319 C 
BRANCH  22  23
ATOM     23  O   UNL     1      33.347 -18.634 -23.614  0.00  0.00    -0.444 OA
ATOM     24  C   UNL     1      33.303 -18.101 -24.942  0.00  0.00    +0.256 C 
ENDBRANCH  22  23
ENDBRANCH  20  22
BRANCH  20  25
ATOM     25  C   UNL     1      35.833 -17.249 -22.459  0.00  0.00    +0.039 C 
BRANCH  25  26
ATOM     26  C   UNL     1      34.992 -16.010 -22.252  0.00  0.00    -0.021 C 
ATOM     27  C   UNL     1      34.642 -15.215 -23.343  0.00  0.00    -0.002 C 
ATOM     28  C   UNL     1      34.569 -15.661 -20.969  0.00  0.00    -0.004 C 
ATOM     29  C   UNL     1      33.868 -14.071 -23.151  0.00  0.00    +0.030 C 
ATOM     30  C   UNL     1      33.795 -14.517 -20.779  0.00  0.00    -0.000 C 
ATOM     31  C   UNL     1      33.445 -13.721 -21.869  0.00  0.00    +0.003 C 
BRANCH  29  34
ATOM     32  N   UNL     1      32.815 -13.768 -25.380  0.00  0.00    -0.343 N 
ATOM     33  N   UNL     1      33.832 -11.961 -24.301  0.00  0.00    -0.285 NA
ATOM     34  C   UNL     1      33.504 -13.240 -24.289  0.00  0.00    +0.117 C 
ATOM     35  H   UNL     1      32.579 -13.188 -26.140  0.00  0.00    +0.144 HD
ATOM     36  H   UNL     1      32.565 -14.720 -25.391  0.00  0.00    +0.144 HD
ATOM     37  H   UNL     1      33.586 -11.397 -25.071  0.00  0.00    +0.188 HD
ENDBRANCH  29  34
ENDBRANCH  25  26
ENDBRANCH  20  25
ENDBRANCH   1  20
TORSDOF 9
ENDMDL
MODEL 5
REMARK VINA RESULT:     -10.3      7.174     14.918
REMARK  Name = 5496659
REMARK  9 active torsions:
REMARK  status: ('A' for Active; 'I' for Inactive)
REMARK    1  A    between atoms: C_1  and  N_4
REMARK    2  A    between atoms: C_1  and  C_20
REMARK    3  A    between atoms: C_5  and  C_7
REMARK    4  A    between atoms: C_10  and  C_15
REMARK    5  A    between atoms: C_20  and  C_22
REMARK    6  A    between atoms: C_20  and  C_25
REMARK    7  A    between atoms: C_22  and  O_23
REMARK    8  A    between atoms: C_25  and  C_26
REMARK    9  A    between atoms: C_29  and  C_34
REMARK                            x       y       z     vdW  Elec       q    Type
REMARK                         _______ _______ _______ _____ _____    ______ ____
ROOT
ATOM      1  C   UNL     1      33.530 -11.094 -23.665  0.00  0.00    +0.083 C 
ATOM      2  C   UNL     1      34.742 -10.399 -24.285  0.00  0.00    +0.022 C 
ENDROOT
BRANCH   1   4
ATOM      3  O   UNL     1      33.450 -13.598 -25.066  0.00  0.00    -0.270 OA
ATOM      4  N   UNL     1      33.910 -12.386 -23.144  0.00  0.00    -0.302 N 
ATOM      5  C   UNL     1      33.836 -13.545 -23.901  0.00  0.00    +0.246 C 
ATOM      6  H   UNL     1      34.233 -12.446 -22.216  0.00  0.00    +0.150 HD
BRANCH   5   7
ATOM      7  C   UNL     1      34.239 -14.797 -23.212  0.00  0.00    +0.053 C 
ATOM      8  C   UNL     1      34.527 -15.941 -23.955  0.00  0.00    +0.005 C 
ATOM      9  C   UNL     1      34.329 -14.829 -21.821  0.00  0.00    +0.005 C 
ATOM     10  C   UNL     1      34.995 -17.149 -21.916  0.00  0.00    +0.000 C 
ATOM     11  C   UNL     1      34.905 -17.117 -23.308  0.00  0.00    +0.000 C 
ATOM     12  C   UNL     1      34.706 -16.004 -21.172  0.00  0.00    +0.000 C 
BRANCH  10  15
ATOM     13  O   UNL     1      36.480 -21.791 -19.348  0.00  0.00    -0.163 OA
ATOM     14  N   UNL     1      36.137 -20.718 -19.942  0.00  0.00    -0.127 N 
ATOM     15  C   UNL     1      35.385 -18.369 -21.242  0.00  0.00    +0.003 C 
ATOM     16  C   UNL     1      36.715 -18.576 -20.892  0.00  0.00    +0.022 C 
ATOM     17  C   UNL     1      34.431 -19.334 -20.943  0.00  0.00    +0.022 C 
ATOM     18  C   UNL     1      37.077 -19.751 -20.244  0.00  0.00    +0.121 C 
ATOM     19  C   UNL     1      34.818 -20.502 -20.294  0.00  0.00    +0.121 C 
ENDBRANCH  10  15
ENDBRANCH   5   7
ENDBRANCH   1   4
BRANCH   1  20
ATOM     20  C   UNL     1      32.825 -10.211 -22.610  0.00  0.00    +0.121 C 
BRANCH  20  22
ATOM     21  O   UNL     1      30.638 -11.022 -21.899  0.00  0.00    -0.250 OA
ATOM     22  C   UNL     1      31.855 -11.029 -21.762  0.00  0.00    +0.319 C 
BRANCH  22  23
ATOM     23  O   UNL     1      32.551 -11.758 -20.841  0.00  0.00    -0.444 OA
ATOM     24  C   UNL     1      31.861 -12.890 -20.303  0.00  0.00    +0.256 C 
ENDBRANCH  22  23
ENDBRANCH  20  22
BRANCH  20  25
ATOM     25  C   UNL     1      32.083  -9.021 -23.253  0.00  0.00    +0.039 C 
BRANCH  25  26
ATOM     26  C   UNL     1      32.037  -7.806 -22.355  0.00  0.00    -0.021 C 
ATOM     27  C   UNL     1      31.521  -6.602 -22.836  0.00  0.00    -0.002 C 
ATOM     28  C   UNL     1      32.514  -7.887 -21.047  0.00  0.00    -0.004 C 
ATOM     29  C   UNL     1      31.481  -5.481 -22.007  0.00  0.00    +0.030 C 
ATOM     30  C   UNL     1      32.473  -6.766 -20.219  0.00  0.00    -0.000 C 
ATOM     31  C   UNL     1      31.958  -5.563 -20.699  0.00  0.00    +0.003 C 
BRANCH  29  34
ATOM     32  N   UNL     1      31.320  -3.722 -23.753  0.00  0.00    -0.343 N 
ATOM     33  N   UNL     1      30.086  -3.538 -21.777  0.00  0.00    -0.285 NA
ATOM     34  C   UNL     1      30.944  -4.225 -22.509  0.00  0.00    +0.117 C 
ATOM     35  H   UNL     1      30.944  -2.870 -24.073  0.00  0.00    +0.144 HD
ATOM     36  H   UNL     1      31.961  -4.219 -24.312  0.00  0.00    +0.144 HD
ATOM     37  H   UNL     1      29.722  -2.687 -22.115  0.00  0.00    +0.188 HD
ENDBRANCH  29  34
ENDBRANCH  25  26
ENDBRANCH  20  25
ENDBRANCH   1  20
TORSDOF 9
ENDMDL
MODEL 6
REMARK VINA RESULT:     -10.3      2.006      3.254
REMARK  Name = 5496659
REMARK  9 active torsions:
REMARK  status: ('A' for Active; 'I' for Inactive)
REMARK    1  A    between atoms: C_1  and  N_4
REMARK    2  A    between atoms: C_1  and  C_20
REMARK    3  A    between atoms: C_5  and  C_7
REMARK    4  A    between atoms: C_10  and  C_15
REMARK    5  A    between atoms: C_20  and  C_22
REMARK    6  A    between atoms: C_20  and  C_25
REMARK    7  A    between atoms: C_22  and  O_23
REMARK    8  A    between atoms: C_25  and  C_26
REMARK    9  A    between atoms: C_29  and  C_34
REMARK                            x       y       z     vdW  Elec       q    Type
REMARK                         _______ _______ _______ _____ _____    ______ ____
ROOT
ATOM      1  C   UNL     1      35.608 -22.238 -16.394  0.00  0.00    +0.083 C 
ATOM      2  C   UNL     1      37.101 -22.524 -16.241  0.00  0.00    +0.022 C 
ENDROOT
BRANCH   1   4
ATOM      3  O   UNL     1      36.923 -22.450 -18.937  0.00  0.00    -0.270 OA
ATOM      4  N   UNL     1      35.375 -21.414 -17.557  0.00  0.00    -0.302 N 
ATOM      5  C   UNL     1      36.063 -21.594 -18.747  0.00  0.00    +0.246 C 
ATOM      6  H   UNL     1      34.702 -20.697 -17.502  0.00  0.00    +0.150 HD
BRANCH   5   7
ATOM      7  C   UNL     1      35.726 -20.648 -19.840  0.00  0.00    +0.053 C 
ATOM      8  C   UNL     1      34.417 -20.569 -20.316  0.00  0.00    +0.005 C 
ATOM      9  C   UNL     1      36.717 -19.837 -20.392  0.00  0.00    +0.005 C 
ATOM     10  C   UNL     1      35.092 -18.870 -21.896  0.00  0.00    +0.000 C 
ATOM     11  C   UNL     1      34.100 -19.681 -21.344  0.00  0.00    +0.000 C 
ATOM     12  C   UNL     1      36.401 -18.949 -21.419  0.00  0.00    +0.000 C 
BRANCH  10  15
ATOM     13  O   UNL     1      33.846 -15.365 -25.958  0.00  0.00    -0.163 OA
ATOM     14  N   UNL     1      34.135 -16.176 -25.019  0.00  0.00    -0.127 N 
ATOM     15  C   UNL     1      34.766 -17.950 -22.963  0.00  0.00    +0.003 C 
ATOM     16  C   UNL     1      34.073 -18.399 -24.082  0.00  0.00    +0.022 C 
ATOM     17  C   UNL     1      35.143 -16.615 -22.871  0.00  0.00    +0.022 C 
ATOM     18  C   UNL     1      33.764 -17.504 -25.100  0.00  0.00    +0.121 C 
ATOM     19  C   UNL     1      34.823 -15.740 -23.904  0.00  0.00    +0.121 C 
ENDBRANCH  10  15
ENDBRANCH   5   7
ENDBRANCH   1   4
BRANCH   1  20
ATOM     20  C   UNL     1      34.761 -23.532 -16.403  0.00  0.00    +0.121 C 
BRANCH  20  22
ATOM     21  O   UNL     1      33.416 -23.876 -18.407  0.00  0.00    -0.250 OA
ATOM     22  C   UNL     1      33.531 -23.382 -17.292  0.00  0.00    +0.319 C 
BRANCH  22  23
ATOM     23  O   UNL     1      32.594 -22.620 -16.656  0.00  0.00    -0.444 OA
ATOM     24  C   UNL     1      31.369 -23.289 -16.339  0.00  0.00    +0.256 C 
ENDBRANCH  22  23
ENDBRANCH  20  22
BRANCH  20  25
ATOM     25  C   UNL     1      34.334 -23.954 -14.982  0.00  0.00    +0.039 C 
BRANCH  25  26
ATOM     26  C   UNL     1      35.468 -24.557 -14.185  0.00  0.00    -0.021 C 
ATOM     27  C   UNL     1      35.964 -23.891 -13.064  0.00  0.00    -0.002 C 
ATOM     28  C   UNL     1      36.020 -25.778 -14.572  0.00  0.00    -0.004 C 
ATOM     29  C   UNL     1      37.012 -24.446 -12.331  0.00  0.00    +0.030 C 
ATOM     30  C   UNL     1      37.068 -26.333 -13.838  0.00  0.00    -0.000 C 
ATOM     31  C   UNL     1      37.564 -25.667 -12.718  0.00  0.00    +0.003 C 
BRANCH  29  34
ATOM     32  N   UNL     1      36.757 -23.586 -10.015  0.00  0.00    -0.343 N 
ATOM     33  N   UNL     1      38.756 -23.258 -11.182  0.00  0.00    -0.285 NA
ATOM     34  C   UNL     1      37.531 -23.751 -11.163  0.00  0.00    +0.117 C 
ATOM     35  H   UNL     1      37.128 -23.112  -9.236  0.00  0.00    +0.144 HD
ATOM     36  H   UNL     1      35.841 -23.944  -9.983  0.00  0.00    +0.144 HD
ATOM     37  H   UNL     1      39.108 -22.786 -10.391  0.00  0.00    +0.188 HD
ENDBRANCH  29  34
ENDBRANCH  25  26
ENDBRANCH  20  25
ENDBRANCH   1  20
TORSDOF 9
ENDMDL
MODEL 7
REMARK VINA RESULT:     -10.1      2.422      5.511
REMARK  Name = 5496659
REMARK  9 active torsions:
REMARK  status: ('A' for Active; 'I' for Inactive)
REMARK    1  A    between atoms: C_1  and  N_4
REMARK    2  A    between atoms: C_1  and  C_20
REMARK    3  A    between atoms: C_5  and  C_7
REMARK    4  A    between atoms: C_10  and  C_15
REMARK    5  A    between atoms: C_20  and  C_22
REMARK    6  A    between atoms: C_20  and  C_25
REMARK    7  A    between atoms: C_22  and  O_23
REMARK    8  A    between atoms: C_25  and  C_26
REMARK    9  A    between atoms: C_29  and  C_34
REMARK                            x       y       z     vdW  Elec       q    Type
REMARK                         _______ _______ _______ _____ _____    ______ ____
ROOT
ATOM      1  C   UNL     1      36.061 -22.424 -15.296  0.00  0.00    +0.083 C 
ATOM      2  C   UNL     1      37.389 -23.174 -15.393  0.00  0.00    +0.022 C 
ENDROOT
BRANCH   1   4
ATOM      3  O   UNL     1      37.658 -22.482 -17.681  0.00  0.00    -0.270 OA
ATOM      4  N   UNL     1      35.781 -21.743 -16.539  0.00  0.00    -0.302 N 
ATOM      5  C   UNL     1      36.616 -21.833 -17.642  0.00  0.00    +0.246 C 
ATOM      6  H   UNL     1      34.965 -21.195 -16.606  0.00  0.00    +0.150 HD
BRANCH   5   7
ATOM      7  C   UNL     1      36.201 -21.054 -18.835  0.00  0.00    +0.053 C 
ATOM      8  C   UNL     1      34.909 -21.190 -19.342  0.00  0.00    +0.005 C 
ATOM      9  C   UNL     1      37.103 -20.186 -19.450  0.00  0.00    +0.005 C 
ATOM     10  C   UNL     1      35.421 -19.590 -21.079  0.00  0.00    +0.000 C 
ATOM     11  C   UNL     1      34.518 -20.458 -20.464  0.00  0.00    +0.000 C 
ATOM     12  C   UNL     1      36.714 -19.454 -20.572  0.00  0.00    +0.000 C 
BRANCH  10  15
ATOM     13  O   UNL     1      33.893 -16.703 -25.515  0.00  0.00    -0.163 OA
ATOM     14  N   UNL     1      34.245 -17.370 -24.489  0.00  0.00    -0.127 N 
ATOM     15  C   UNL     1      35.019 -18.832 -22.243  0.00  0.00    +0.003 C 
ATOM     16  C   UNL     1      35.366 -17.489 -22.354  0.00  0.00    +0.022 C 
ATOM     17  C   UNL     1      34.286 -19.444 -23.254  0.00  0.00    +0.022 C 
ATOM     18  C   UNL     1      34.974 -16.772 -23.479  0.00  0.00    +0.121 C 
ATOM     19  C   UNL     1      33.906 -18.704 -24.369  0.00  0.00    +0.121 C 
ENDBRANCH  10  15
ENDBRANCH   5   7
ENDBRANCH   1   4
BRANCH   1  20
ATOM     20  C   UNL     1      34.901 -23.341 -14.847  0.00  0.00    +0.121 C 
BRANCH  20  22
ATOM     21  O   UNL     1      35.592 -25.597 -15.462  0.00  0.00    -0.250 OA
ATOM     22  C   UNL     1      35.387 -24.764 -14.588  0.00  0.00    +0.319 C 
BRANCH  22  23
ATOM     23  O   UNL     1      35.552 -24.956 -13.246  0.00  0.00    -0.444 OA
ATOM     24  C   UNL     1      36.717 -25.699 -12.870  0.00  0.00    +0.256 C 
ENDBRANCH  22  23
ENDBRANCH  20  22
BRANCH  20  25
ATOM     25  C   UNL     1      33.747 -23.360 -15.872  0.00  0.00    +0.039 C 
BRANCH  25  26
ATOM     26  C   UNL     1      32.384 -23.386 -15.218  0.00  0.00    -0.021 C 
ATOM     27  C   UNL     1      31.233 -23.325 -16.004  0.00  0.00    -0.002 C 
ATOM     28  C   UNL     1      32.278 -23.467 -13.830  0.00  0.00    -0.004 C 
ATOM     29  C   UNL     1      29.976 -23.346 -15.400  0.00  0.00    +0.030 C 
ATOM     30  C   UNL     1      31.021 -23.489 -13.227  0.00  0.00    -0.000 C 
ATOM     31  C   UNL     1      29.870 -23.427 -14.012  0.00  0.00    +0.003 C 
BRANCH  29  34
ATOM     32  N   UNL     1      28.079 -24.435 -16.578  0.00  0.00    -0.343 N 
ATOM     33  N   UNL     1      28.329 -22.112 -16.640  0.00  0.00    -0.285 NA
ATOM     34  C   UNL     1      28.775 -23.282 -16.219  0.00  0.00    +0.117 C 
ATOM     35  H   UNL     1      27.269 -24.368 -17.133  0.00  0.00    +0.144 HD
ATOM     36  H   UNL     1      28.398 -25.316 -16.276  0.00  0.00    +0.144 HD
ATOM     37  H   UNL     1      27.515 -22.066 -17.195  0.00  0.00    +0.188 HD
ENDBRANCH  29  34
ENDBRANCH  25  26
ENDBRANCH  20  25
ENDBRANCH   1  20
TORSDOF 9
ENDMDL
MODEL 8
REMARK VINA RESULT:      -9.9      4.073     11.134
REMARK  Name = 5496659
REMARK  9 active torsions:
REMARK  status: ('A' for Active; 'I' for Inactive)
REMARK    1  A    between atoms: C_1  and  N_4
REMARK    2  A    between atoms: C_1  and  C_20
REMARK    3  A    between atoms: C_5  and  C_7
REMARK    4  A    between atoms: C_10  and  C_15
REMARK    5  A    between atoms: C_20  and  C_22
REMARK    6  A    between atoms: C_20  and  C_25
REMARK    7  A    between atoms: C_22  and  O_23
REMARK    8  A    between atoms: C_25  and  C_26
REMARK    9  A    between atoms: C_29  and  C_34
REMARK                            x       y       z     vdW  Elec       q    Type
REMARK                         _______ _______ _______ _____ _____    ______ ____
ROOT
ATOM      1  C   UNL     1      36.036 -19.306 -21.427  0.00  0.00    +0.083 C 
ATOM      2  C   UNL     1      37.187 -18.490 -20.841  0.00  0.00    +0.022 C 
ENDROOT
BRANCH   1   4
ATOM      3  O   UNL     1      36.913 -21.634 -19.994  0.00  0.00    -0.270 OA
ATOM      4  N   UNL     1      35.323 -19.990 -20.374  0.00  0.00    -0.302 N 
ATOM      5  C   UNL     1      35.831 -21.112 -19.738  0.00  0.00    +0.246 C 
ATOM      6  H   UNL     1      34.442 -19.646 -20.096  0.00  0.00    +0.150 HD
BRANCH   5   7
ATOM      7  C   UNL     1      34.964 -21.714 -18.693  0.00  0.00    +0.053 C 
ATOM      8  C   UNL     1      33.582 -21.756 -18.872  0.00  0.00    +0.005 C 
ATOM      9  C   UNL     1      35.532 -22.237 -17.532  0.00  0.00    +0.005 C 
ATOM     10  C   UNL     1      33.336 -22.844 -16.729  0.00  0.00    +0.000 C 
ATOM     11  C   UNL     1      32.767 -22.320 -17.890  0.00  0.00    +0.000 C 
ATOM     12  C   UNL     1      34.719 -22.801 -16.550  0.00  0.00    +0.000 C 
BRANCH  10  15
ATOM     13  O   UNL     1      30.126 -25.071 -12.846  0.00  0.00    -0.163 OA
ATOM     14  N   UNL     1      30.867 -24.555 -13.743  0.00  0.00    -0.127 N 
ATOM     15  C   UNL     1      32.493 -23.428 -15.709  0.00  0.00    +0.003 C 
ATOM     16  C   UNL     1      31.112 -23.448 -15.874  0.00  0.00    +0.022 C 
ATOM     17  C   UNL     1      33.062 -23.971 -14.562  0.00  0.00    +0.022 C 
ATOM     18  C   UNL     1      30.313 -24.013 -14.887  0.00  0.00    +0.121 C 
ATOM     19  C   UNL     1      32.240 -24.530 -13.589  0.00  0.00    +0.121 C 
ENDBRANCH  10  15
ENDBRANCH   5   7
ENDBRANCH   1   4
BRANCH   1  20
ATOM     20  C   UNL     1      35.104 -18.451 -22.317  0.00  0.00    +0.121 C 
BRANCH  20  22
ATOM     21  O   UNL     1      35.103 -20.137 -24.078  0.00  0.00    -0.250 OA
ATOM     22  C   UNL     1      34.498 -19.282 -23.444  0.00  0.00    +0.319 C 
BRANCH  22  23
ATOM     23  O   UNL     1      33.194 -18.923 -23.630  0.00  0.00    -0.444 OA
ATOM     24  C   UNL     1      32.783 -18.782 -24.993  0.00  0.00    +0.256 C 
ENDBRANCH  22  23
ENDBRANCH  20  22
BRANCH  20  25
ATOM     25  C   UNL     1      35.831 -17.223 -22.903  0.00  0.00    +0.039 C 
BRANCH  25  26
ATOM     26  C   UNL     1      34.879 -16.127 -23.327  0.00  0.00    -0.021 C 
ATOM     27  C   UNL     1      34.335 -15.268 -22.372  0.00  0.00    -0.002 C 
ATOM     28  C   UNL     1      34.544 -15.977 -24.673  0.00  0.00    -0.004 C 
ATOM     29  C   UNL     1      33.455 -14.260 -22.764  0.00  0.00    +0.030 C 
ATOM     30  C   UNL     1      33.665 -14.968 -25.064  0.00  0.00    -0.000 C 
ATOM     31  C   UNL     1      33.119 -14.110 -24.110  0.00  0.00    +0.003 C 
BRANCH  29  34
ATOM     32  N   UNL     1      32.663 -13.786 -20.458  0.00  0.00    -0.343 N 
ATOM     33  N   UNL     1      32.565 -12.128 -22.102  0.00  0.00    -0.285 NA
ATOM     34  C   UNL     1      32.885 -13.365 -21.768  0.00  0.00    +0.117 C 
ATOM     35  H   UNL     1      32.276 -13.164 -19.801  0.00  0.00    +0.144 HD
ATOM     36  H   UNL     1      32.892 -14.706 -20.191  0.00  0.00    +0.144 HD
ATOM     37  H   UNL     1      32.178 -11.521 -21.429  0.00  0.00    +0.188 HD
ENDBRANCH  29  34
ENDBRANCH  25  26
ENDBRANCH  20  25
ENDBRANCH   1  20
TORSDOF 9
ENDMDL
MODEL 9
REMARK VINA RESULT:      -9.9      6.248     10.862
REMARK  Name = 5496659
REMARK  9 active torsions:
REMARK  status: ('A' for Active; 'I' for Inactive)
REMARK    1  A    between atoms: C_1  and  N_4
REMARK    2  A    between atoms: C_1  and  C_20
REMARK    3  A    between atoms: C_5  and  C_7
REMARK    4  A    between atoms: C_10  and  C_15
REMARK    5  A    between atoms: C_20  and  C_22
REMARK    6  A    between atoms: C_20  and  C_25
REMARK    7  A    between atoms: C_22  and  O_23
REMARK    8  A    between atoms: C_25  and  C_26
REMARK    9  A    between atoms: C_29  and  C_34
REMARK                            x       y       z     vdW  Elec       q    Type
REMARK                         _______ _______ _______ _____ _____    ______ ____
ROOT
ATOM      1  C   UNL     1      33.940 -15.543 -21.254  0.00  0.00    +0.083 C 
ATOM      2  C   UNL     1      34.593 -15.809 -19.898  0.00  0.00    +0.022 C 
ENDROOT
BRANCH   1   4
ATOM      3  O   UNL     1      31.841 -14.194 -19.834  0.00  0.00    -0.270 OA
ATOM      4  N   UNL     1      33.579 -14.150 -21.369  0.00  0.00    -0.302 N 
ATOM      5  C   UNL     1      32.544 -13.587 -20.637  0.00  0.00    +0.246 C 
ATOM      6  H   UNL     1      34.086 -13.578 -21.990  0.00  0.00    +0.150 HD
BRANCH   5   7
ATOM      7  C   UNL     1      32.281 -12.147 -20.888  0.00  0.00    +0.053 C 
ATOM      8  C   UNL     1      31.764 -11.345 -19.871  0.00  0.00    +0.005 C 
ATOM      9  C   UNL     1      32.550 -11.597 -22.141  0.00  0.00    +0.005 C 
ATOM     10  C   UNL     1      31.787  -9.442 -21.361  0.00  0.00    +0.000 C 
ATOM     11  C   UNL     1      31.517  -9.992 -20.107  0.00  0.00    +0.000 C 
ATOM     12  C   UNL     1      32.303 -10.245 -22.378  0.00  0.00    +0.000 C 
BRANCH  10  15
ATOM     13  O   UNL     1      30.809  -4.104 -22.302  0.00  0.00    -0.163 OA
ATOM     14  N   UNL     1      31.034  -5.338 -22.084  0.00  0.00    -0.127 N 
ATOM     15  C   UNL     1      31.529  -8.040 -21.608  0.00  0.00    +0.003 C 
ATOM     16  C   UNL     1      31.822  -7.096 -20.630  0.00  0.00    +0.022 C 
ATOM     17  C   UNL     1      30.989  -7.635 -22.823  0.00  0.00    +0.022 C 
ATOM     18  C   UNL     1      31.570  -5.751 -20.880  0.00  0.00    +0.121 C 
ATOM     19  C   UNL     1      30.747  -6.284 -23.049  0.00  0.00    +0.121 C 
ENDBRANCH  10  15
ENDBRANCH   5   7
ENDBRANCH   1   4
BRANCH   1  20
ATOM     20  C   UNL     1      34.816 -16.029 -22.432  0.00  0.00    +0.121 C 
BRANCH  20  22
ATOM     21  O   UNL     1      34.803 -13.943 -23.694  0.00  0.00    -0.250 OA
ATOM     22  C   UNL     1      34.620 -15.154 -23.666  0.00  0.00    +0.319 C 
BRANCH  22  23
ATOM     23  O   UNL     1      34.212 -15.925 -24.716  0.00  0.00    -0.444 OA
ATOM     24  C   UNL     1      33.341 -15.281 -25.651  0.00  0.00    +0.256 C 
ENDBRANCH  22  23
ENDBRANCH  20  22
BRANCH  20  25
ATOM     25  C   UNL     1      34.543 -17.505 -22.786  0.00  0.00    +0.039 C 
BRANCH  25  26
ATOM     26  C   UNL     1      35.194 -18.469 -21.821  0.00  0.00    -0.021 C 
ATOM     27  C   UNL     1      34.422 -19.431 -21.168  0.00  0.00    -0.002 C 
ATOM     28  C   UNL     1      36.566 -18.395 -21.579  0.00  0.00    -0.004 C 
ATOM     29  C   UNL     1      35.023 -20.318 -20.276  0.00  0.00    +0.030 C 
ATOM     30  C   UNL     1      37.166 -19.282 -20.687  0.00  0.00    -0.000 C 
ATOM     31  C   UNL     1      36.394 -20.243 -20.034  0.00  0.00    +0.003 C 
BRANCH  29  34
ATOM     32  N   UNL     1      32.834 -21.185 -19.483  0.00  0.00    -0.343 N 
ATOM     33  N   UNL     1      34.799 -22.380 -19.062  0.00  0.00    -0.285 NA
ATOM     34  C   UNL     1      34.217 -21.320 -19.594  0.00  0.00    +0.117 C 
ATOM     35  H   UNL     1      32.309 -21.875 -19.017  0.00  0.00    +0.144 HD
ATOM     36  H   UNL     1      32.384 -20.400 -19.871  0.00  0.00    +0.144 HD
ATOM     37  H   UNL     1      34.254 -23.059 -18.600  0.00  0.00    +0.188 HD
ENDBRANCH  29  34
ENDBRANCH  25  26
ENDBRANCH  20  25
ENDBRANCH   1  20
TORSDOF 9
ENDMDL
