MODEL 1
REMARK VINA RESULT:     -12.1      0.000      0.000
REMARK  Name = 5326868
REMARK  6 active torsions:
REMARK  status: ('A' for Active; 'I' for Inactive)
REMARK    1  A    between atoms: C_2  and  C_28
REMARK    2  A    between atoms: C_7  and  N_12
REMARK    3  A    between atoms: C_13  and  C_18
REMARK    4  A    between atoms: C_16  and  N_23
REMARK    5  A    between atoms: C_28  and  C_29
REMARK    6  A    between atoms: C_29  and  C_31
REMARK                            x       y       z     vdW  Elec       q    Type
REMARK                         _______ _______ _______ _____ _____    ______ ____
ROOT
ATOM      1  N   UNL     1      34.282 -17.387 -25.036  0.00  0.00    -0.312 N 
ATOM      2  C   UNL     1      34.800 -17.121 -22.893  0.00  0.00    -0.006 C 
ATOM      3  C   UNL     1      34.295 -15.885 -23.386  0.00  0.00    +0.012 C 
ATOM      4  C   UNL     1      33.979 -16.079 -24.732  0.00  0.00    +0.048 C 
ATOM      5  C   UNL     1      34.779 -18.024 -23.931  0.00  0.00    +0.058 C 
ATOM      6  C   UNL     1      34.079 -14.615 -22.814  0.00  0.00    +0.016 C 
ATOM      7  C   UNL     1      33.553 -13.590 -23.608  0.00  0.00    +0.051 C 
ATOM      8  C   UNL     1      33.452 -15.063 -25.538  0.00  0.00    +0.016 C 
ATOM      9  C   UNL     1      33.245 -13.812 -24.949  0.00  0.00    +0.016 C 
ATOM     10  H   UNL     1      34.160 -17.803 -25.919  0.00  0.00    +0.152 HD
ENDROOT
BRANCH   7  12
ATOM     11  O   UNL     1      31.498 -12.679 -21.623  0.00  0.00    -0.270 OA
ATOM     12  N   UNL     1      33.335 -12.328 -23.049  0.00  0.00    -0.280 N 
ATOM     13  C   UNL     1      32.355 -11.955 -22.121  0.00  0.00    +0.250 C 
ATOM     14  H   UNL     1      33.945 -11.615 -23.344  0.00  0.00    +0.155 HD
BRANCH  13  18
ATOM     15  F   UNL     1      31.506  -8.459 -18.890  0.00  0.00    -0.204 F 
ATOM     16  C   UNL     1      32.809  -8.239 -22.280  0.00  0.00    +0.050 C 
ATOM     17  C   UNL     1      32.804  -9.586 -22.645  0.00  0.00    +0.019 C 
ATOM     18  C   UNL     1      32.359 -10.520 -21.734  0.00  0.00    +0.057 C 
ATOM     19  C   UNL     1      32.371  -7.859 -21.011  0.00  0.00    +0.044 C 
ATOM     20  C   UNL     1      31.921 -10.171 -20.473  0.00  0.00    +0.034 C 
ATOM     21  C   UNL     1      31.926  -8.825 -20.108  0.00  0.00    +0.142 C 
BRANCH  16  23
ATOM     22  O   UNL     1      34.151  -5.145 -24.791  0.00  0.00    -0.350 OA
ATOM     23  N   UNL     1      33.256  -7.270 -23.185  0.00  0.00    -0.303 N 
ATOM     24  C   UNL     1      34.690  -6.980 -23.297  0.00  0.00    +0.123 C 
ATOM     25  C   UNL     1      32.364  -6.144 -23.491  0.00  0.00    +0.123 C 
ATOM     26  C   UNL     1      34.974  -6.300 -24.632  0.00  0.00    +0.164 C 
ATOM     27  C   UNL     1      32.771  -5.510 -24.816  0.00  0.00    +0.164 C 
ENDBRANCH  16  23
ENDBRANCH  13  18
ENDBRANCH   7  12
BRANCH   2  28
ATOM     28  C   UNL     1      35.264 -17.395 -21.519  0.00  0.00    +0.032 C 
BRANCH  28  29
ATOM     29  C   UNL     1      36.058 -18.711 -21.361  0.00  0.00    +0.031 C 
BRANCH  29  31
ATOM     30  N   UNL     1      33.901 -21.740 -19.230  0.00  0.00    -0.242 NA
ATOM     31  C   UNL     1      35.298 -19.777 -20.611  0.00  0.00    -0.019 C 
ATOM     32  C   UNL     1      35.992 -20.695 -19.847  0.00  0.00    +0.016 C 
ATOM     33  C   UNL     1      33.921 -19.821 -20.700  0.00  0.00    +0.016 C 
ATOM     34  C   UNL     1      35.249 -21.654 -19.177  0.00  0.00    +0.099 C 
ATOM     35  C   UNL     1      33.270 -20.819 -19.992  0.00  0.00    +0.099 C 
ENDBRANCH  29  31
ENDBRANCH  28  29
ENDBRANCH   2  28
TORSDOF 6
ENDMDL
MODEL 2
REMARK VINA RESULT:     -11.4      4.873     12.067
REMARK  Name = 5326868
REMARK  6 active torsions:
REMARK  status: ('A' for Active; 'I' for Inactive)
REMARK    1  A    between atoms: C_2  and  C_28
REMARK    2  A    between atoms: C_7  and  N_12
REMARK    3  A    between atoms: C_13  and  C_18
REMARK    4  A    between atoms: C_16  and  N_23
REMARK    5  A    between atoms: C_28  and  C_29
REMARK    6  A    between atoms: C_29  and  C_31
REMARK                            x       y       z     vdW  Elec       q    Type
REMARK                         _______ _______ _______ _____ _____    ______ ____
ROOT
ATOM      1  N   UNL     1      34.464 -16.606 -24.758  0.00  0.00    -0.312 N 
ATOM      2  C   UNL     1      34.578 -15.600 -22.782  0.00  0.00    -0.006 C 
ATOM      3  C   UNL     1      34.652 -17.006 -22.572  0.00  0.00    +0.012 C 
ATOM      4  C   UNL     1      34.578 -17.613 -23.827  0.00  0.00    +0.048 C 
ATOM      5  C   UNL     1      34.463 -15.385 -24.136  0.00  0.00    +0.058 C 
ATOM      6  C   UNL     1      34.774 -17.822 -21.429  0.00  0.00    +0.016 C 
ATOM      7  C   UNL     1      34.819 -19.212 -21.585  0.00  0.00    +0.051 C 
ATOM      8  C   UNL     1      34.621 -19.001 -23.998  0.00  0.00    +0.016 C 
ATOM      9  C   UNL     1      34.744 -19.791 -22.851  0.00  0.00    +0.016 C 
ATOM     10  H   UNL     1      34.394 -16.742 -25.730  0.00  0.00    +0.152 HD
ENDROOT
BRANCH   7  12
ATOM     11  O   UNL     1      32.798 -20.979 -20.249  0.00  0.00    -0.270 OA
ATOM     12  N   UNL     1      34.939 -20.028 -20.458  0.00  0.00    -0.280 N 
ATOM     13  C   UNL     1      33.957 -20.838 -19.873  0.00  0.00    +0.250 C 
ATOM     14  H   UNL     1      35.821 -20.035 -20.022  0.00  0.00    +0.155 HD
BRANCH  13  18
ATOM     15  F   UNL     1      37.433 -22.457 -16.926  0.00  0.00    -0.204 F 
ATOM     16  C   UNL     1      33.820 -22.826 -16.700  0.00  0.00    +0.050 C 
ATOM     17  C   UNL     1      33.419 -22.137 -17.845  0.00  0.00    +0.019 C 
ATOM     18  C   UNL     1      34.384 -21.574 -18.654  0.00  0.00    +0.057 C 
ATOM     19  C   UNL     1      35.176 -22.934 -16.390  0.00  0.00    +0.044 C 
ATOM     20  C   UNL     1      35.730 -21.665 -18.369  0.00  0.00    +0.034 C 
ATOM     21  C   UNL     1      36.131 -22.354 -17.225  0.00  0.00    +0.142 C 
BRANCH  16  23
ATOM     22  O   UNL     1      30.938 -24.336 -14.036  0.00  0.00    -0.350 OA
ATOM     23  N   UNL     1      32.863 -23.407 -15.862  0.00  0.00    -0.303 N 
ATOM     24  C   UNL     1      31.436 -23.164 -16.102  0.00  0.00    +0.123 C 
ATOM     25  C   UNL     1      33.227 -23.656 -14.461  0.00  0.00    +0.123 C 
ATOM     26  C   UNL     1      30.608 -24.248 -15.422  0.00  0.00    +0.164 C 
ATOM     27  C   UNL     1      32.305 -24.715 -13.869  0.00  0.00    +0.164 C 
ENDBRANCH  16  23
ENDBRANCH  13  18
ENDBRANCH   7  12
BRANCH   2  28
ATOM     28  C   UNL     1      34.617 -14.553 -21.742  0.00  0.00    +0.032 C 
BRANCH  28  29
ATOM     29  C   UNL     1      33.285 -14.350 -20.987  0.00  0.00    +0.031 C 
BRANCH  29  31
ATOM     30  N   UNL     1      31.587 -10.458 -21.571  0.00  0.00    -0.242 NA
ATOM     31  C   UNL     1      32.687 -12.979 -21.192  0.00  0.00    -0.019 C 
ATOM     32  C   UNL     1      32.974 -12.279 -22.348  0.00  0.00    +0.016 C 
ATOM     33  C   UNL     1      31.862 -12.445 -20.222  0.00  0.00    +0.016 C 
ATOM     34  C   UNL     1      32.401 -11.026 -22.489  0.00  0.00    +0.099 C 
ATOM     35  C   UNL     1      31.338 -11.184 -20.458  0.00  0.00    +0.099 C 
ENDBRANCH  29  31
ENDBRANCH  28  29
ENDBRANCH   2  28
TORSDOF 6
ENDMDL
MODEL 3
REMARK VINA RESULT:     -11.2      4.770      9.202
REMARK  Name = 5326868
REMARK  6 active torsions:
REMARK  status: ('A' for Active; 'I' for Inactive)
REMARK    1  A    between atoms: C_2  and  C_28
REMARK    2  A    between atoms: C_7  and  N_12
REMARK    3  A    between atoms: C_13  and  C_18
REMARK    4  A    between atoms: C_16  and  N_23
REMARK    5  A    between atoms: C_28  and  C_29
REMARK    6  A    between atoms: C_29  and  C_31
REMARK                            x       y       z     vdW  Elec       q    Type
REMARK                         _______ _______ _______ _____ _____    ______ ____
ROOT
ATOM      1  N   UNL     1      36.228 -23.041 -15.594  0.00  0.00    -0.312 N 
ATOM      2  C   UNL     1      34.138 -23.210 -16.324  0.00  0.00    -0.006 C 
ATOM      3  C   UNL     1      34.877 -22.438 -17.264  0.00  0.00    +0.012 C 
ATOM      4  C   UNL     1      36.185 -22.347 -16.782  0.00  0.00    +0.048 C 
ATOM      5  C   UNL     1      34.996 -23.566 -15.309  0.00  0.00    +0.058 C 
ATOM      6  C   UNL     1      34.557 -21.805 -18.482  0.00  0.00    +0.016 C 
ATOM      7  C   UNL     1      35.555 -21.107 -19.171  0.00  0.00    +0.051 C 
ATOM      8  C   UNL     1      37.193 -21.652 -17.461  0.00  0.00    +0.016 C 
ATOM      9  C   UNL     1      36.852 -21.033 -18.667  0.00  0.00    +0.016 C 
ATOM     10  H   UNL     1      37.029 -23.144 -15.032  0.00  0.00    +0.152 HD
ENDROOT
BRANCH   7  12
ATOM     11  O   UNL     1      36.414 -18.440 -20.238  0.00  0.00    -0.270 OA
ATOM     12  N   UNL     1      35.246 -20.477 -20.379  0.00  0.00    -0.280 N 
ATOM     13  C   UNL     1      35.677 -19.223 -20.830  0.00  0.00    +0.250 C 
ATOM     14  H   UNL     1      34.654 -20.974 -20.986  0.00  0.00    +0.155 HD
BRANCH  13  18
ATOM     15  F   UNL     1      34.256 -20.304 -25.324  0.00  0.00    -0.204 F 
ATOM     16  C   UNL     1      34.380 -17.089 -23.624  0.00  0.00    +0.050 C 
ATOM     17  C   UNL     1      34.875 -17.476 -22.378  0.00  0.00    +0.019 C 
ATOM     18  C   UNL     1      35.151 -18.809 -22.157  0.00  0.00    +0.057 C 
ATOM     19  C   UNL     1      34.171 -18.044 -24.619  0.00  0.00    +0.044 C 
ATOM     20  C   UNL     1      34.952 -19.773 -23.123  0.00  0.00    +0.034 C 
ATOM     21  C   UNL     1      34.458 -19.387 -24.368  0.00  0.00    +0.142 C 
BRANCH  16  23
ATOM     22  O   UNL     1      33.784 -13.004 -24.422  0.00  0.00    -0.350 OA
ATOM     23  N   UNL     1      34.092 -15.744 -23.875  0.00  0.00    -0.303 N 
ATOM     24  C   UNL     1      33.908 -15.280 -25.255  0.00  0.00    +0.123 C 
ATOM     25  C   UNL     1      34.614 -14.737 -22.941  0.00  0.00    +0.123 C 
ATOM     26  C   UNL     1      33.138 -13.964 -25.257  0.00  0.00    +0.164 C 
ATOM     27  C   UNL     1      33.804 -13.451 -23.065  0.00  0.00    +0.164 C 
ENDBRANCH  16  23
ENDBRANCH  13  18
ENDBRANCH   7  12
BRANCH   2  28
ATOM     28  C   UNL     1      32.709 -23.570 -16.413  0.00  0.00    +0.032 C 
BRANCH  28  29
ATOM     29  C   UNL     1      31.874 -23.186 -15.172  0.00  0.00    +0.031 C 
BRANCH  29  31
ATOM     30  N   UNL     1      27.724 -24.192 -15.548  0.00  0.00    -0.242 NA
ATOM     31  C   UNL     1      30.413 -23.540 -15.305  0.00  0.00    -0.019 C 
ATOM     32  C   UNL     1      29.905 -24.606 -14.588  0.00  0.00    +0.016 C 
ATOM     33  C   UNL     1      29.606 -22.794 -16.141  0.00  0.00    +0.016 C 
ATOM     34  C   UNL     1      28.558 -24.890 -14.743  0.00  0.00    +0.099 C 
ATOM     35  C   UNL     1      28.271 -23.160 -16.228  0.00  0.00    +0.099 C 
ENDBRANCH  29  31
ENDBRANCH  28  29
ENDBRANCH   2  28
TORSDOF 6
ENDMDL
MODEL 4
REMARK VINA RESULT:     -11.1      3.105     11.460
REMARK  Name = 5326868
REMARK  6 active torsions:
REMARK  status: ('A' for Active; 'I' for Inactive)
REMARK    1  A    between atoms: C_2  and  C_28
REMARK    2  A    between atoms: C_7  and  N_12
REMARK    3  A    between atoms: C_13  and  C_18
REMARK    4  A    between atoms: C_16  and  N_23
REMARK    5  A    between atoms: C_28  and  C_29
REMARK    6  A    between atoms: C_29  and  C_31
REMARK                            x       y       z     vdW  Elec       q    Type
REMARK                         _______ _______ _______ _____ _____    ______ ____
ROOT
ATOM      1  N   UNL     1      31.460  -8.258 -21.533  0.00  0.00    -0.312 N 
ATOM      2  C   UNL     1      33.219  -8.408 -22.880  0.00  0.00    -0.006 C 
ATOM      3  C   UNL     1      32.840  -9.725 -22.493  0.00  0.00    +0.012 C 
ATOM      4  C   UNL     1      31.735  -9.602 -21.648  0.00  0.00    +0.048 C 
ATOM      5  C   UNL     1      32.351  -7.529 -22.274  0.00  0.00    +0.058 C 
ATOM      6  C   UNL     1      33.335 -11.013 -22.779  0.00  0.00    +0.016 C 
ATOM      7  C   UNL     1      32.706 -12.127 -22.214  0.00  0.00    +0.051 C 
ATOM      8  C   UNL     1      31.096 -10.707 -21.075  0.00  0.00    +0.016 C 
ATOM      9  C   UNL     1      31.604 -11.975 -21.375  0.00  0.00    +0.016 C 
ATOM     10  H   UNL     1      30.728  -7.877 -20.997  0.00  0.00    +0.152 HD
ENDROOT
BRANCH   7  12
ATOM     11  O   UNL     1      34.543 -13.890 -20.631  0.00  0.00    -0.270 OA
ATOM     12  N   UNL     1      33.190 -13.407 -22.493  0.00  0.00    -0.280 N 
ATOM     13  C   UNL     1      34.052 -14.190 -21.714  0.00  0.00    +0.250 C 
ATOM     14  H   UNL     1      32.890 -13.807 -23.340  0.00  0.00    +0.155 HD
BRANCH  13  18
ATOM     15  F   UNL     1      34.658 -17.086 -25.539  0.00  0.00    -0.204 F 
ATOM     16  C   UNL     1      35.131 -17.767 -21.997  0.00  0.00    +0.050 C 
ATOM     17  C   UNL     1      34.791 -16.530 -21.449  0.00  0.00    +0.019 C 
ATOM     18  C   UNL     1      34.413 -15.510 -22.297  0.00  0.00    +0.057 C 
ATOM     19  C   UNL     1      35.086 -17.955 -23.378  0.00  0.00    +0.044 C 
ATOM     20  C   UNL     1      34.360 -15.669 -23.666  0.00  0.00    +0.034 C 
ATOM     21  C   UNL     1      34.700 -16.905 -24.213  0.00  0.00    +0.142 C 
BRANCH  16  23
ATOM     22  O   UNL     1      36.342 -21.082 -19.710  0.00  0.00    -0.350 OA
ATOM     23  N   UNL     1      35.519 -18.819 -21.160  0.00  0.00    -0.303 N 
ATOM     24  C   UNL     1      36.940 -19.032 -20.864  0.00  0.00    +0.123 C 
ATOM     25  C   UNL     1      34.688 -20.030 -21.139  0.00  0.00    +0.123 C 
ATOM     26  C   UNL     1      37.082 -19.867 -19.595  0.00  0.00    +0.164 C 
ATOM     27  C   UNL     1      34.948 -20.810 -19.855  0.00  0.00    +0.164 C 
ENDBRANCH  16  23
ENDBRANCH  13  18
ENDBRANCH   7  12
BRANCH   2  28
ATOM     28  C   UNL     1      34.338  -8.042 -23.770  0.00  0.00    +0.032 C 
BRANCH  28  29
ATOM     29  C   UNL     1      34.862  -6.601 -23.581  0.00  0.00    +0.031 C 
BRANCH  29  31
ATOM     30  N   UNL     1      33.742  -3.962 -26.766  0.00  0.00    -0.242 NA
ATOM     31  C   UNL     1      34.468  -5.672 -24.702  0.00  0.00    -0.019 C 
ATOM     32  C   UNL     1      33.192  -5.144 -24.730  0.00  0.00    +0.016 C 
ATOM     33  C   UNL     1      35.388  -5.364 -25.685  0.00  0.00    +0.016 C 
ATOM     34  C   UNL     1      32.879  -4.295 -25.780  0.00  0.00    +0.099 C 
ATOM     35  C   UNL     1      34.978  -4.506 -26.693  0.00  0.00    +0.099 C 
ENDBRANCH  29  31
ENDBRANCH  28  29
ENDBRANCH   2  28
TORSDOF 6
ENDMDL
MODEL 5
REMARK VINA RESULT:     -11.1      4.958     12.231
REMARK  Name = 5326868
REMARK  6 active torsions:
REMARK  status: ('A' for Active; 'I' for Inactive)
REMARK    1  A    between atoms: C_2  and  C_28
REMARK    2  A    between atoms: C_7  and  N_12
REMARK    3  A    between atoms: C_13  and  C_18
REMARK    4  A    between atoms: C_16  and  N_23
REMARK    5  A    between atoms: C_28  and  C_29
REMARK    6  A    between atoms: C_29  and  C_31
REMARK                            x       y       z     vdW  Elec       q    Type
REMARK                         _______ _______ _______ _____ _____    ______ ____
ROOT
ATOM      1  N   UNL     1      35.073 -16.506 -24.308  0.00  0.00    -0.312 N 
ATOM      2  C   UNL     1      34.753 -15.574 -22.318  0.00  0.00    -0.006 C 
ATOM      3  C   UNL     1      34.736 -16.988 -22.156  0.00  0.00    +0.012 C 
ATOM      4  C   UNL     1      34.938 -17.548 -23.418  0.00  0.00    +0.048 C 
ATOM      5  C   UNL     1      34.963 -15.309 -23.652  0.00  0.00    +0.058 C 
ATOM      6  C   UNL     1      34.565 -17.847 -21.051  0.00  0.00    +0.016 C 
ATOM      7  C   UNL     1      34.605 -19.231 -21.251  0.00  0.00    +0.051 C 
ATOM      8  C   UNL     1      34.980 -18.931 -23.633  0.00  0.00    +0.016 C 
ATOM      9  C   UNL     1      34.810 -19.763 -22.523  0.00  0.00    +0.016 C 
ATOM     10  H   UNL     1      35.227 -16.607 -25.274  0.00  0.00    +0.152 HD
ENDROOT
BRANCH   7  12
ATOM     11  O   UNL     1      36.560 -21.068 -19.912  0.00  0.00    -0.270 OA
ATOM     12  N   UNL     1      34.436 -20.089 -20.162  0.00  0.00    -0.280 N 
ATOM     13  C   UNL     1      35.389 -20.931 -19.574  0.00  0.00    +0.250 C 
ATOM     14  H   UNL     1      33.539 -20.105 -19.760  0.00  0.00    +0.155 HD
BRANCH  13  18
ATOM     15  F   UNL     1      31.801 -23.190 -17.249  0.00  0.00    -0.204 F 
ATOM     16  C   UNL     1      35.330 -22.930 -16.405  0.00  0.00    +0.050 C 
ATOM     17  C   UNL     1      35.793 -22.158 -17.471  0.00  0.00    +0.019 C 
ATOM     18  C   UNL     1      34.896 -21.752 -18.436  0.00  0.00    +0.057 C 
ATOM     19  C   UNL     1      33.982 -23.278 -16.330  0.00  0.00    +0.044 C 
ATOM     20  C   UNL     1      33.558 -22.083 -18.386  0.00  0.00    +0.034 C 
ATOM     21  C   UNL     1      33.095 -22.854 -17.321  0.00  0.00    +0.142 C 
BRANCH  16  23
ATOM     22  O   UNL     1      38.044 -23.946 -13.358  0.00  0.00    -0.350 OA
ATOM     23  N   UNL     1      36.219 -23.357 -15.413  0.00  0.00    -0.303 N 
ATOM     24  C   UNL     1      35.754 -23.505 -14.029  0.00  0.00    +0.123 C 
ATOM     25  C   UNL     1      37.640 -23.016 -15.561  0.00  0.00    +0.123 C 
ATOM     26  C   UNL     1      36.702 -24.421 -13.263  0.00  0.00    +0.164 C 
ATOM     27  C   UNL     1      38.487 -23.960 -14.715  0.00  0.00    +0.164 C 
ENDBRANCH  16  23
ENDBRANCH  13  18
ENDBRANCH   7  12
BRANCH   2  28
ATOM     28  C   UNL     1      34.579 -14.565 -21.255  0.00  0.00    +0.032 C 
BRANCH  28  29
ATOM     29  C   UNL     1      33.116 -14.347 -20.811  0.00  0.00    +0.031 C 
BRANCH  29  31
ATOM     30  N   UNL     1      31.652 -10.414 -21.687  0.00  0.00    -0.242 NA
ATOM     31  C   UNL     1      32.601 -12.962 -21.119  0.00  0.00    -0.019 C 
ATOM     32  C   UNL     1      33.016 -12.324 -22.272  0.00  0.00    +0.016 C 
ATOM     33  C   UNL     1      31.722 -12.354 -20.245  0.00  0.00    +0.016 C 
ATOM     34  C   UNL     1      32.514 -11.054 -22.510  0.00  0.00    +0.099 C 
ATOM     35  C   UNL     1      31.277 -11.082 -20.573  0.00  0.00    +0.099 C 
ENDBRANCH  29  31
ENDBRANCH  28  29
ENDBRANCH   2  28
TORSDOF 6
ENDMDL
MODEL 6
REMARK VINA RESULT:     -10.6      2.954     11.133
REMARK  Name = 5326868
REMARK  6 active torsions:
REMARK  status: ('A' for Active; 'I' for Inactive)
REMARK    1  A    between atoms: C_2  and  C_28
REMARK    2  A    between atoms: C_7  and  N_12
REMARK    3  A    between atoms: C_13  and  C_18
REMARK    4  A    between atoms: C_16  and  N_23
REMARK    5  A    between atoms: C_28  and  C_29
REMARK    6  A    between atoms: C_29  and  C_31
REMARK                            x       y       z     vdW  Elec       q    Type
REMARK                         _______ _______ _______ _____ _____    ______ ____
ROOT
ATOM      1  N   UNL     1      31.472  -7.881 -19.568  0.00  0.00    -0.312 N 
ATOM      2  C   UNL     1      32.008  -7.675 -21.713  0.00  0.00    -0.006 C 
ATOM      3  C   UNL     1      32.060  -9.056 -21.371  0.00  0.00    +0.012 C 
ATOM      4  C   UNL     1      31.721  -9.157 -20.021  0.00  0.00    +0.048 C 
ATOM      5  C   UNL     1      31.643  -6.978 -20.584  0.00  0.00    +0.058 C 
ATOM      6  C   UNL     1      32.367 -10.233 -22.084  0.00  0.00    +0.016 C 
ATOM      7  C   UNL     1      32.321 -11.463 -21.420  0.00  0.00    +0.051 C 
ATOM      8  C   UNL     1      31.671 -10.381 -19.344  0.00  0.00    +0.016 C 
ATOM      9  C   UNL     1      31.978 -11.535 -20.072  0.00  0.00    +0.016 C 
ATOM     10  H   UNL     1      31.210  -7.650 -18.649  0.00  0.00    +0.152 HD
ENDROOT
BRANCH   7  12
ATOM     11  O   UNL     1      34.325 -11.958 -23.596  0.00  0.00    -0.270 OA
ATOM     12  N   UNL     1      32.624 -12.634 -22.119  0.00  0.00    -0.280 N 
ATOM     13  C   UNL     1      33.575 -12.811 -23.132  0.00  0.00    +0.250 C 
ATOM     14  H   UNL     1      32.105 -13.432 -21.870  0.00  0.00    +0.155 HD
BRANCH  13  18
ATOM     15  F   UNL     1      32.780 -15.904 -26.763  0.00  0.00    -0.204 F 
ATOM     16  C   UNL     1      34.255 -16.478 -23.487  0.00  0.00    +0.050 C 
ATOM     17  C   UNL     1      34.188 -15.194 -22.946  0.00  0.00    +0.019 C 
ATOM     18  C   UNL     1      33.645 -14.180 -23.707  0.00  0.00    +0.057 C 
ATOM     19  C   UNL     1      33.779 -16.718 -24.777  0.00  0.00    +0.044 C 
ATOM     20  C   UNL     1      33.169 -14.390 -24.984  0.00  0.00    +0.034 C 
ATOM     21  C   UNL     1      33.236 -15.673 -25.525  0.00  0.00    +0.142 C 
BRANCH  16  23
ATOM     22  O   UNL     1      35.685 -19.597 -21.056  0.00  0.00    -0.350 OA
ATOM     23  N   UNL     1      34.801 -17.526 -22.738  0.00  0.00    -0.303 N 
ATOM     24  C   UNL     1      34.313 -18.896 -22.931  0.00  0.00    +0.123 C 
ATOM     25  C   UNL     1      35.302 -17.225 -21.390  0.00  0.00    +0.123 C 
ATOM     26  C   UNL     1      35.347 -19.888 -22.412  0.00  0.00    +0.164 C 
ATOM     27  C   UNL     1      36.286 -18.306 -20.954  0.00  0.00    +0.164 C 
ENDBRANCH  16  23
ENDBRANCH  13  18
ENDBRANCH   7  12
BRANCH   2  28
ATOM     28  C   UNL     1      32.291  -7.086 -23.038  0.00  0.00    +0.032 C 
BRANCH  28  29
ATOM     29  C   UNL     1      33.746  -6.606 -23.227  0.00  0.00    +0.031 C 
BRANCH  29  31
ATOM     30  N   UNL     1      34.248  -4.026 -26.613  0.00  0.00    -0.242 NA
ATOM     31  C   UNL     1      33.923  -5.697 -24.419  0.00  0.00    -0.019 C 
ATOM     32  C   UNL     1      35.098  -5.747 -25.143  0.00  0.00    +0.016 C 
ATOM     33  C   UNL     1      32.907  -4.829 -24.768  0.00  0.00    +0.016 C 
ATOM     34  C   UNL     1      35.211  -4.894 -26.229  0.00  0.00    +0.099 C 
ATOM     35  C   UNL     1      33.118  -4.016 -25.871  0.00  0.00    +0.099 C 
ENDBRANCH  29  31
ENDBRANCH  28  29
ENDBRANCH   2  28
TORSDOF 6
ENDMDL
MODEL 7
REMARK VINA RESULT:     -10.6      6.109     10.530
REMARK  Name = 5326868
REMARK  6 active torsions:
REMARK  status: ('A' for Active; 'I' for Inactive)
REMARK    1  A    between atoms: C_2  and  C_28
REMARK    2  A    between atoms: C_7  and  N_12
REMARK    3  A    between atoms: C_13  and  C_18
REMARK    4  A    between atoms: C_16  and  N_23
REMARK    5  A    between atoms: C_28  and  C_29
REMARK    6  A    between atoms: C_29  and  C_31
REMARK                            x       y       z     vdW  Elec       q    Type
REMARK                         _______ _______ _______ _____ _____    ______ ____
ROOT
ATOM      1  N   UNL     1      33.258 -24.564 -14.634  0.00  0.00    -0.312 N 
ATOM      2  C   UNL     1      35.222 -23.570 -14.344  0.00  0.00    -0.006 C 
ATOM      3  C   UNL     1      34.698 -23.163 -15.603  0.00  0.00    +0.012 C 
ATOM      4  C   UNL     1      33.466 -23.801 -15.760  0.00  0.00    +0.048 C 
ATOM      5  C   UNL     1      34.314 -24.431 -13.772  0.00  0.00    +0.058 C 
ATOM      6  C   UNL     1      35.157 -22.312 -16.629  0.00  0.00    +0.016 C 
ATOM      7  C   UNL     1      34.367 -22.129 -17.769  0.00  0.00    +0.051 C 
ATOM      8  C   UNL     1      32.665 -23.628 -16.895  0.00  0.00    +0.016 C 
ATOM      9  C   UNL     1      33.140 -22.778 -17.899  0.00  0.00    +0.016 C 
ATOM     10  H   UNL     1      32.465 -25.123 -14.471  0.00  0.00    +0.152 HD
ENDROOT
BRANCH   7  12
ATOM     11  O   UNL     1      32.862 -20.854 -20.027  0.00  0.00    -0.270 OA
ATOM     12  N   UNL     1      34.815 -21.288 -18.789  0.00  0.00    -0.280 N 
ATOM     13  C   UNL     1      34.065 -20.717 -19.825  0.00  0.00    +0.250 C 
ATOM     14  H   UNL     1      35.774 -21.069 -18.780  0.00  0.00    +0.155 HD
BRANCH  13  18
ATOM     15  F   UNL     1      38.261 -18.926 -21.427  0.00  0.00    -0.204 F 
ATOM     16  C   UNL     1      34.882 -18.431 -22.680  0.00  0.00    +0.050 C 
ATOM     17  C   UNL     1      34.157 -19.215 -21.781  0.00  0.00    +0.019 C 
ATOM     18  C   UNL     1      34.836 -19.881 -20.783  0.00  0.00    +0.057 C 
ATOM     19  C   UNL     1      36.268 -18.334 -22.560  0.00  0.00    +0.044 C 
ATOM     20  C   UNL     1      36.206 -19.802 -20.643  0.00  0.00    +0.034 C 
ATOM     21  C   UNL     1      36.930 -19.019 -21.541  0.00  0.00    +0.142 C 
BRANCH  16  23
ATOM     22  O   UNL     1      33.112 -16.406 -25.913  0.00  0.00    -0.350 OA
ATOM     23  N   UNL     1      34.218 -17.745 -23.703  0.00  0.00    -0.303 N 
ATOM     24  C   UNL     1      33.489 -18.493 -24.733  0.00  0.00    +0.123 C 
ATOM     25  C   UNL     1      34.765 -16.452 -24.138  0.00  0.00    +0.123 C 
ATOM     26  C   UNL     1      32.473 -17.580 -25.411  0.00  0.00    +0.164 C 
ATOM     27  C   UNL     1      33.680 -15.647 -24.845  0.00  0.00    +0.164 C 
ENDBRANCH  16  23
ENDBRANCH  13  18
ENDBRANCH   7  12
BRANCH   2  28
ATOM     28  C   UNL     1      36.507 -23.151 -13.750  0.00  0.00    +0.032 C 
BRANCH  28  29
ATOM     29  C   UNL     1      37.211 -24.241 -12.911  0.00  0.00    +0.031 C 
BRANCH  29  31
ATOM     30  N   UNL     1      40.675 -25.879 -14.832  0.00  0.00    -0.242 NA
ATOM     31  C   UNL     1      38.430 -24.817 -13.587  0.00  0.00    -0.019 C 
ATOM     32  C   UNL     1      39.171 -25.787 -12.940  0.00  0.00    +0.016 C 
ATOM     33  C   UNL     1      38.788 -24.367 -14.843  0.00  0.00    +0.016 C 
ATOM     34  C   UNL     1      40.282 -26.285 -13.603  0.00  0.00    +0.099 C 
ATOM     35  C   UNL     1      39.916 -24.928 -15.421  0.00  0.00    +0.099 C 
ENDBRANCH  29  31
ENDBRANCH  28  29
ENDBRANCH   2  28
TORSDOF 6
ENDMDL
MODEL 8
REMARK VINA RESULT:     -10.2      6.553     10.615
REMARK  Name = 5326868
REMARK  6 active torsions:
REMARK  status: ('A' for Active; 'I' for Inactive)
REMARK    1  A    between atoms: C_2  and  C_28
REMARK    2  A    between atoms: C_7  and  N_12
REMARK    3  A    between atoms: C_13  and  C_18
REMARK    4  A    between atoms: C_16  and  N_23
REMARK    5  A    between atoms: C_28  and  C_29
REMARK    6  A    between atoms: C_29  and  C_31
REMARK                            x       y       z     vdW  Elec       q    Type
REMARK                         _______ _______ _______ _____ _____    ______ ____
ROOT
ATOM      1  N   UNL     1      35.494 -24.284 -14.143  0.00  0.00    -0.312 N 
ATOM      2  C   UNL     1      33.644 -23.873 -15.301  0.00  0.00    -0.006 C 
ATOM      3  C   UNL     1      34.724 -23.192 -15.930  0.00  0.00    +0.012 C 
ATOM      4  C   UNL     1      35.872 -23.466 -15.183  0.00  0.00    +0.048 C 
ATOM      5  C   UNL     1      34.149 -24.536 -14.206  0.00  0.00    +0.058 C 
ATOM      6  C   UNL     1      34.834 -22.364 -17.065  0.00  0.00    +0.016 C 
ATOM      7  C   UNL     1      36.086 -21.844 -17.412  0.00  0.00    +0.051 C 
ATOM      8  C   UNL     1      37.130 -22.952 -15.518  0.00  0.00    +0.016 C 
ATOM      9  C   UNL     1      37.216 -22.135 -16.649  0.00  0.00    +0.016 C 
ATOM     10  H   UNL     1      36.101 -24.637 -13.454  0.00  0.00    +0.152 HD
ENDROOT
BRANCH   7  12
ATOM     11  O   UNL     1      34.175 -21.369 -19.673  0.00  0.00    -0.270 OA
ATOM     12  N   UNL     1      36.204 -21.023 -18.535  0.00  0.00    -0.280 N 
ATOM     13  C   UNL     1      35.276 -20.837 -19.567  0.00  0.00    +0.250 C 
ATOM     14  H   UNL     1      37.042 -20.513 -18.611  0.00  0.00    +0.155 HD
BRANCH  13  18
ATOM     15  F   UNL     1      38.680 -18.173 -21.734  0.00  0.00    -0.204 F 
ATOM     16  C   UNL     1      35.183 -18.655 -22.612  0.00  0.00    +0.050 C 
ATOM     17  C   UNL     1      34.779 -19.522 -21.596  0.00  0.00    +0.019 C 
ATOM     18  C   UNL     1      35.704 -19.912 -20.649  0.00  0.00    +0.057 C 
ATOM     19  C   UNL     1      36.500 -18.200 -22.658  0.00  0.00    +0.044 C 
ATOM     20  C   UNL     1      37.012 -19.477 -20.673  0.00  0.00    +0.034 C 
ATOM     21  C   UNL     1      37.415 -18.610 -21.688  0.00  0.00    +0.142 C 
BRANCH  16  23
ATOM     22  O   UNL     1      32.635 -17.420 -25.721  0.00  0.00    -0.350 OA
ATOM     23  N   UNL     1      34.266 -18.244 -23.585  0.00  0.00    -0.303 N 
ATOM     24  C   UNL     1      33.630 -19.238 -24.457  0.00  0.00    +0.123 C 
ATOM     25  C   UNL     1      34.435 -16.910 -24.177  0.00  0.00    +0.123 C 
ATOM     26  C   UNL     1      32.356 -18.654 -25.060  0.00  0.00    +0.164 C 
ATOM     27  C   UNL     1      33.118 -16.449 -24.792  0.00  0.00    +0.164 C 
ENDBRANCH  16  23
ENDBRANCH  13  18
ENDBRANCH   7  12
BRANCH   2  28
ATOM     28  C   UNL     1      32.233 -23.876 -15.737  0.00  0.00    +0.032 C 
BRANCH  28  29
ATOM     29  C   UNL     1      31.249 -23.251 -14.725  0.00  0.00    +0.031 C 
BRANCH  29  31
ATOM     30  N   UNL     1      27.201 -23.172 -16.131  0.00  0.00    -0.242 NA
ATOM     31  C   UNL     1      29.824 -23.224 -15.220  0.00  0.00    -0.019 C 
ATOM     32  C   UNL     1      28.957 -22.259 -14.743  0.00  0.00    +0.016 C 
ATOM     33  C   UNL     1      29.406 -24.163 -16.142  0.00  0.00    +0.016 C 
ATOM     34  C   UNL     1      27.660 -22.276 -15.228  0.00  0.00    +0.099 C 
ATOM     35  C   UNL     1      28.088 -24.095 -16.566  0.00  0.00    +0.099 C 
ENDBRANCH  29  31
ENDBRANCH  28  29
ENDBRANCH   2  28
TORSDOF 6
ENDMDL
MODEL 9
REMARK VINA RESULT:     -10.2      7.088     12.792
REMARK  Name = 5326868
REMARK  6 active torsions:
REMARK  status: ('A' for Active; 'I' for Inactive)
REMARK    1  A    between atoms: C_2  and  C_28
REMARK    2  A    between atoms: C_7  and  N_12
REMARK    3  A    between atoms: C_13  and  C_18
REMARK    4  A    between atoms: C_16  and  N_23
REMARK    5  A    between atoms: C_28  and  C_29
REMARK    6  A    between atoms: C_29  and  C_31
REMARK                            x       y       z     vdW  Elec       q    Type
REMARK                         _______ _______ _______ _____ _____    ______ ____
ROOT
ATOM      1  N   UNL     1      36.947 -20.385 -20.202  0.00  0.00    -0.312 N 
ATOM      2  C   UNL     1      34.942 -19.939 -21.045  0.00  0.00    -0.006 C 
ATOM      3  C   UNL     1      34.769 -20.754 -19.891  0.00  0.00    +0.012 C 
ATOM      4  C   UNL     1      36.042 -21.020 -19.382  0.00  0.00    +0.048 C 
ATOM      5  C   UNL     1      36.292 -19.729 -21.210  0.00  0.00    +0.058 C 
ATOM      6  C   UNL     1      33.648 -21.295 -19.230  0.00  0.00    +0.016 C 
ATOM      7  C   UNL     1      33.842 -22.077 -18.086  0.00  0.00    +0.051 C 
ATOM      8  C   UNL     1      36.251 -21.801 -18.240  0.00  0.00    +0.016 C 
ATOM      9  C   UNL     1      35.124 -22.325 -17.600  0.00  0.00    +0.016 C 
ATOM     10  H   UNL     1      37.924 -20.400 -20.082  0.00  0.00    +0.152 HD
ENDROOT
BRANCH   7  12
ATOM     11  O   UNL     1      33.596 -23.191 -15.314  0.00  0.00    -0.270 OA
ATOM     12  N   UNL     1      32.736 -22.616 -17.425  0.00  0.00    -0.280 N 
ATOM     13  C   UNL     1      32.676 -23.126 -16.122  0.00  0.00    +0.250 C 
ATOM     14  H   UNL     1      31.897 -22.642 -17.938  0.00  0.00    +0.155 HD
BRANCH  13  18
ATOM     15  F   UNL     1      29.995 -26.438 -13.836  0.00  0.00    -0.204 F 
ATOM     16  C   UNL     1      28.971 -23.484 -15.696  0.00  0.00    +0.050 C 
ATOM     17  C   UNL     1      30.213 -22.982 -16.087  0.00  0.00    +0.019 C 
ATOM     18  C   UNL     1      31.352 -23.661 -15.708  0.00  0.00    +0.057 C 
ATOM     19  C   UNL     1      28.897 -24.651 -14.936  0.00  0.00    +0.044 C 
ATOM     20  C   UNL     1      31.307 -24.816 -14.957  0.00  0.00    +0.034 C 
ATOM     21  C   UNL     1      30.066 -25.318 -14.567  0.00  0.00    +0.142 C 
BRANCH  16  23
ATOM     22  O   UNL     1      25.569 -21.238 -16.729  0.00  0.00    -0.350 OA
ATOM     23  N   UNL     1      27.799 -22.815 -16.066  0.00  0.00    -0.303 N 
ATOM     24  C   UNL     1      27.692 -22.207 -17.396  0.00  0.00    +0.123 C 
ATOM     25  C   UNL     1      27.015 -22.156 -15.012  0.00  0.00    +0.123 C 
ATOM     26  C   UNL     1      26.223 -21.993 -17.748  0.00  0.00    +0.164 C 
ATOM     27  C   UNL     1      25.582 -21.948 -15.490  0.00  0.00    +0.164 C 
ENDBRANCH  16  23
ENDBRANCH  13  18
ENDBRANCH   7  12
BRANCH   2  28
ATOM     28  C   UNL     1      33.873 -19.409 -21.915  0.00  0.00    +0.032 C 
BRANCH  28  29
ATOM     29  C   UNL     1      34.312 -19.125 -23.369  0.00  0.00    +0.031 C 
BRANCH  29  31
ATOM     30  N   UNL     1      34.147 -14.969 -24.404  0.00  0.00    -0.242 NA
ATOM     31  C   UNL     1      34.253 -17.662 -23.733  0.00  0.00    -0.019 C 
ATOM     32  C   UNL     1      34.910 -16.739 -22.943  0.00  0.00    +0.016 C 
ATOM     33  C   UNL     1      33.544 -17.268 -24.850  0.00  0.00    +0.016 C 
ATOM     34  C   UNL     1      34.827 -15.408 -23.320  0.00  0.00    +0.099 C 
ATOM     35  C   UNL     1      33.521 -15.913 -25.143  0.00  0.00    +0.099 C 
ENDBRANCH  29  31
ENDBRANCH  28  29
ENDBRANCH   2  28
TORSDOF 6
ENDMDL
