MODEL 1
REMARK VINA RESULT:     -11.3      0.000      0.000
REMARK  Name = 24963036
REMARK  7 active torsions:
REMARK  status: ('A' for Active; 'I' for Inactive)
REMARK    1  A    between atoms: N_2  and  C_20
REMARK    2  A    between atoms: C_3  and  C_7
REMARK    3  A    between atoms: C_11  and  C_12
REMARK    4  A    between atoms: C_12  and  O_13
REMARK    5  A    between atoms: O_13  and  C_14
REMARK    6  A    between atoms: C_20  and  C_21
REMARK    7  A    between atoms: C_26  and  C_29
REMARK                            x       y       z     vdW  Elec       q    Type
REMARK                         _______ _______ _______ _____ _____    ______ ____
ROOT
ATOM      1  O   UNL     1      32.182 -25.027 -12.793  0.00  0.00    -0.273 OA
ATOM      2  N   UNL     1      34.138 -23.767 -12.744  0.00  0.00    -0.299 N 
ATOM      3  C   UNL     1      32.833 -24.037 -13.116  0.00  0.00    +0.241 C 
ATOM      4  H   UNL     1      34.555 -22.936 -13.067  0.00  0.00    +0.150 HD
ENDROOT
BRANCH   3   7
ATOM      5  O   UNL     1      34.731 -22.780 -15.402  0.00  0.00    -0.272 OA
ATOM      6  N   UNL     1      32.481 -23.319 -15.357  0.00  0.00    -0.271 N 
ATOM      7  C   UNL     1      32.248 -22.950 -13.967  0.00  0.00    +0.152 C 
ATOM      8  C   UNL     1      30.732 -22.880 -13.833  0.00  0.00    +0.031 C 
ATOM      9  C   UNL     1      30.237 -23.884 -14.872  0.00  0.00    +0.024 C 
ATOM     10  C   UNL     1      31.240 -23.736 -16.006  0.00  0.00    +0.094 C 
ATOM     11  C   UNL     1      33.703 -23.133 -15.983  0.00  0.00    +0.256 C 
BRANCH  11  12
ATOM     12  C   UNL     1      33.722 -23.404 -17.466  0.00  0.00    +0.227 C 
BRANCH  12  13
ATOM     13  O   UNL     1      34.877 -22.782 -17.975  0.00  0.00    -0.347 OA
BRANCH  13  14
ATOM     14  C   UNL     1      34.625 -22.110 -19.203  0.00  0.00    +0.116 C 
ATOM     15  C   UNL     1      33.284 -21.382 -19.124  0.00  0.00    +0.030 C 
ATOM     16  C   UNL     1      35.771 -21.146 -19.505  0.00  0.00    +0.030 C 
ATOM     17  C   UNL     1      33.013 -20.565 -20.384  0.00  0.00    +0.002 C 
ATOM     18  C   UNL     1      35.501 -20.329 -20.765  0.00  0.00    +0.002 C 
ATOM     19  C   UNL     1      34.160 -19.604 -20.687  0.00  0.00    +0.000 C 
ENDBRANCH  13  14
ENDBRANCH  12  13
ENDBRANCH  11  12
ENDBRANCH   3   7
BRANCH   2  20
ATOM     20  C   UNL     1      34.919 -24.647 -11.904  0.00  0.00    +0.116 C 
BRANCH  20  21
ATOM     21  C   UNL     1      36.227 -25.017 -12.541  0.00  0.00    -0.003 C 
ATOM     22  C   UNL     1      36.243 -25.630 -13.794  0.00  0.00    -0.003 C 
ATOM     23  C   UNL     1      37.425 -24.751 -11.879  0.00  0.00    -0.003 C 
ATOM     24  C   UNL     1      37.458 -25.975 -14.386  0.00  0.00    +0.002 C 
ATOM     25  C   UNL     1      38.640 -25.095 -12.471  0.00  0.00    +0.002 C 
ATOM     26  C   UNL     1      38.657 -25.708 -13.724  0.00  0.00    +0.031 C 
BRANCH  26  29
ATOM     27  N   UNL     1      40.905 -26.759 -13.632  0.00  0.00    -0.343 N 
ATOM     28  N   UNL     1      40.162 -25.737 -15.597  0.00  0.00    -0.285 NA
ATOM     29  C   UNL     1      39.923 -26.068 -14.341  0.00  0.00    +0.117 C 
ATOM     30  H   UNL     1      41.755 -26.993 -14.069  0.00  0.00    +0.144 HD
ATOM     31  H   UNL     1      40.747 -27.012 -12.693  0.00  0.00    +0.144 HD
ATOM     32  H   UNL     1      41.018 -25.980 -16.017  0.00  0.00    +0.188 HD
ENDBRANCH  26  29
ENDBRANCH  20  21
ENDBRANCH   2  20
TORSDOF 7
ENDMDL
MODEL 2
REMARK VINA RESULT:     -10.9      2.165      6.478
REMARK  Name = 24963036
REMARK  7 active torsions:
REMARK  status: ('A' for Active; 'I' for Inactive)
REMARK    1  A    between atoms: N_2  and  C_20
REMARK    2  A    between atoms: C_3  and  C_7
REMARK    3  A    between atoms: C_11  and  C_12
REMARK    4  A    between atoms: C_12  and  O_13
REMARK    5  A    between atoms: O_13  and  C_14
REMARK    6  A    between atoms: C_20  and  C_21
REMARK    7  A    between atoms: C_26  and  C_29
REMARK                            x       y       z     vdW  Elec       q    Type
REMARK                         _______ _______ _______ _____ _____    ______ ____
ROOT
ATOM      1  O   UNL     1      34.915 -24.047 -12.273  0.00  0.00    -0.273 OA
ATOM      2  N   UNL     1      33.348 -25.052 -13.671  0.00  0.00    -0.299 N 
ATOM      3  C   UNL     1      34.621 -24.656 -13.299  0.00  0.00    +0.241 C 
ATOM      4  H   UNL     1      33.237 -25.536 -14.520  0.00  0.00    +0.150 HD
ENDROOT
BRANCH   3   7
ATOM      5  O   UNL     1      34.208 -23.697 -16.351  0.00  0.00    -0.272 OA
ATOM      6  N   UNL     1      36.083 -23.880 -15.007  0.00  0.00    -0.271 N 
ATOM      7  C   UNL     1      35.660 -25.077 -14.293  0.00  0.00    +0.152 C 
ATOM      8  C   UNL     1      36.923 -25.587 -13.610  0.00  0.00    +0.031 C 
ATOM      9  C   UNL     1      37.739 -24.317 -13.377  0.00  0.00    +0.024 C 
ATOM     10  C   UNL     1      37.427 -23.473 -14.604  0.00  0.00    +0.094 C 
ATOM     11  C   UNL     1      35.341 -23.326 -16.039  0.00  0.00    +0.256 C 
BRANCH  11  12
ATOM     12  C   UNL     1      36.006 -22.197 -16.785  0.00  0.00    +0.227 C 
BRANCH  12  13
ATOM     13  O   UNL     1      35.772 -22.425 -18.153  0.00  0.00    -0.347 OA
BRANCH  13  14
ATOM     14  C   UNL     1      35.108 -21.329 -18.772  0.00  0.00    +0.116 C 
ATOM     15  C   UNL     1      35.929 -20.838 -19.963  0.00  0.00    +0.030 C 
ATOM     16  C   UNL     1      33.702 -21.755 -19.195  0.00  0.00    +0.030 C 
ATOM     17  C   UNL     1      35.212 -19.725 -20.721  0.00  0.00    +0.002 C 
ATOM     18  C   UNL     1      32.984 -20.642 -19.953  0.00  0.00    +0.002 C 
ATOM     19  C   UNL     1      33.806 -20.150 -21.141  0.00  0.00    +0.000 C 
ENDBRANCH  13  14
ENDBRANCH  12  13
ENDBRANCH  11  12
ENDBRANCH   3   7
BRANCH   2  20
ATOM     20  C   UNL     1      32.172 -24.788 -12.872  0.00  0.00    +0.116 C 
BRANCH  20  21
ATOM     21  C   UNL     1      31.005 -24.361 -13.714  0.00  0.00    -0.003 C 
ATOM     22  C   UNL     1      30.087 -25.310 -14.164  0.00  0.00    -0.003 C 
ATOM     23  C   UNL     1      30.839 -23.017 -14.048  0.00  0.00    -0.003 C 
ATOM     24  C   UNL     1      29.002 -24.915 -14.948  0.00  0.00    +0.002 C 
ATOM     25  C   UNL     1      29.755 -22.622 -14.831  0.00  0.00    +0.002 C 
ATOM     26  C   UNL     1      28.837 -23.570 -15.281  0.00  0.00    +0.031 C 
BRANCH  26  29
ATOM     27  N   UNL     1      26.764 -22.247 -15.625  0.00  0.00    -0.343 N 
ATOM     28  N   UNL     1      27.558 -23.653 -17.314  0.00  0.00    -0.285 NA
ATOM     29  C   UNL     1      27.707 -23.158 -16.098  0.00  0.00    +0.117 C 
ATOM     30  H   UNL     1      26.007 -21.981 -16.196  0.00  0.00    +0.144 HD
ATOM     31  H   UNL     1      26.856 -21.869 -14.721  0.00  0.00    +0.144 HD
ATOM     32  H   UNL     1      26.795 -23.375 -17.869  0.00  0.00    +0.188 HD
ENDBRANCH  26  29
ENDBRANCH  20  21
ENDBRANCH   2  20
TORSDOF 7
ENDMDL
MODEL 3
REMARK VINA RESULT:     -10.3      7.563     11.601
REMARK  Name = 24963036
REMARK  7 active torsions:
REMARK  status: ('A' for Active; 'I' for Inactive)
REMARK    1  A    between atoms: N_2  and  C_20
REMARK    2  A    between atoms: C_3  and  C_7
REMARK    3  A    between atoms: C_11  and  C_12
REMARK    4  A    between atoms: C_12  and  O_13
REMARK    5  A    between atoms: O_13  and  C_14
REMARK    6  A    between atoms: C_20  and  C_21
REMARK    7  A    between atoms: C_26  and  C_29
REMARK                            x       y       z     vdW  Elec       q    Type
REMARK                         _______ _______ _______ _____ _____    ______ ____
ROOT
ATOM      1  O   UNL     1      35.627 -15.396 -23.350  0.00  0.00    -0.273 OA
ATOM      2  N   UNL     1      34.590 -17.442 -22.948  0.00  0.00    -0.299 N 
ATOM      3  C   UNL     1      34.633 -16.119 -23.353  0.00  0.00    +0.241 C 
ATOM      4  H   UNL     1      33.731 -17.919 -22.998  0.00  0.00    +0.150 HD
ENDROOT
BRANCH   3   7
ATOM      5  O   UNL     1      32.964 -14.183 -21.385  0.00  0.00    -0.272 OA
ATOM      6  N   UNL     1      33.288 -14.184 -23.676  0.00  0.00    -0.271 N 
ATOM      7  C   UNL     1      33.303 -15.631 -23.842  0.00  0.00    +0.152 C 
ATOM      8  C   UNL     1      33.135 -15.851 -25.341  0.00  0.00    +0.031 C 
ATOM      9  C   UNL     1      33.759 -14.599 -25.955  0.00  0.00    +0.024 C 
ATOM     10  C   UNL     1      33.392 -13.504 -24.965  0.00  0.00    +0.094 C 
ATOM     11  C   UNL     1      33.046 -13.576 -22.454  0.00  0.00    +0.256 C 
BRANCH  11  12
ATOM     12  C   UNL     1      32.891 -12.077 -22.493  0.00  0.00    +0.227 C 
BRANCH  12  13
ATOM     13  O   UNL     1      31.762 -11.768 -21.713  0.00  0.00    -0.347 OA
BRANCH  13  14
ATOM     14  C   UNL     1      31.623 -10.368 -21.502  0.00  0.00    +0.116 C 
ATOM     15  C   UNL     1      31.928 -10.037 -20.041  0.00  0.00    +0.030 C 
ATOM     16  C   UNL     1      32.548  -9.612 -22.454  0.00  0.00    +0.030 C 
ATOM     17  C   UNL     1      31.888  -8.534 -19.785  0.00  0.00    +0.002 C 
ATOM     18  C   UNL     1      32.508  -8.108 -22.199  0.00  0.00    +0.002 C 
ATOM     19  C   UNL     1      32.810  -7.778 -20.739  0.00  0.00    +0.000 C 
ENDBRANCH  13  14
ENDBRANCH  12  13
ENDBRANCH  11  12
ENDBRANCH   3   7
BRANCH   2  20
ATOM     20  C   UNL     1      35.746 -18.156 -22.456  0.00  0.00    +0.116 C 
BRANCH  20  21
ATOM     21  C   UNL     1      35.373 -19.197 -21.441  0.00  0.00    -0.003 C 
ATOM     22  C   UNL     1      34.034 -19.548 -21.263  0.00  0.00    -0.003 C 
ATOM     23  C   UNL     1      36.363 -19.813 -20.676  0.00  0.00    -0.003 C 
ATOM     24  C   UNL     1      33.687 -20.515 -20.319  0.00  0.00    +0.002 C 
ATOM     25  C   UNL     1      36.016 -20.780 -19.733  0.00  0.00    +0.002 C 
ATOM     26  C   UNL     1      34.678 -21.131 -19.554  0.00  0.00    +0.031 C 
BRANCH  26  29
ATOM     27  N   UNL     1      33.043 -22.705 -18.548  0.00  0.00    -0.343 N 
ATOM     28  N   UNL     1      35.201 -22.530 -17.672  0.00  0.00    -0.285 NA
ATOM     29  C   UNL     1      34.316 -22.138 -18.570  0.00  0.00    +0.117 C 
ATOM     30  H   UNL     1      32.818 -23.387 -17.874  0.00  0.00    +0.144 HD
ATOM     31  H   UNL     1      32.367 -22.424 -19.208  0.00  0.00    +0.144 HD
ATOM     32  H   UNL     1      34.958 -23.212 -17.006  0.00  0.00    +0.188 HD
ENDBRANCH  26  29
ENDBRANCH  20  21
ENDBRANCH   2  20
TORSDOF 7
ENDMDL
MODEL 4
REMARK VINA RESULT:     -10.1      9.992     15.313
REMARK  Name = 24963036
REMARK  7 active torsions:
REMARK  status: ('A' for Active; 'I' for Inactive)
REMARK    1  A    between atoms: N_2  and  C_20
REMARK    2  A    between atoms: C_3  and  C_7
REMARK    3  A    between atoms: C_11  and  C_12
REMARK    4  A    between atoms: C_12  and  O_13
REMARK    5  A    between atoms: O_13  and  C_14
REMARK    6  A    between atoms: C_20  and  C_21
REMARK    7  A    between atoms: C_26  and  C_29
REMARK                            x       y       z     vdW  Elec       q    Type
REMARK                         _______ _______ _______ _____ _____    ______ ____
ROOT
ATOM      1  O   UNL     1      33.559 -12.813 -25.489  0.00  0.00    -0.273 OA
ATOM      2  N   UNL     1      34.017 -11.747 -23.471  0.00  0.00    -0.299 N 
ATOM      3  C   UNL     1      33.515 -12.766 -24.262  0.00  0.00    +0.241 C 
ATOM      4  H   UNL     1      33.922 -11.822 -22.494  0.00  0.00    +0.150 HD
ENDROOT
BRANCH   3   7
ATOM      5  O   UNL     1      34.031 -15.786 -25.272  0.00  0.00    -0.272 OA
ATOM      6  N   UNL     1      33.969 -14.828 -23.166  0.00  0.00    -0.271 N 
ATOM      7  C   UNL     1      32.909 -13.870 -23.450  0.00  0.00    +0.152 C 
ATOM      8  C   UNL     1      32.452 -13.380 -22.081  0.00  0.00    +0.031 C 
ATOM      9  C   UNL     1      33.707 -13.510 -21.221  0.00  0.00    +0.024 C 
ATOM     10  C   UNL     1      34.374 -14.765 -21.764  0.00  0.00    +0.094 C 
ATOM     11  C   UNL     1      34.395 -15.765 -24.094  0.00  0.00    +0.256 C 
BRANCH  11  12
ATOM     12  C   UNL     1      35.373 -16.791 -23.581  0.00  0.00    +0.227 C 
BRANCH  12  13
ATOM     13  O   UNL     1      34.619 -17.921 -23.219  0.00  0.00    -0.347 OA
BRANCH  13  14
ATOM     14  C   UNL     1      34.960 -18.401 -21.924  0.00  0.00    +0.116 C 
ATOM     15  C   UNL     1      34.193 -19.691 -21.637  0.00  0.00    +0.030 C 
ATOM     16  C   UNL     1      36.471 -18.614 -21.838  0.00  0.00    +0.030 C 
ATOM     17  C   UNL     1      34.598 -20.300 -20.298  0.00  0.00    +0.002 C 
ATOM     18  C   UNL     1      36.876 -19.221 -20.498  0.00  0.00    +0.002 C 
ATOM     19  C   UNL     1      36.108 -20.509 -20.210  0.00  0.00    +0.000 C 
ENDBRANCH  13  14
ENDBRANCH  12  13
ENDBRANCH  11  12
ENDBRANCH   3   7
BRANCH   2  20
ATOM     20  C   UNL     1      34.673 -10.577 -24.010  0.00  0.00    +0.116 C 
BRANCH  20  21
ATOM     21  C   UNL     1      34.056  -9.305 -23.505  0.00  0.00    -0.003 C 
ATOM     22  C   UNL     1      34.798  -8.123 -23.505  0.00  0.00    -0.003 C 
ATOM     23  C   UNL     1      32.743  -9.304 -23.035  0.00  0.00    -0.003 C 
ATOM     24  C   UNL     1      34.226  -6.940 -23.034  0.00  0.00    +0.002 C 
ATOM     25  C   UNL     1      32.171  -8.122 -22.565  0.00  0.00    +0.002 C 
ATOM     26  C   UNL     1      32.912  -6.941 -22.564  0.00  0.00    +0.031 C 
BRANCH  26  29
ATOM     27  N   UNL     1      31.896  -4.708 -22.948  0.00  0.00    -0.343 N 
ATOM     28  N   UNL     1      32.167  -5.520 -20.775  0.00  0.00    -0.285 NA
ATOM     29  C   UNL     1      32.316  -5.709 -22.074  0.00  0.00    +0.117 C 
ATOM     30  H   UNL     1      31.495  -3.881 -22.594  0.00  0.00    +0.144 HD
ATOM     31  H   UNL     1      32.002  -4.827 -23.920  0.00  0.00    +0.144 HD
ATOM     32  H   UNL     1      31.764  -4.688 -20.441  0.00  0.00    +0.188 HD
ENDBRANCH  26  29
ENDBRANCH  20  21
ENDBRANCH   2  20
TORSDOF 7
ENDMDL
MODEL 5
REMARK VINA RESULT:      -9.9      2.528      7.246
REMARK  Name = 24963036
REMARK  7 active torsions:
REMARK  status: ('A' for Active; 'I' for Inactive)
REMARK    1  A    between atoms: N_2  and  C_20
REMARK    2  A    between atoms: C_3  and  C_7
REMARK    3  A    between atoms: C_11  and  C_12
REMARK    4  A    between atoms: C_12  and  O_13
REMARK    5  A    between atoms: O_13  and  C_14
REMARK    6  A    between atoms: C_20  and  C_21
REMARK    7  A    between atoms: C_26  and  C_29
REMARK                            x       y       z     vdW  Elec       q    Type
REMARK                         _______ _______ _______ _____ _____    ______ ____
ROOT
ATOM      1  O   UNL     1      37.996 -24.183 -14.672  0.00  0.00    -0.273 OA
ATOM      2  N   UNL     1      36.810 -22.375 -15.534  0.00  0.00    -0.299 N 
ATOM      3  C   UNL     1      37.184 -23.270 -14.547  0.00  0.00    +0.241 C 
ATOM      4  H   UNL     1      36.147 -21.682 -15.312  0.00  0.00    +0.150 HD
ENDROOT
BRANCH   3   7
ATOM      5  O   UNL     1      33.995 -22.788 -14.642  0.00  0.00    -0.272 OA
ATOM      6  N   UNL     1      35.365 -23.914 -13.154  0.00  0.00    -0.271 N 
ATOM      7  C   UNL     1      36.496 -22.998 -13.243  0.00  0.00    +0.152 C 
ATOM      8  C   UNL     1      37.378 -23.355 -12.052  0.00  0.00    +0.031 C 
ATOM      9  C   UNL     1      37.092 -24.839 -11.831  0.00  0.00    +0.024 C 
ATOM     10  C   UNL     1      35.615 -24.965 -12.172  0.00  0.00    +0.094 C 
ATOM     11  C   UNL     1      34.169 -23.687 -13.817  0.00  0.00    +0.256 C 
BRANCH  11  12
ATOM     12  C   UNL     1      33.048 -24.636 -13.477  0.00  0.00    +0.227 C 
BRANCH  12  13
ATOM     13  O   UNL     1      32.131 -23.912 -12.695  0.00  0.00    -0.347 OA
BRANCH  13  14
ATOM     14  C   UNL     1      30.811 -23.972 -13.224  0.00  0.00    +0.116 C 
ATOM     15  C   UNL     1      30.623 -22.862 -14.257  0.00  0.00    +0.030 C 
ATOM     16  C   UNL     1      30.564 -25.353 -13.830  0.00  0.00    +0.030 C 
ATOM     17  C   UNL     1      29.254 -22.944 -14.926  0.00  0.00    +0.002 C 
ATOM     18  C   UNL     1      29.194 -25.435 -14.498  0.00  0.00    +0.002 C 
ATOM     19  C   UNL     1      29.005 -24.325 -15.529  0.00  0.00    +0.000 C 
ENDBRANCH  13  14
ENDBRANCH  12  13
ENDBRANCH  11  12
ENDBRANCH   3   7
BRANCH   2  20
ATOM     20  C   UNL     1      37.348 -22.407 -16.875  0.00  0.00    +0.116 C 
BRANCH  20  21
ATOM     21  C   UNL     1      36.378 -21.861 -17.882  0.00  0.00    -0.003 C 
ATOM     22  C   UNL     1      35.023 -22.181 -17.789  0.00  0.00    -0.003 C 
ATOM     23  C   UNL     1      36.830 -21.036 -18.912  0.00  0.00    -0.003 C 
ATOM     24  C   UNL     1      34.121 -21.674 -18.726  0.00  0.00    +0.002 C 
ATOM     25  C   UNL     1      35.929 -20.530 -19.848  0.00  0.00    +0.002 C 
ATOM     26  C   UNL     1      34.575 -20.849 -19.755  0.00  0.00    +0.031 C 
BRANCH  26  29
ATOM     27  N   UNL     1      34.069 -19.585 -21.831  0.00  0.00    -0.343 N 
ATOM     28  N   UNL     1      32.340 -20.536 -20.581  0.00  0.00    -0.285 NA
ATOM     29  C   UNL     1      33.635 -20.322 -20.731  0.00  0.00    +0.117 C 
ATOM     30  H   UNL     1      33.415 -19.238 -22.481  0.00  0.00    +0.144 HD
ATOM     31  H   UNL     1      35.030 -19.411 -21.959  0.00  0.00    +0.144 HD
ATOM     32  H   UNL     1      31.702 -20.181 -21.241  0.00  0.00    +0.188 HD
ENDBRANCH  26  29
ENDBRANCH  20  21
ENDBRANCH   2  20
TORSDOF 7
ENDMDL
MODEL 6
REMARK VINA RESULT:      -9.7      8.546     13.716
REMARK  Name = 24963036
REMARK  7 active torsions:
REMARK  status: ('A' for Active; 'I' for Inactive)
REMARK    1  A    between atoms: N_2  and  C_20
REMARK    2  A    between atoms: C_3  and  C_7
REMARK    3  A    between atoms: C_11  and  C_12
REMARK    4  A    between atoms: C_12  and  O_13
REMARK    5  A    between atoms: O_13  and  C_14
REMARK    6  A    between atoms: C_20  and  C_21
REMARK    7  A    between atoms: C_26  and  C_29
REMARK                            x       y       z     vdW  Elec       q    Type
REMARK                         _______ _______ _______ _____ _____    ______ ____
ROOT
ATOM      1  O   UNL     1      33.718 -14.540 -20.538  0.00  0.00    -0.273 OA
ATOM      2  N   UNL     1      32.658 -13.224 -22.139  0.00  0.00    -0.299 N 
ATOM      3  C   UNL     1      33.628 -14.099 -21.682  0.00  0.00    +0.241 C 
ATOM      4  H   UNL     1      32.690 -12.941 -23.082  0.00  0.00    +0.150 HD
ENDROOT
BRANCH   3   7
ATOM      5  O   UNL     1      35.463 -16.694 -21.127  0.00  0.00    -0.272 OA
ATOM      6  N   UNL     1      34.377 -15.919 -23.018  0.00  0.00    -0.271 N 
ATOM      7  C   UNL     1      34.587 -14.500 -22.762  0.00  0.00    +0.152 C 
ATOM      8  C   UNL     1      34.267 -13.815 -24.085  0.00  0.00    +0.031 C 
ATOM      9  C   UNL     1      33.241 -14.745 -24.727  0.00  0.00    +0.024 C 
ATOM     10  C   UNL     1      33.707 -16.129 -24.299  0.00  0.00    +0.094 C 
ATOM     11  C   UNL     1      34.903 -16.909 -22.204  0.00  0.00    +0.256 C 
BRANCH  11  12
ATOM     12  C   UNL     1      34.742 -18.321 -22.709  0.00  0.00    +0.227 C 
BRANCH  12  13
ATOM     13  O   UNL     1      35.601 -19.125 -21.939  0.00  0.00    -0.347 OA
BRANCH  13  14
ATOM     14  C   UNL     1      34.961 -19.626 -20.771  0.00  0.00    +0.116 C 
ATOM     15  C   UNL     1      33.537 -20.061 -21.114  0.00  0.00    +0.030 C 
ATOM     16  C   UNL     1      35.778 -20.782 -20.195  0.00  0.00    +0.030 C 
ATOM     17  C   UNL     1      32.840 -20.697 -19.915  0.00  0.00    +0.002 C 
ATOM     18  C   UNL     1      35.082 -21.418 -18.995  0.00  0.00    +0.002 C 
ATOM     19  C   UNL     1      33.658 -21.850 -19.337  0.00  0.00    +0.000 C 
ENDBRANCH  13  14
ENDBRANCH  12  13
ENDBRANCH  11  12
ENDBRANCH   3   7
BRANCH   2  20
ATOM     20  C   UNL     1      31.602 -12.705 -21.300  0.00  0.00    +0.116 C 
BRANCH  20  21
ATOM     21  C   UNL     1      31.795 -11.248 -20.991  0.00  0.00    -0.003 C 
ATOM     22  C   UNL     1      31.695 -10.797 -19.675  0.00  0.00    -0.003 C 
ATOM     23  C   UNL     1      32.072 -10.347 -22.018  0.00  0.00    -0.003 C 
ATOM     24  C   UNL     1      31.873  -9.443 -19.387  0.00  0.00    +0.002 C 
ATOM     25  C   UNL     1      32.250  -8.994 -21.731  0.00  0.00    +0.002 C 
ATOM     26  C   UNL     1      32.150  -8.542 -20.415  0.00  0.00    +0.031 C 
BRANCH  26  29
ATOM     27  N   UNL     1      31.719  -6.141 -20.878  0.00  0.00    -0.343 N 
ATOM     28  N   UNL     1      33.104  -6.768 -19.104  0.00  0.00    -0.285 NA
ATOM     29  C   UNL     1      32.335  -7.131 -20.115  0.00  0.00    +0.117 C 
ATOM     30  H   UNL     1      31.857  -5.191 -20.656  0.00  0.00    +0.144 HD
ATOM     31  H   UNL     1      31.145  -6.391 -21.638  0.00  0.00    +0.144 HD
ATOM     32  H   UNL     1      33.230  -5.814 -18.898  0.00  0.00    +0.188 HD
ENDBRANCH  26  29
ENDBRANCH  20  21
ENDBRANCH   2  20
TORSDOF 7
ENDMDL
MODEL 7
REMARK VINA RESULT:      -9.5     10.291     15.540
REMARK  Name = 24963036
REMARK  7 active torsions:
REMARK  status: ('A' for Active; 'I' for Inactive)
REMARK    1  A    between atoms: N_2  and  C_20
REMARK    2  A    between atoms: C_3  and  C_7
REMARK    3  A    between atoms: C_11  and  C_12
REMARK    4  A    between atoms: C_12  and  O_13
REMARK    5  A    between atoms: O_13  and  C_14
REMARK    6  A    between atoms: C_20  and  C_21
REMARK    7  A    between atoms: C_26  and  C_29
REMARK                            x       y       z     vdW  Elec       q    Type
REMARK                         _______ _______ _______ _____ _____    ______ ____
ROOT
ATOM      1  O   UNL     1      31.972 -13.411 -22.345  0.00  0.00    -0.273 OA
ATOM      2  N   UNL     1      32.829 -11.250 -22.225  0.00  0.00    -0.299 N 
ATOM      3  C   UNL     1      32.823 -12.573 -22.632  0.00  0.00    +0.241 C 
ATOM      4  H   UNL     1      33.568 -10.672 -22.522  0.00  0.00    +0.150 HD
ENDROOT
BRANCH   3   7
ATOM      5  O   UNL     1      34.733 -15.002 -21.705  0.00  0.00    -0.272 OA
ATOM      6  N   UNL     1      33.943 -14.334 -23.775  0.00  0.00    -0.271 N 
ATOM      7  C   UNL     1      33.988 -12.901 -23.516  0.00  0.00    +0.152 C 
ATOM      8  C   UNL     1      33.856 -12.255 -24.890  0.00  0.00    +0.031 C 
ATOM      9  C   UNL     1      33.038 -13.272 -25.683  0.00  0.00    +0.024 C 
ATOM     10  C   UNL     1      33.530 -14.608 -25.149  0.00  0.00    +0.094 C 
ATOM     11  C   UNL     1      34.393 -15.271 -22.858  0.00  0.00    +0.256 C 
BRANCH  11  12
ATOM     12  C   UNL     1      34.438 -16.695 -23.353  0.00  0.00    +0.227 C 
BRANCH  12  13
ATOM     13  O   UNL     1      35.671 -17.227 -22.935  0.00  0.00    -0.347 OA
BRANCH  13  14
ATOM     14  C   UNL     1      35.547 -17.994 -21.744  0.00  0.00    +0.116 C 
ATOM     15  C   UNL     1      34.435 -19.030 -21.914  0.00  0.00    +0.030 C 
ATOM     16  C   UNL     1      36.885 -18.655 -21.417  0.00  0.00    +0.030 C 
ATOM     17  C   UNL     1      34.327 -19.944 -20.697  0.00  0.00    +0.002 C 
ATOM     18  C   UNL     1      36.778 -19.569 -20.199  0.00  0.00    +0.002 C 
ATOM     19  C   UNL     1      35.666 -20.601 -20.369  0.00  0.00    +0.000 C 
ENDBRANCH  13  14
ENDBRANCH  12  13
ENDBRANCH  11  12
ENDBRANCH   3   7
BRANCH   2  20
ATOM     20  C   UNL     1      31.802 -10.677 -21.385  0.00  0.00    +0.116 C 
BRANCH  20  21
ATOM     21  C   UNL     1      31.651  -9.200 -21.611  0.00  0.00    -0.003 C 
ATOM     22  C   UNL     1      31.280  -8.722 -22.868  0.00  0.00    -0.003 C 
ATOM     23  C   UNL     1      31.884  -8.307 -20.566  0.00  0.00    -0.003 C 
ATOM     24  C   UNL     1      31.141  -7.349 -23.079  0.00  0.00    +0.002 C 
ATOM     25  C   UNL     1      31.745  -6.935 -20.776  0.00  0.00    +0.002 C 
ATOM     26  C   UNL     1      31.374  -6.456 -22.032  0.00  0.00    +0.031 C 
BRANCH  26  29
ATOM     27  N   UNL     1      30.405  -4.248 -21.442  0.00  0.00    -0.343 N 
ATOM     28  N   UNL     1      31.886  -4.442 -23.239  0.00  0.00    -0.285 NA
ATOM     29  C   UNL     1      31.230  -5.026 -22.252  0.00  0.00    +0.117 C 
ATOM     30  H   UNL     1      30.322  -3.281 -21.609  0.00  0.00    +0.144 HD
ATOM     31  H   UNL     1      29.904  -4.665 -20.704  0.00  0.00    +0.144 HD
ATOM     32  H   UNL     1      31.791  -3.474 -23.389  0.00  0.00    +0.188 HD
ENDBRANCH  26  29
ENDBRANCH  20  21
ENDBRANCH   2  20
TORSDOF 7
ENDMDL
MODEL 8
REMARK VINA RESULT:      -9.5      2.500      6.869
REMARK  Name = 24963036
REMARK  7 active torsions:
REMARK  status: ('A' for Active; 'I' for Inactive)
REMARK    1  A    between atoms: N_2  and  C_20
REMARK    2  A    between atoms: C_3  and  C_7
REMARK    3  A    between atoms: C_11  and  C_12
REMARK    4  A    between atoms: C_12  and  O_13
REMARK    5  A    between atoms: O_13  and  C_14
REMARK    6  A    between atoms: C_20  and  C_21
REMARK    7  A    between atoms: C_26  and  C_29
REMARK                            x       y       z     vdW  Elec       q    Type
REMARK                         _______ _______ _______ _____ _____    ______ ____
ROOT
ATOM      1  O   UNL     1      39.593 -24.391 -14.748  0.00  0.00    -0.273 OA
ATOM      2  N   UNL     1      37.450 -23.558 -15.114  0.00  0.00    -0.299 N 
ATOM      3  C   UNL     1      38.379 -24.423 -14.562  0.00  0.00    +0.241 C 
ATOM      4  H   UNL     1      36.500 -23.685 -14.889  0.00  0.00    +0.150 HD
ENDROOT
BRANCH   3   7
ATOM      5  O   UNL     1      36.380 -23.308 -12.288  0.00  0.00    -0.272 OA
ATOM      6  N   UNL     1      36.311 -25.174 -13.656  0.00  0.00    -0.271 N 
ATOM      7  C   UNL     1      37.744 -25.434 -13.655  0.00  0.00    +0.152 C 
ATOM      8  C   UNL     1      37.881 -26.850 -14.203  0.00  0.00    +0.031 C 
ATOM      9  C   UNL     1      36.669 -26.994 -15.121  0.00  0.00    +0.024 C 
ATOM     10  C   UNL     1      35.589 -26.203 -14.400  0.00  0.00    +0.094 C 
ATOM     11  C   UNL     1      35.737 -24.161 -12.903  0.00  0.00    +0.256 C 
BRANCH  11  12
ATOM     12  C   UNL     1      34.230 -24.141 -12.881  0.00  0.00    +0.227 C 
BRANCH  12  13
ATOM     13  O   UNL     1      33.819 -23.457 -14.039  0.00  0.00    -0.347 OA
BRANCH  13  14
ATOM     14  C   UNL     1      32.588 -23.958 -14.548  0.00  0.00    +0.116 C 
ATOM     15  C   UNL     1      31.950 -24.891 -13.520  0.00  0.00    +0.030 C 
ATOM     16  C   UNL     1      31.665 -22.792 -14.897  0.00  0.00    +0.030 C 
ATOM     17  C   UNL     1      30.579 -25.380 -13.978  0.00  0.00    +0.002 C 
ATOM     18  C   UNL     1      30.293 -23.279 -15.356  0.00  0.00    +0.002 C 
ATOM     19  C   UNL     1      29.658 -24.214 -14.330  0.00  0.00    +0.000 C 
ENDBRANCH  13  14
ENDBRANCH  12  13
ENDBRANCH  11  12
ENDBRANCH   3   7
BRANCH   2  20
ATOM     20  C   UNL     1      37.808 -22.478 -16.005  0.00  0.00    +0.116 C 
BRANCH  20  21
ATOM     21  C   UNL     1      36.710 -22.169 -16.981  0.00  0.00    -0.003 C 
ATOM     22  C   UNL     1      36.988 -21.429 -18.132  0.00  0.00    -0.003 C 
ATOM     23  C   UNL     1      35.412 -22.618 -16.738  0.00  0.00    -0.003 C 
ATOM     24  C   UNL     1      35.968 -21.140 -19.039  0.00  0.00    +0.002 C 
ATOM     25  C   UNL     1      34.392 -22.329 -17.645  0.00  0.00    +0.002 C 
ATOM     26  C   UNL     1      34.670 -21.590 -18.795  0.00  0.00    +0.031 C 
BRANCH  26  29
ATOM     27  N   UNL     1      33.717 -20.232 -20.642  0.00  0.00    -0.343 N 
ATOM     28  N   UNL     1      32.508 -22.021 -19.751  0.00  0.00    -0.285 NA
ATOM     29  C   UNL     1      33.607 -21.289 -19.740  0.00  0.00    +0.117 C 
ATOM     30  H   UNL     1      32.985 -20.046 -21.274  0.00  0.00    +0.144 HD
ATOM     31  H   UNL     1      34.527 -19.672 -20.648  0.00  0.00    +0.144 HD
ATOM     32  H   UNL     1      31.787 -21.819 -20.390  0.00  0.00    +0.188 HD
ENDBRANCH  26  29
ENDBRANCH  20  21
ENDBRANCH   2  20
TORSDOF 7
ENDMDL
MODEL 9
REMARK VINA RESULT:      -9.5      8.619     12.284
REMARK  Name = 24963036
REMARK  7 active torsions:
REMARK  status: ('A' for Active; 'I' for Inactive)
REMARK    1  A    between atoms: N_2  and  C_20
REMARK    2  A    between atoms: C_3  and  C_7
REMARK    3  A    between atoms: C_11  and  C_12
REMARK    4  A    between atoms: C_12  and  O_13
REMARK    5  A    between atoms: O_13  and  C_14
REMARK    6  A    between atoms: C_20  and  C_21
REMARK    7  A    between atoms: C_26  and  C_29
REMARK                            x       y       z     vdW  Elec       q    Type
REMARK                         _______ _______ _______ _____ _____    ______ ____
ROOT
ATOM      1  O   UNL     1      33.415 -14.892 -23.647  0.00  0.00    -0.273 OA
ATOM      2  N   UNL     1      34.930 -15.934 -22.219  0.00  0.00    -0.299 N 
ATOM      3  C   UNL     1      34.144 -14.883 -22.658  0.00  0.00    +0.241 C 
ATOM      4  H   UNL     1      35.475 -15.806 -21.410  0.00  0.00    +0.150 HD
ENDROOT
BRANCH   3   7
ATOM      5  O   UNL     1      34.569 -12.020 -24.083  0.00  0.00    -0.272 OA
ATOM      6  N   UNL     1      33.306 -12.692 -22.264  0.00  0.00    -0.271 N 
ATOM      7  C   UNL     1      34.248 -13.684 -21.764  0.00  0.00    +0.152 C 
ATOM      8  C   UNL     1      33.774 -13.991 -20.348  0.00  0.00    +0.031 C 
ATOM      9  C   UNL     1      32.269 -13.741 -20.417  0.00  0.00    +0.024 C 
ATOM     10  C   UNL     1      32.153 -12.566 -21.376  0.00  0.00    +0.094 C 
ATOM     11  C   UNL     1      33.584 -11.884 -23.355  0.00  0.00    +0.256 C 
BRANCH  11  12
ATOM     12  C   UNL     1      32.579 -10.794 -23.630  0.00  0.00    +0.227 C 
BRANCH  12  13
ATOM     13  O   UNL     1      33.143  -9.597 -23.153  0.00  0.00    -0.347 OA
BRANCH  13  14
ATOM     14  C   UNL     1      32.191  -8.794 -22.465  0.00  0.00    +0.116 C 
ATOM     15  C   UNL     1      32.854  -8.136 -21.255  0.00  0.00    +0.030 C 
ATOM     16  C   UNL     1      31.610  -7.753 -23.421  0.00  0.00    +0.030 C 
ATOM     17  C   UNL     1      31.900  -7.186 -20.537  0.00  0.00    +0.002 C 
ATOM     18  C   UNL     1      30.655  -6.803 -22.705  0.00  0.00    +0.002 C 
ATOM     19  C   UNL     1      31.317  -6.149 -21.494  0.00  0.00    +0.000 C 
ENDBRANCH  13  14
ENDBRANCH  12  13
ENDBRANCH  11  12
ENDBRANCH   3   7
BRANCH   2  20
ATOM     20  C   UNL     1      34.990 -17.211 -22.894  0.00  0.00    +0.116 C 
BRANCH  20  21
ATOM     21  C   UNL     1      35.173 -18.347 -21.929  0.00  0.00    -0.003 C 
ATOM     22  C   UNL     1      36.432 -18.603 -21.384  0.00  0.00    -0.003 C 
ATOM     23  C   UNL     1      34.086 -19.149 -21.580  0.00  0.00    -0.003 C 
ATOM     24  C   UNL     1      36.603 -19.659 -20.488  0.00  0.00    +0.002 C 
ATOM     25  C   UNL     1      34.257 -20.204 -20.685  0.00  0.00    +0.002 C 
ATOM     26  C   UNL     1      35.515 -20.460 -20.139  0.00  0.00    +0.031 C 
BRANCH  26  29
ATOM     27  N   UNL     1      36.608 -21.482 -18.158  0.00  0.00    -0.343 N 
ATOM     28  N   UNL     1      34.982 -22.665 -19.347  0.00  0.00    -0.285 NA
ATOM     29  C   UNL     1      35.693 -21.561 -19.207  0.00  0.00    +0.117 C 
ATOM     30  H   UNL     1      36.712 -22.239 -17.537  0.00  0.00    +0.144 HD
ATOM     31  H   UNL     1      37.150 -20.668 -18.038  0.00  0.00    +0.144 HD
ATOM     32  H   UNL     1      35.101 -23.411 -18.717  0.00  0.00    +0.188 HD
ENDBRANCH  26  29
ENDBRANCH  20  21
ENDBRANCH   2  20
TORSDOF 7
ENDMDL
