MODEL 1
REMARK VINA RESULT:     -11.5      0.000      0.000
REMARK  Name = 24779675
REMARK  4 active torsions:
REMARK  status: ('A' for Active; 'I' for Inactive)
REMARK    1  A    between atoms: N_1  and  C_22
REMARK    2  A    between atoms: N_5  and  C_14
REMARK    3  A    between atoms: C_10  and  C_21
REMARK    4  A    between atoms: C_22  and  C_23
REMARK                            x       y       z     vdW  Elec       q    Type
REMARK                         _______ _______ _______ _____ _____    ______ ____
ROOT
ATOM      1  N   UNL     1      34.390 -22.774 -18.049  0.00  0.00    -0.259 N 
ATOM      2  N   UNL     1      32.420 -22.924 -16.876  0.00  0.00    -0.314 NA
ATOM      3  N   UNL     1      34.449 -23.751 -15.925  0.00  0.00    -0.295 NA
ATOM      4  N   UNL     1      32.496 -23.908 -14.741  0.00  0.00    -0.123 N 
ATOM      5  N   UNL     1      34.483 -24.737 -13.769  0.00  0.00    -0.274 N 
ATOM      6  N   UNL     1      31.756 -24.250 -13.671  0.00  0.00    -0.170 NA
ATOM      7  C   UNL     1      33.715 -23.146 -16.942  0.00  0.00    +0.203 C 
ATOM      8  C   UNL     1      31.789 -23.313 -15.745  0.00  0.00    +0.219 C 
ATOM      9  C   UNL     1      33.861 -24.135 -14.829  0.00  0.00    +0.279 C 
ATOM     10  C   UNL     1      30.489 -23.261 -15.297  0.00  0.00    +0.203 C 
ATOM     11  C   UNL     1      30.529 -23.850 -14.018  0.00  0.00    +0.116 C 
ATOM     12  H   UNL     1      35.359 -22.946 -18.086  0.00  0.00    +0.160 HD
ATOM     13  H   UNL     1      33.914 -24.975 -13.002  0.00  0.00    +0.156 HD
ENDROOT
BRANCH   5  14
ATOM     14  C   UNL     1      35.839 -25.050 -13.661  0.00  0.00    +0.051 C 
ATOM     15  C   UNL     1      36.382 -26.078 -14.432  0.00  0.00    +0.015 C 
ATOM     16  C   UNL     1      36.652 -24.334 -12.782  0.00  0.00    +0.015 C 
ATOM     17  C   UNL     1      37.736 -26.392 -14.323  0.00  0.00    +0.001 C 
ATOM     18  C   UNL     1      38.007 -24.648 -12.674  0.00  0.00    +0.001 C 
ATOM     19  C   UNL     1      38.549 -25.677 -13.444  0.00  0.00    +0.000 C 
ENDBRANCH   5  14
BRANCH  10  21
ATOM     20  N   UNL     1      28.459 -22.290 -16.562  0.00  0.00    -0.195 NA
ATOM     21  C   UNL     1      29.371 -22.726 -15.993  0.00  0.00    +0.087 C 
ENDBRANCH  10  21
BRANCH   1  22
ATOM     22  C   UNL     1      33.764 -22.139 -19.179  0.00  0.00    +0.099 C 
BRANCH  22  23
ATOM     23  C   UNL     1      34.507 -20.849 -19.521  0.00  0.00    +0.020 C 
ATOM     24  C   UNL     1      36.001 -21.126 -19.741  0.00  0.00    +0.002 C 
ATOM     25  C   UNL     1      33.889 -20.178 -20.754  0.00  0.00    +0.002 C 
ATOM     26  C   UNL     1      36.758 -19.860 -20.137  0.00  0.00    +0.000 C 
ATOM     27  C   UNL     1      34.650 -18.913 -21.148  0.00  0.00    +0.000 C 
ATOM     28  C   UNL     1      36.135 -19.191 -21.357  0.00  0.00    +0.000 C 
ENDBRANCH  22  23
ENDBRANCH   1  22
TORSDOF 4
ENDMDL
MODEL 2
REMARK VINA RESULT:     -10.8      1.412      5.587
REMARK  Name = 24779675
REMARK  4 active torsions:
REMARK  status: ('A' for Active; 'I' for Inactive)
REMARK    1  A    between atoms: N_1  and  C_22
REMARK    2  A    between atoms: N_5  and  C_14
REMARK    3  A    between atoms: C_10  and  C_21
REMARK    4  A    between atoms: C_22  and  C_23
REMARK                            x       y       z     vdW  Elec       q    Type
REMARK                         _______ _______ _______ _____ _____    ______ ____
ROOT
ATOM      1  N   UNL     1      34.341 -22.533 -17.562  0.00  0.00    -0.259 N 
ATOM      2  N   UNL     1      35.264 -23.296 -15.601  0.00  0.00    -0.314 NA
ATOM      3  N   UNL     1      32.891 -23.249 -15.873  0.00  0.00    -0.295 NA
ATOM      4  N   UNL     1      33.792 -24.014 -13.912  0.00  0.00    -0.123 N 
ATOM      5  N   UNL     1      31.442 -23.981 -14.145  0.00  0.00    -0.274 N 
ATOM      6  N   UNL     1      33.725 -24.516 -12.666  0.00  0.00    -0.170 NA
ATOM      7  C   UNL     1      34.193 -23.036 -16.319  0.00  0.00    +0.203 C 
ATOM      8  C   UNL     1      35.062 -23.801 -14.362  0.00  0.00    +0.219 C 
ATOM      9  C   UNL     1      32.675 -23.733 -14.683  0.00  0.00    +0.279 C 
ATOM     10  C   UNL     1      35.888 -24.195 -13.334  0.00  0.00    +0.203 C 
ATOM     11  C   UNL     1      35.011 -24.625 -12.318  0.00  0.00    +0.116 C 
ATOM     12  H   UNL     1      33.532 -22.343 -18.089  0.00  0.00    +0.160 HD
ATOM     13  H   UNL     1      31.427 -24.348 -13.232  0.00  0.00    +0.156 HD
ENDROOT
BRANCH   5  14
ATOM     14  C   UNL     1      30.204 -23.770 -14.754  0.00  0.00    +0.051 C 
ATOM     15  C   UNL     1      29.559 -22.540 -14.615  0.00  0.00    +0.015 C 
ATOM     16  C   UNL     1      29.611 -24.788 -15.501  0.00  0.00    +0.015 C 
ATOM     17  C   UNL     1      28.321 -22.329 -15.222  0.00  0.00    +0.001 C 
ATOM     18  C   UNL     1      28.373 -24.576 -16.109  0.00  0.00    +0.001 C 
ATOM     19  C   UNL     1      27.728 -23.347 -15.969  0.00  0.00    +0.000 C 
ENDBRANCH   5  14
BRANCH  10  21
ATOM     20  N   UNL     1      38.468 -24.138 -13.316  0.00  0.00    -0.195 NA
ATOM     21  C   UNL     1      37.308 -24.162 -13.324  0.00  0.00    +0.087 C 
ENDBRANCH  10  21
BRANCH   1  22
ATOM     22  C   UNL     1      35.624 -22.261 -18.155  0.00  0.00    +0.099 C 
BRANCH  22  23
ATOM     23  C   UNL     1      35.434 -21.508 -19.471  0.00  0.00    +0.020 C 
ATOM     24  C   UNL     1      34.007 -20.952 -19.574  0.00  0.00    +0.002 C 
ATOM     25  C   UNL     1      36.469 -20.384 -19.607  0.00  0.00    +0.002 C 
ATOM     26  C   UNL     1      33.807 -20.148 -20.857  0.00  0.00    +0.000 C 
ATOM     27  C   UNL     1      36.265 -19.582 -20.890  0.00  0.00    +0.000 C 
ATOM     28  C   UNL     1      34.843 -19.038 -20.994  0.00  0.00    +0.000 C 
ENDBRANCH  22  23
ENDBRANCH   1  22
TORSDOF 4
ENDMDL
MODEL 3
REMARK VINA RESULT:     -10.2      1.789      7.460
REMARK  Name = 24779675
REMARK  4 active torsions:
REMARK  status: ('A' for Active; 'I' for Inactive)
REMARK    1  A    between atoms: N_1  and  C_22
REMARK    2  A    between atoms: N_5  and  C_14
REMARK    3  A    between atoms: C_10  and  C_21
REMARK    4  A    between atoms: C_22  and  C_23
REMARK                            x       y       z     vdW  Elec       q    Type
REMARK                         _______ _______ _______ _____ _____    ______ ____
ROOT
ATOM      1  N   UNL     1      32.998 -23.181 -14.552  0.00  0.00    -0.259 N 
ATOM      2  N   UNL     1      35.095 -23.837 -13.878  0.00  0.00    -0.314 NA
ATOM      3  N   UNL     1      34.803 -22.706 -15.962  0.00  0.00    -0.295 NA
ATOM      4  N   UNL     1      36.900 -23.351 -15.307  0.00  0.00    -0.123 N 
ATOM      5  N   UNL     1      36.648 -22.235 -17.373  0.00  0.00    -0.274 N 
ATOM      6  N   UNL     1      38.231 -23.464 -15.458  0.00  0.00    -0.170 NA
ATOM      7  C   UNL     1      34.327 -23.257 -14.774  0.00  0.00    +0.203 C 
ATOM      8  C   UNL     1      36.420 -23.886 -14.148  0.00  0.00    +0.219 C 
ATOM      9  C   UNL     1      36.074 -22.744 -16.240  0.00  0.00    +0.279 C 
ATOM     10  C   UNL     1      37.520 -24.387 -13.490  0.00  0.00    +0.203 C 
ATOM     11  C   UNL     1      38.605 -24.098 -14.343  0.00  0.00    +0.116 C 
ATOM     12  H   UNL     1      32.435 -22.745 -15.230  0.00  0.00    +0.160 HD
ATOM     13  H   UNL     1      37.624 -22.334 -17.454  0.00  0.00    +0.156 HD
ENDROOT
BRANCH   5  14
ATOM     14  C   UNL     1      35.997 -21.589 -18.426  0.00  0.00    +0.051 C 
ATOM     15  C   UNL     1      36.703 -20.715 -19.252  0.00  0.00    +0.015 C 
ATOM     16  C   UNL     1      34.639 -21.819 -18.652  0.00  0.00    +0.015 C 
ATOM     17  C   UNL     1      36.052 -20.069 -20.303  0.00  0.00    +0.001 C 
ATOM     18  C   UNL     1      33.989 -21.174 -19.704  0.00  0.00    +0.001 C 
ATOM     19  C   UNL     1      34.695 -20.299 -20.529  0.00  0.00    +0.000 C 
ENDBRANCH   5  14
BRANCH  10  21
ATOM     20  N   UNL     1      37.542 -25.584 -11.204  0.00  0.00    -0.195 NA
ATOM     21  C   UNL     1      37.533 -25.045 -12.232  0.00  0.00    +0.087 C 
ENDBRANCH  10  21
BRANCH   1  22
ATOM     22  C   UNL     1      32.365 -23.707 -13.371  0.00  0.00    +0.099 C 
BRANCH  22  23
ATOM     23  C   UNL     1      30.860 -23.825 -13.603  0.00  0.00    +0.020 C 
ATOM     24  C   UNL     1      30.391 -22.798 -14.643  0.00  0.00    +0.002 C 
ATOM     25  C   UNL     1      30.488 -25.249 -14.035  0.00  0.00    +0.002 C 
ATOM     26  C   UNL     1      28.897 -22.931 -14.933  0.00  0.00    +0.000 C 
ATOM     27  C   UNL     1      28.994 -25.378 -14.326  0.00  0.00    +0.000 C 
ATOM     28  C   UNL     1      28.529 -24.350 -15.353  0.00  0.00    +0.000 C 
ENDBRANCH  22  23
ENDBRANCH   1  22
TORSDOF 4
ENDMDL
MODEL 4
REMARK VINA RESULT:      -9.9      1.290      6.458
REMARK  Name = 24779675
REMARK  4 active torsions:
REMARK  status: ('A' for Active; 'I' for Inactive)
REMARK    1  A    between atoms: N_1  and  C_22
REMARK    2  A    between atoms: N_5  and  C_14
REMARK    3  A    between atoms: C_10  and  C_21
REMARK    4  A    between atoms: C_22  and  C_23
REMARK                            x       y       z     vdW  Elec       q    Type
REMARK                         _______ _______ _______ _____ _____    ______ ____
ROOT
ATOM      1  N   UNL     1      35.551 -23.484 -14.924  0.00  0.00    -0.259 N 
ATOM      2  N   UNL     1      33.301 -23.815 -14.596  0.00  0.00    -0.314 NA
ATOM      3  N   UNL     1      34.077 -22.718 -16.570  0.00  0.00    -0.295 NA
ATOM      4  N   UNL     1      31.831 -23.040 -16.262  0.00  0.00    -0.123 N 
ATOM      5  N   UNL     1      32.563 -21.951 -18.226  0.00  0.00    -0.274 N 
ATOM      6  N   UNL     1      30.537 -22.945 -16.615  0.00  0.00    -0.170 NA
ATOM      7  C   UNL     1      34.276 -23.351 -15.346  0.00  0.00    +0.203 C 
ATOM      8  C   UNL     1      32.041 -23.658 -15.064  0.00  0.00    +0.219 C 
ATOM      9  C   UNL     1      32.873 -22.556 -17.038  0.00  0.00    +0.279 C 
ATOM     10  C   UNL     1      30.789 -23.994 -14.600  0.00  0.00    +0.203 C 
ATOM     11  C   UNL     1      29.905 -23.531 -15.594  0.00  0.00    +0.116 C 
ATOM     12  H   UNL     1      36.271 -23.132 -15.494  0.00  0.00    +0.160 HD
ATOM     13  H   UNL     1      31.607 -21.897 -18.456  0.00  0.00    +0.156 HD
ENDROOT
BRANCH   5  14
ATOM     14  C   UNL     1      33.459 -21.403 -19.146  0.00  0.00    +0.051 C 
ATOM     15  C   UNL     1      32.995 -20.544 -20.143  0.00  0.00    +0.015 C 
ATOM     16  C   UNL     1      34.816 -21.714 -19.068  0.00  0.00    +0.015 C 
ATOM     17  C   UNL     1      33.890 -19.997 -21.064  0.00  0.00    +0.001 C 
ATOM     18  C   UNL     1      35.710 -21.166 -19.988  0.00  0.00    +0.001 C 
ATOM     19  C   UNL     1      35.247 -20.308 -20.986  0.00  0.00    +0.000 C 
ENDBRANCH   5  14
BRANCH  10  21
ATOM     20  N   UNL     1      30.235 -25.201 -12.386  0.00  0.00    -0.195 NA
ATOM     21  C   UNL     1      30.485 -24.659 -13.382  0.00  0.00    +0.087 C 
ENDBRANCH  10  21
BRANCH   1  22
ATOM     22  C   UNL     1      35.907 -24.115 -13.680  0.00  0.00    +0.099 C 
BRANCH  22  23
ATOM     23  C   UNL     1      37.421 -24.314 -13.621  0.00  0.00    +0.020 C 
ATOM     24  C   UNL     1      37.762 -25.705 -13.069  0.00  0.00    +0.002 C 
ATOM     25  C   UNL     1      38.050 -24.106 -15.004  0.00  0.00    +0.002 C 
ATOM     26  C   UNL     1      39.269 -25.950 -13.049  0.00  0.00    +0.000 C 
ATOM     27  C   UNL     1      39.557 -24.354 -14.981  0.00  0.00    +0.000 C 
ATOM     28  C   UNL     1      39.893 -25.734 -14.423  0.00  0.00    +0.000 C 
ENDBRANCH  22  23
ENDBRANCH   1  22
TORSDOF 4
ENDMDL
MODEL 5
REMARK VINA RESULT:      -9.6      1.362      6.757
REMARK  Name = 24779675
REMARK  4 active torsions:
REMARK  status: ('A' for Active; 'I' for Inactive)
REMARK    1  A    between atoms: N_1  and  C_22
REMARK    2  A    between atoms: N_5  and  C_14
REMARK    3  A    between atoms: C_10  and  C_21
REMARK    4  A    between atoms: C_22  and  C_23
REMARK                            x       y       z     vdW  Elec       q    Type
REMARK                         _______ _______ _______ _____ _____    ______ ____
ROOT
ATOM      1  N   UNL     1      35.344 -24.142 -15.427  0.00  0.00    -0.259 N 
ATOM      2  N   UNL     1      33.080 -24.152 -15.031  0.00  0.00    -0.314 NA
ATOM      3  N   UNL     1      33.966 -22.950 -16.895  0.00  0.00    -0.295 NA
ATOM      4  N   UNL     1      31.709 -22.950 -16.517  0.00  0.00    -0.123 N 
ATOM      5  N   UNL     1      32.550 -21.751 -18.370  0.00  0.00    -0.274 N 
ATOM      6  N   UNL     1      30.438 -22.608 -16.792  0.00  0.00    -0.170 NA
ATOM      7  C   UNL     1      34.096 -23.757 -15.767  0.00  0.00    +0.203 C 
ATOM      8  C   UNL     1      31.850 -23.740 -15.414  0.00  0.00    +0.219 C 
ATOM      9  C   UNL     1      32.792 -22.542 -17.280  0.00  0.00    +0.279 C 
ATOM     10  C   UNL     1      30.575 -23.931 -14.933  0.00  0.00    +0.203 C 
ATOM     11  C   UNL     1      29.749 -23.211 -15.820  0.00  0.00    +0.116 C 
ATOM     12  H   UNL     1      36.095 -23.839 -15.986  0.00  0.00    +0.160 HD
ATOM     13  H   UNL     1      31.610 -21.518 -18.544  0.00  0.00    +0.156 HD
ENDROOT
BRANCH   5  14
ATOM     14  C   UNL     1      33.496 -21.239 -19.260  0.00  0.00    +0.051 C 
ATOM     15  C   UNL     1      34.841 -21.583 -19.123  0.00  0.00    +0.015 C 
ATOM     16  C   UNL     1      33.095 -20.383 -20.287  0.00  0.00    +0.015 C 
ATOM     17  C   UNL     1      35.786 -21.071 -20.012  0.00  0.00    +0.001 C 
ATOM     18  C   UNL     1      34.041 -19.871 -21.176  0.00  0.00    +0.001 C 
ATOM     19  C   UNL     1      35.386 -20.215 -21.038  0.00  0.00    +0.000 C 
ENDBRANCH   5  14
BRANCH  10  21
ATOM     20  N   UNL     1      29.898 -25.307 -12.857  0.00  0.00    -0.195 NA
ATOM     21  C   UNL     1      30.201 -24.688 -13.790  0.00  0.00    +0.087 C 
ENDBRANCH  10  21
BRANCH   1  22
ATOM     22  C   UNL     1      35.629 -24.973 -14.288  0.00  0.00    +0.099 C 
BRANCH  22  23
ATOM     23  C   UNL     1      35.781 -24.104 -13.041  0.00  0.00    +0.020 C 
ATOM     24  C   UNL     1      35.423 -24.900 -11.779  0.00  0.00    +0.002 C 
ATOM     25  C   UNL     1      37.203 -23.538 -12.945  0.00  0.00    +0.002 C 
ATOM     26  C   UNL     1      35.617 -24.068 -10.513  0.00  0.00    +0.000 C 
ATOM     27  C   UNL     1      37.395 -22.708 -11.677  0.00  0.00    +0.000 C 
ATOM     28  C   UNL     1      37.030 -23.500 -10.425  0.00  0.00    +0.000 C 
ENDBRANCH  22  23
ENDBRANCH   1  22
TORSDOF 4
ENDMDL
MODEL 6
REMARK VINA RESULT:      -9.4      1.676      6.997
REMARK  Name = 24779675
REMARK  4 active torsions:
REMARK  status: ('A' for Active; 'I' for Inactive)
REMARK    1  A    between atoms: N_1  and  C_22
REMARK    2  A    between atoms: N_5  and  C_14
REMARK    3  A    between atoms: C_10  and  C_21
REMARK    4  A    between atoms: C_22  and  C_23
REMARK                            x       y       z     vdW  Elec       q    Type
REMARK                         _______ _______ _______ _____ _____    ______ ____
ROOT
ATOM      1  N   UNL     1      35.955 -23.450 -15.292  0.00  0.00    -0.259 N 
ATOM      2  N   UNL     1      35.507 -22.364 -17.267  0.00  0.00    -0.314 NA
ATOM      3  N   UNL     1      33.721 -23.259 -15.958  0.00  0.00    -0.295 NA
ATOM      4  N   UNL     1      33.255 -22.179 -17.922  0.00  0.00    -0.123 N 
ATOM      5  N   UNL     1      31.464 -23.051 -16.653  0.00  0.00    -0.274 N 
ATOM      6  N   UNL     1      32.433 -21.705 -18.875  0.00  0.00    -0.170 NA
ATOM      7  C   UNL     1      35.067 -23.004 -16.206  0.00  0.00    +0.203 C 
ATOM      8  C   UNL     1      34.578 -21.937 -18.153  0.00  0.00    +0.219 C 
ATOM      9  C   UNL     1      32.811 -22.857 -16.797  0.00  0.00    +0.279 C 
ATOM     10  C   UNL     1      34.624 -21.252 -19.346  0.00  0.00    +0.203 C 
ATOM     11  C   UNL     1      33.276 -21.139 -19.743  0.00  0.00    +0.116 C 
ATOM     12  H   UNL     1      35.613 -23.927 -14.503  0.00  0.00    +0.160 HD
ATOM     13  H   UNL     1      30.889 -22.693 -17.367  0.00  0.00    +0.156 HD
ENDROOT
BRANCH   5  14
ATOM     14  C   UNL     1      30.819 -23.703 -15.600  0.00  0.00    +0.051 C 
ATOM     15  C   UNL     1      31.172 -23.416 -14.281  0.00  0.00    +0.015 C 
ATOM     16  C   UNL     1      29.822 -24.641 -15.867  0.00  0.00    +0.015 C 
ATOM     17  C   UNL     1      30.529 -24.068 -13.229  0.00  0.00    +0.001 C 
ATOM     18  C   UNL     1      29.178 -25.292 -14.815  0.00  0.00    +0.001 C 
ATOM     19  C   UNL     1      29.532 -25.006 -13.496  0.00  0.00    +0.000 C 
ENDBRANCH   5  14
BRANCH  10  21
ATOM     20  N   UNL     1      36.736 -20.389 -20.552  0.00  0.00    -0.195 NA
ATOM     21  C   UNL     1      35.786 -20.777 -20.009  0.00  0.00    +0.087 C 
ENDBRANCH  10  21
BRANCH   1  22
ATOM     22  C   UNL     1      37.376 -23.261 -15.417  0.00  0.00    +0.099 C 
BRANCH  22  23
ATOM     23  C   UNL     1      38.082 -23.857 -14.200  0.00  0.00    +0.020 C 
ATOM     24  C   UNL     1      37.232 -23.671 -12.936  0.00  0.00    +0.002 C 
ATOM     25  C   UNL     1      38.402 -25.340 -14.430  0.00  0.00    +0.002 C 
ATOM     26  C   UNL     1      37.892 -24.305 -11.714  0.00  0.00    +0.000 C 
ATOM     27  C   UNL     1      39.060 -25.971 -13.205  0.00  0.00    +0.000 C 
ATOM     28  C   UNL     1      38.216 -25.777 -11.949  0.00  0.00    +0.000 C 
ENDBRANCH  22  23
ENDBRANCH   1  22
TORSDOF 4
ENDMDL
MODEL 7
REMARK VINA RESULT:      -8.6      1.798      7.486
REMARK  Name = 24779675
REMARK  4 active torsions:
REMARK  status: ('A' for Active; 'I' for Inactive)
REMARK    1  A    between atoms: N_1  and  C_22
REMARK    2  A    between atoms: N_5  and  C_14
REMARK    3  A    between atoms: C_10  and  C_21
REMARK    4  A    between atoms: C_22  and  C_23
REMARK                            x       y       z     vdW  Elec       q    Type
REMARK                         _______ _______ _______ _____ _____    ______ ____
ROOT
ATOM      1  N   UNL     1      32.538 -22.866 -17.316  0.00  0.00    -0.259 N 
ATOM      2  N   UNL     1      34.443 -23.309 -16.110  0.00  0.00    -0.314 NA
ATOM      3  N   UNL     1      34.547 -21.920 -18.050  0.00  0.00    -0.295 NA
ATOM      4  N   UNL     1      36.456 -22.349 -16.861  0.00  0.00    -0.123 N 
ATOM      5  N   UNL     1      36.596 -20.971 -18.773  0.00  0.00    -0.274 N 
ATOM      6  N   UNL     1      37.773 -22.244 -16.610  0.00  0.00    -0.170 NA
ATOM      7  C   UNL     1      33.866 -22.713 -17.130  0.00  0.00    +0.203 C 
ATOM      8  C   UNL     1      35.775 -23.124 -15.967  0.00  0.00    +0.219 C 
ATOM      9  C   UNL     1      35.829 -21.729 -17.931  0.00  0.00    +0.279 C 
ATOM     10  C   UNL     1      36.719 -23.557 -15.063  0.00  0.00    +0.203 C 
ATOM     11  C   UNL     1      37.927 -22.984 -15.509  0.00  0.00    +0.116 C 
ATOM     12  H   UNL     1      32.118 -22.415 -18.083  0.00  0.00    +0.160 HD
ATOM     13  H   UNL     1      37.556 -20.914 -18.563  0.00  0.00    +0.156 HD
ENDROOT
BRANCH   5  14
ATOM     14  C   UNL     1      36.161 -20.269 -19.899  0.00  0.00    +0.051 C 
ATOM     15  C   UNL     1      34.897 -20.523 -20.434  0.00  0.00    +0.015 C 
ATOM     16  C   UNL     1      36.989 -19.315 -20.490  0.00  0.00    +0.015 C 
ATOM     17  C   UNL     1      34.462 -19.824 -21.560  0.00  0.00    +0.001 C 
ATOM     18  C   UNL     1      36.553 -18.615 -21.615  0.00  0.00    +0.001 C 
ATOM     19  C   UNL     1      35.290 -18.869 -22.150  0.00  0.00    +0.000 C 
ENDBRANCH   5  14
BRANCH  10  21
ATOM     20  N   UNL     1      36.314 -25.083 -13.021  0.00  0.00    -0.195 NA
ATOM     21  C   UNL     1      36.497 -24.396 -13.938  0.00  0.00    +0.087 C 
ENDBRANCH  10  21
BRANCH   1  22
ATOM     22  C   UNL     1      31.706 -23.657 -16.448  0.00  0.00    +0.099 C 
BRANCH  22  23
ATOM     23  C   UNL     1      30.391 -22.925 -16.189  0.00  0.00    +0.020 C 
ATOM     24  C   UNL     1      29.221 -23.664 -16.852  0.00  0.00    +0.002 C 
ATOM     25  C   UNL     1      30.149 -22.759 -14.683  0.00  0.00    +0.002 C 
ATOM     26  C   UNL     1      27.886 -22.981 -16.564  0.00  0.00    +0.000 C 
ATOM     27  C   UNL     1      28.812 -22.078 -14.398  0.00  0.00    +0.000 C 
ATOM     28  C   UNL     1      27.652 -22.810 -15.067  0.00  0.00    +0.000 C 
ENDBRANCH  22  23
ENDBRANCH   1  22
TORSDOF 4
ENDMDL
