MODEL 1
REMARK VINA RESULT:     -12.7      0.000      0.000
REMARK  Name = 5287728
REMARK  9 active torsions:
REMARK  status: ('A' for Active; 'I' for Inactive)
REMARK    1  A    between atoms: S_1  and  N_4
REMARK    2  A    between atoms: S_1  and  N_22
REMARK    3  A    between atoms: C_5  and  N_10
REMARK    4  A    between atoms: N_10  and  C_13
REMARK    5  A    between atoms: C_13  and  C_14
REMARK    6  A    between atoms: C_15  and  O_20
REMARK    7  A    between atoms: N_22  and  C_24
REMARK    8  A    between atoms: C_27  and  O_30
REMARK    9  A    between atoms: O_30  and  C_32
REMARK                            x       y       z     vdW  Elec       q    Type
REMARK                         _______ _______ _______ _____ _____    ______ ____
ROOT
ATOM      1  S   UNL     1      35.958 -18.772 -20.901  0.00  0.00    +0.113 S 
ATOM      2  O   UNL     1      35.386 -17.512 -20.463  0.00  0.00    -0.138 OA
ATOM      3  O   UNL     1      37.394 -18.977 -20.849  0.00  0.00    -0.138 OA
ENDROOT
BRANCH   1   4
ATOM      4  N   UNL     1      35.195 -20.034 -20.025  0.00  0.00    -0.143 NA
ATOM      5  C   UNL     1      33.975 -22.516 -19.126  0.00  0.00    -0.059 C 
ATOM      6  C   UNL     1      33.140 -21.274 -19.456  0.00  0.00    -0.002 C 
ATOM      7  C   UNL     1      35.389 -22.106 -18.699  0.00  0.00    -0.002 C 
ATOM      8  C   UNL     1      33.834 -20.411 -20.507  0.00  0.00    +0.095 C 
ATOM      9  C   UNL     1      36.049 -21.230 -19.760  0.00  0.00    +0.095 C 
BRANCH   5  10
ATOM     10  N   UNL     1      33.332 -23.283 -18.062  0.00  0.00    +0.388 N 
ATOM     11  H   UNL     1      33.552 -24.273 -18.184  0.00  0.00    -0.084 HD
ATOM     12  H   UNL     1      32.325 -23.134 -18.113  0.00  0.00    -0.084 HD
BRANCH  10  13
ATOM     13  C   UNL     1      33.804 -22.848 -16.756  0.00  0.00    -0.051 C 
BRANCH  13  14
ATOM     14  C   UNL     1      32.894 -23.309 -15.649  0.00  0.00    -0.010 C 
ATOM     15  C   UNL     1      31.522 -23.106 -15.738  0.00  0.00    +0.128 C 
ATOM     16  C   UNL     1      33.450 -23.939 -14.543  0.00  0.00    -0.003 C 
ATOM     17  C   UNL     1      30.694 -23.539 -14.704  0.00  0.00    +0.036 C 
ATOM     18  C   UNL     1      32.620 -24.372 -13.508  0.00  0.00    -0.000 C 
ATOM     19  C   UNL     1      31.243 -24.172 -13.589  0.00  0.00    +0.003 C 
BRANCH  15  20
ATOM     20  O   UNL     1      30.970 -22.489 -16.821  0.00  0.00    -0.506 OA
ATOM     21  H   UNL     1      30.348 -21.799 -16.700  0.00  0.00    +0.292 HD
ENDBRANCH  15  20
ENDBRANCH  13  14
ENDBRANCH  10  13
ENDBRANCH   5  10
ENDBRANCH   1   4
BRANCH   1  22
ATOM     22  N   UNL     1      35.371 -19.087 -22.493  0.00  0.00    -0.205 N 
ATOM     23  H   UNL     1      35.407 -19.988 -22.888  0.00  0.00    +0.175 HD
BRANCH  22  24
ATOM     24  C   UNL     1      34.827 -17.968 -23.218  0.00  0.00    +0.069 C 
ATOM     25  C   UNL     1      35.114 -16.674 -22.799  0.00  0.00    +0.053 C 
ATOM     26  C   UNL     1      34.021 -18.195 -24.326  0.00  0.00    +0.016 C 
ATOM     27  C   UNL     1      34.586 -15.591 -23.501  0.00  0.00    +0.147 C 
ATOM     28  C   UNL     1      33.494 -17.111 -25.027  0.00  0.00    +0.004 C 
ATOM     29  C   UNL     1      33.776 -15.810 -24.615  0.00  0.00    +0.038 C 
BRANCH  27  30
ATOM     30  O   UNL     1      34.860 -14.320 -23.097  0.00  0.00    -0.453 OA
BRANCH  30  32
ATOM     31  F   UNL     1      30.927 -11.591 -20.409  0.00  0.00    -0.204 F 
ATOM     32  C   UNL     1      33.868 -13.631 -22.419  0.00  0.00    +0.145 C 
ATOM     33  C   UNL     1      33.403 -14.131 -21.216  0.00  0.00    +0.040 C 
ATOM     34  C   UNL     1      33.368 -12.462 -22.962  0.00  0.00    +0.040 C 
ATOM     35  C   UNL     1      32.404 -13.438 -20.533  0.00  0.00    +0.033 C 
ATOM     36  C   UNL     1      32.369 -11.769 -22.280  0.00  0.00    +0.033 C 
ATOM     37  C   UNL     1      31.887 -12.257 -21.065  0.00  0.00    +0.140 C 
ENDBRANCH  30  32
ENDBRANCH  27  30
ENDBRANCH  22  24
ENDBRANCH   1  22
TORSDOF 9
ENDMDL
MODEL 2
REMARK VINA RESULT:     -12.3      3.572      6.513
REMARK  Name = 5287728
REMARK  9 active torsions:
REMARK  status: ('A' for Active; 'I' for Inactive)
REMARK    1  A    between atoms: S_1  and  N_4
REMARK    2  A    between atoms: S_1  and  N_22
REMARK    3  A    between atoms: C_5  and  N_10
REMARK    4  A    between atoms: N_10  and  C_13
REMARK    5  A    between atoms: C_13  and  C_14
REMARK    6  A    between atoms: C_15  and  O_20
REMARK    7  A    between atoms: N_22  and  C_24
REMARK    8  A    between atoms: C_27  and  O_30
REMARK    9  A    between atoms: O_30  and  C_32
REMARK                            x       y       z     vdW  Elec       q    Type
REMARK                         _______ _______ _______ _____ _____    ______ ____
ROOT
ATOM      1  S   UNL     1      33.311 -13.577 -23.145  0.00  0.00    +0.113 S 
ATOM      2  O   UNL     1      34.328 -12.584 -22.849  0.00  0.00    -0.138 OA
ATOM      3  O   UNL     1      32.706 -13.630 -24.464  0.00  0.00    -0.138 OA
ENDROOT
BRANCH   1   4
ATOM      4  N   UNL     1      33.955 -15.123 -22.779  0.00  0.00    -0.143 NA
ATOM      5  C   UNL     1      35.644 -17.421 -22.209  0.00  0.00    -0.059 C 
ATOM      6  C   UNL     1      34.943 -17.244 -23.560  0.00  0.00    -0.002 C 
ATOM      7  C   UNL     1      34.863 -16.696 -21.108  0.00  0.00    -0.002 C 
ATOM      8  C   UNL     1      34.733 -15.766 -23.879  0.00  0.00    +0.095 C 
ATOM      9  C   UNL     1      34.652 -15.227 -21.462  0.00  0.00    +0.095 C 
BRANCH   5  10
ATOM     10  N   UNL     1      35.762 -18.841 -21.888  0.00  0.00    +0.388 N 
ATOM     11  H   UNL     1      36.389 -18.953 -21.091  0.00  0.00    -0.084 HD
ATOM     12  H   UNL     1      36.131 -19.332 -22.702  0.00  0.00    -0.084 HD
BRANCH  10  13
ATOM     13  C   UNL     1      34.462 -19.404 -21.554  0.00  0.00    -0.051 C 
BRANCH  13  14
ATOM     14  C   UNL     1      34.549 -20.377 -20.409  0.00  0.00    -0.010 C 
ATOM     15  C   UNL     1      33.395 -20.917 -19.858  0.00  0.00    +0.128 C 
ATOM     16  C   UNL     1      35.802 -20.720 -19.917  0.00  0.00    -0.003 C 
ATOM     17  C   UNL     1      33.494 -21.817 -18.797  0.00  0.00    +0.036 C 
ATOM     18  C   UNL     1      35.901 -21.620 -18.854  0.00  0.00    -0.000 C 
ATOM     19  C   UNL     1      34.748 -22.168 -18.295  0.00  0.00    +0.003 C 
BRANCH  15  20
ATOM     20  O   UNL     1      32.163 -20.585 -20.336  0.00  0.00    -0.506 OA
ATOM     21  H   UNL     1      31.810 -21.036 -21.078  0.00  0.00    +0.292 HD
ENDBRANCH  15  20
ENDBRANCH  13  14
ENDBRANCH  10  13
ENDBRANCH   5  10
ENDBRANCH   1   4
BRANCH   1  22
ATOM     22  N   UNL     1      32.086 -13.446 -21.937  0.00  0.00    -0.205 N 
ATOM     23  H   UNL     1      31.540 -14.220 -21.668  0.00  0.00    +0.175 HD
BRANCH  22  24
ATOM     24  C   UNL     1      31.898 -12.149 -21.340  0.00  0.00    +0.069 C 
ATOM     25  C   UNL     1      31.646 -11.050 -22.152  0.00  0.00    +0.053 C 
ATOM     26  C   UNL     1      31.972 -12.012 -19.959  0.00  0.00    +0.016 C 
ATOM     27  C   UNL     1      31.466  -9.794 -21.573  0.00  0.00    +0.147 C 
ATOM     28  C   UNL     1      31.791 -10.756 -19.382  0.00  0.00    +0.004 C 
ATOM     29  C   UNL     1      31.538  -9.647 -20.188  0.00  0.00    +0.038 C 
BRANCH  27  30
ATOM     30  O   UNL     1      31.220  -8.711 -22.361  0.00  0.00    -0.453 OA
BRANCH  30  32
ATOM     31  F   UNL     1      35.535  -5.840 -24.173  0.00  0.00    -0.204 F 
ATOM     32  C   UNL     1      32.309  -7.987 -22.818  0.00  0.00    +0.145 C 
ATOM     33  C   UNL     1      32.133  -6.664 -23.184  0.00  0.00    +0.040 C 
ATOM     34  C   UNL     1      33.544  -8.604 -22.896  0.00  0.00    +0.040 C 
ATOM     35  C   UNL     1      33.229  -5.935 -23.644  0.00  0.00    +0.033 C 
ATOM     36  C   UNL     1      34.640  -7.876 -23.358  0.00  0.00    +0.033 C 
ATOM     37  C   UNL     1      34.482  -6.541 -23.731  0.00  0.00    +0.140 C 
ENDBRANCH  30  32
ENDBRANCH  27  30
ENDBRANCH  22  24
ENDBRANCH   1  22
TORSDOF 9
ENDMDL
MODEL 3
REMARK VINA RESULT:     -11.8      3.261     10.486
REMARK  Name = 5287728
REMARK  9 active torsions:
REMARK  status: ('A' for Active; 'I' for Inactive)
REMARK    1  A    between atoms: S_1  and  N_4
REMARK    2  A    between atoms: S_1  and  N_22
REMARK    3  A    between atoms: C_5  and  N_10
REMARK    4  A    between atoms: N_10  and  C_13
REMARK    5  A    between atoms: C_13  and  C_14
REMARK    6  A    between atoms: C_15  and  O_20
REMARK    7  A    between atoms: N_22  and  C_24
REMARK    8  A    between atoms: C_27  and  O_30
REMARK    9  A    between atoms: O_30  and  C_32
REMARK                            x       y       z     vdW  Elec       q    Type
REMARK                         _______ _______ _______ _____ _____    ______ ____
ROOT
ATOM      1  S   UNL     1      33.681 -22.665 -18.100  0.00  0.00    +0.113 S 
ATOM      2  O   UNL     1      32.377 -22.260 -17.606  0.00  0.00    -0.138 OA
ATOM      3  O   UNL     1      33.833 -23.926 -18.803  0.00  0.00    -0.138 OA
ENDROOT
BRANCH   1   4
ATOM      4  N   UNL     1      34.285 -21.409 -19.099  0.00  0.00    -0.143 NA
ATOM      5  C   UNL     1      35.291 -19.760 -21.274  0.00  0.00    -0.059 C 
ATOM      6  C   UNL     1      36.208 -20.294 -20.168  0.00  0.00    -0.002 C 
ATOM      7  C   UNL     1      33.855 -19.629 -20.753  0.00  0.00    -0.002 C 
ATOM      8  C   UNL     1      35.676 -21.608 -19.601  0.00  0.00    +0.095 C 
ATOM      9  C   UNL     1      33.358 -20.951 -20.177  0.00  0.00    +0.095 C 
BRANCH   5  10
ATOM     10  N   UNL     1      35.774 -18.465 -21.744  0.00  0.00    +0.388 N 
ATOM     11  H   UNL     1      36.794 -18.481 -21.779  0.00  0.00    -0.084 HD
ATOM     12  H   UNL     1      35.452 -17.741 -21.101  0.00  0.00    -0.084 HD
BRANCH  10  13
ATOM     13  C   UNL     1      35.256 -18.173 -23.072  0.00  0.00    -0.051 C 
BRANCH  13  14
ATOM     14  C   UNL     1      34.755 -16.757 -23.179  0.00  0.00    -0.010 C 
ATOM     15  C   UNL     1      34.283 -16.270 -24.391  0.00  0.00    +0.128 C 
ATOM     16  C   UNL     1      34.776 -15.952 -22.047  0.00  0.00    -0.003 C 
ATOM     17  C   UNL     1      33.823 -14.956 -24.473  0.00  0.00    +0.036 C 
ATOM     18  C   UNL     1      34.316 -14.637 -22.129  0.00  0.00    -0.000 C 
ATOM     19  C   UNL     1      33.840 -14.140 -23.341  0.00  0.00    +0.003 C 
BRANCH  15  20
ATOM     20  O   UNL     1      34.259 -17.054 -25.505  0.00  0.00    -0.506 OA
ATOM     21  H   UNL     1      34.619 -16.736 -26.310  0.00  0.00    +0.292 HD
ENDBRANCH  15  20
ENDBRANCH  13  14
ENDBRANCH  10  13
ENDBRANCH   5  10
ENDBRANCH   1   4
BRANCH   1  22
ATOM     22  N   UNL     1      34.789 -22.585 -16.780  0.00  0.00    -0.205 N 
ATOM     23  H   UNL     1      35.644 -22.102 -16.851  0.00  0.00    +0.175 HD
BRANCH  22  24
ATOM     24  C   UNL     1      34.403 -23.259 -15.567  0.00  0.00    +0.069 C 
ATOM     25  C   UNL     1      33.114 -23.098 -15.073  0.00  0.00    +0.053 C 
ATOM     26  C   UNL     1      35.324 -24.061 -14.905  0.00  0.00    +0.016 C 
ATOM     27  C   UNL     1      32.742 -23.750 -13.897  0.00  0.00    +0.147 C 
ATOM     28  C   UNL     1      34.951 -24.712 -13.730  0.00  0.00    +0.004 C 
ATOM     29  C   UNL     1      33.660 -24.557 -13.226  0.00  0.00    +0.038 C 
BRANCH  27  30
ATOM     30  O   UNL     1      31.482 -23.598 -13.405  0.00  0.00    -0.453 OA
BRANCH  30  32
ATOM     31  F   UNL     1      27.300 -23.944 -16.946  0.00  0.00    -0.204 F 
ATOM     32  C   UNL     1      30.426 -23.685 -14.298  0.00  0.00    +0.145 C 
ATOM     33  C   UNL     1      30.070 -24.924 -14.801  0.00  0.00    +0.040 C 
ATOM     34  C   UNL     1      29.756 -22.532 -14.664  0.00  0.00    +0.040 C 
ATOM     35  C   UNL     1      29.008 -25.011 -15.700  0.00  0.00    +0.033 C 
ATOM     36  C   UNL     1      28.695 -22.619 -15.564  0.00  0.00    +0.033 C 
ATOM     37  C   UNL     1      28.320 -23.860 -16.082  0.00  0.00    +0.140 C 
ENDBRANCH  30  32
ENDBRANCH  27  30
ENDBRANCH  22  24
ENDBRANCH   1  22
TORSDOF 9
ENDMDL
MODEL 4
REMARK VINA RESULT:     -11.8      3.604     10.767
REMARK  Name = 5287728
REMARK  9 active torsions:
REMARK  status: ('A' for Active; 'I' for Inactive)
REMARK    1  A    between atoms: S_1  and  N_4
REMARK    2  A    between atoms: S_1  and  N_22
REMARK    3  A    between atoms: C_5  and  N_10
REMARK    4  A    between atoms: N_10  and  C_13
REMARK    5  A    between atoms: C_13  and  C_14
REMARK    6  A    between atoms: C_15  and  O_20
REMARK    7  A    between atoms: N_22  and  C_24
REMARK    8  A    between atoms: C_27  and  O_30
REMARK    9  A    between atoms: O_30  and  C_32
REMARK                            x       y       z     vdW  Elec       q    Type
REMARK                         _______ _______ _______ _____ _____    ______ ____
ROOT
ATOM      1  S   UNL     1      33.883 -22.909 -18.223  0.00  0.00    +0.113 S 
ATOM      2  O   UNL     1      33.694 -24.218 -18.822  0.00  0.00    -0.138 OA
ATOM      3  O   UNL     1      34.939 -22.700 -17.249  0.00  0.00    -0.138 OA
ENDROOT
BRANCH   1   4
ATOM      4  N   UNL     1      34.076 -21.768 -19.488  0.00  0.00    -0.143 NA
ATOM      5  C   UNL     1      34.435 -19.387 -21.119  0.00  0.00    -0.059 C 
ATOM      6  C   UNL     1      33.078 -20.088 -20.994  0.00  0.00    -0.002 C 
ATOM      7  C   UNL     1      35.572 -20.388 -20.883  0.00  0.00    -0.002 C 
ATOM      8  C   UNL     1      32.951 -20.800 -19.649  0.00  0.00    +0.095 C 
ATOM      9  C   UNL     1      35.408 -21.096 -19.542  0.00  0.00    +0.095 C 
BRANCH   5  10
ATOM     10  N   UNL     1      34.566 -18.782 -22.442  0.00  0.00    +0.388 N 
ATOM     11  H   UNL     1      33.640 -18.528 -22.787  0.00  0.00    -0.084 HD
ATOM     12  H   UNL     1      35.006 -19.456 -23.069  0.00  0.00    -0.084 HD
BRANCH  10  13
ATOM     13  C   UNL     1      35.396 -17.589 -22.384  0.00  0.00    -0.051 C 
BRANCH  13  14
ATOM     14  C   UNL     1      34.721 -16.404 -23.022  0.00  0.00    -0.010 C 
ATOM     15  C   UNL     1      34.238 -16.488 -24.321  0.00  0.00    +0.128 C 
ATOM     16  C   UNL     1      34.591 -15.232 -22.288  0.00  0.00    -0.003 C 
ATOM     17  C   UNL     1      33.615 -15.381 -24.897  0.00  0.00    +0.036 C 
ATOM     18  C   UNL     1      33.969 -14.124 -22.865  0.00  0.00    -0.000 C 
ATOM     19  C   UNL     1      33.481 -14.200 -24.168  0.00  0.00    +0.003 C 
BRANCH  15  20
ATOM     20  O   UNL     1      34.362 -17.635 -25.047  0.00  0.00    -0.506 OA
ATOM     21  H   UNL     1      33.809 -18.369 -24.861  0.00  0.00    +0.292 HD
ENDBRANCH  15  20
ENDBRANCH  13  14
ENDBRANCH  10  13
ENDBRANCH   5  10
ENDBRANCH   1   4
BRANCH   1  22
ATOM     22  N   UNL     1      32.366 -22.409 -17.569  0.00  0.00    -0.205 N 
ATOM     23  H   UNL     1      31.792 -21.759 -18.035  0.00  0.00    +0.175 HD
BRANCH  22  24
ATOM     24  C   UNL     1      31.980 -22.989 -16.308  0.00  0.00    +0.069 C 
ATOM     25  C   UNL     1      32.960 -23.396 -15.412  0.00  0.00    +0.053 C 
ATOM     26  C   UNL     1      30.632 -23.133 -16.004  0.00  0.00    +0.016 C 
ATOM     27  C   UNL     1      32.585 -23.958 -14.191  0.00  0.00    +0.147 C 
ATOM     28  C   UNL     1      30.258 -23.695 -14.784  0.00  0.00    +0.004 C 
ATOM     29  C   UNL     1      31.234 -24.107 -13.878  0.00  0.00    +0.038 C 
BRANCH  27  30
ATOM     30  O   UNL     1      33.538 -24.362 -13.307  0.00  0.00    -0.453 OA
BRANCH  30  32
ATOM     31  F   UNL     1      38.769 -24.265 -14.973  0.00  0.00    -0.204 F 
ATOM     32  C   UNL     1      34.858 -24.338 -13.727  0.00  0.00    +0.145 C 
ATOM     33  C   UNL     1      35.616 -23.204 -13.499  0.00  0.00    +0.040 C 
ATOM     34  C   UNL     1      35.382 -25.448 -14.363  0.00  0.00    +0.040 C 
ATOM     35  C   UNL     1      36.945 -23.180 -13.922  0.00  0.00    +0.033 C 
ATOM     36  C   UNL     1      36.711 -25.423 -14.787  0.00  0.00    +0.033 C 
ATOM     37  C   UNL     1      37.492 -24.289 -14.567  0.00  0.00    +0.140 C 
ENDBRANCH  30  32
ENDBRANCH  27  30
ENDBRANCH  22  24
ENDBRANCH   1  22
TORSDOF 9
ENDMDL
MODEL 5
REMARK VINA RESULT:     -11.6      3.073      4.744
REMARK  Name = 5287728
REMARK  9 active torsions:
REMARK  status: ('A' for Active; 'I' for Inactive)
REMARK    1  A    between atoms: S_1  and  N_4
REMARK    2  A    between atoms: S_1  and  N_22
REMARK    3  A    between atoms: C_5  and  N_10
REMARK    4  A    between atoms: N_10  and  C_13
REMARK    5  A    between atoms: C_13  and  C_14
REMARK    6  A    between atoms: C_15  and  O_20
REMARK    7  A    between atoms: N_22  and  C_24
REMARK    8  A    between atoms: C_27  and  O_30
REMARK    9  A    between atoms: O_30  and  C_32
REMARK                            x       y       z     vdW  Elec       q    Type
REMARK                         _______ _______ _______ _____ _____    ______ ____
ROOT
ATOM      1  S   UNL     1      33.733 -16.635 -24.756  0.00  0.00    +0.113 S 
ATOM      2  O   UNL     1      34.883 -16.166 -25.507  0.00  0.00    -0.138 OA
ATOM      3  O   UNL     1      32.701 -17.415 -25.415  0.00  0.00    -0.138 OA
ENDROOT
BRANCH   1   4
ATOM      4  N   UNL     1      34.307 -17.522 -23.405  0.00  0.00    -0.143 NA
ATOM      5  C   UNL     1      35.878 -18.977 -21.437  0.00  0.00    -0.059 C 
ATOM      6  C   UNL     1      34.927 -19.690 -22.404  0.00  0.00    -0.002 C 
ATOM      7  C   UNL     1      35.409 -17.538 -21.197  0.00  0.00    -0.002 C 
ATOM      8  C   UNL     1      34.780 -18.905 -23.706  0.00  0.00    +0.095 C 
ATOM      9  C   UNL     1      35.254 -16.785 -22.515  0.00  0.00    +0.095 C 
BRANCH   5  10
ATOM     10  N   UNL     1      35.940 -19.702 -20.170  0.00  0.00    +0.388 N 
ATOM     11  H   UNL     1      35.635 -19.086 -19.417  0.00  0.00    -0.084 HD
ATOM     12  H   UNL     1      36.901 -20.006 -20.014  0.00  0.00    -0.084 HD
BRANCH  10  13
ATOM     13  C   UNL     1      35.079 -20.875 -20.205  0.00  0.00    -0.051 C 
BRANCH  13  14
ATOM     14  C   UNL     1      35.057 -21.593 -18.882  0.00  0.00    -0.010 C 
ATOM     15  C   UNL     1      33.897 -22.215 -18.440  0.00  0.00    +0.128 C 
ATOM     16  C   UNL     1      36.216 -21.621 -18.116  0.00  0.00    -0.003 C 
ATOM     17  C   UNL     1      33.894 -22.876 -17.213  0.00  0.00    +0.036 C 
ATOM     18  C   UNL     1      36.213 -22.281 -16.887  0.00  0.00    -0.000 C 
ATOM     19  C   UNL     1      35.053 -22.908 -16.436  0.00  0.00    +0.003 C 
BRANCH  15  20
ATOM     20  O   UNL     1      32.757 -22.192 -19.187  0.00  0.00    -0.506 OA
ATOM     21  H   UNL     1      32.796 -21.970 -20.097  0.00  0.00    +0.292 HD
ENDBRANCH  15  20
ENDBRANCH  13  14
ENDBRANCH  10  13
ENDBRANCH   5  10
ENDBRANCH   1   4
BRANCH   1  22
ATOM     22  N   UNL     1      33.031 -15.269 -23.968  0.00  0.00    -0.205 N 
ATOM     23  H   UNL     1      32.447 -15.371 -23.181  0.00  0.00    +0.175 HD
BRANCH  22  24
ATOM     24  C   UNL     1      33.340 -13.974 -24.515  0.00  0.00    +0.069 C 
ATOM     25  C   UNL     1      33.887 -12.995 -23.694  0.00  0.00    +0.053 C 
ATOM     26  C   UNL     1      33.087 -13.718 -25.857  0.00  0.00    +0.016 C 
ATOM     27  C   UNL     1      34.184 -11.740 -24.225  0.00  0.00    +0.147 C 
ATOM     28  C   UNL     1      33.386 -12.463 -26.387  0.00  0.00    +0.004 C 
ATOM     29  C   UNL     1      33.934 -11.475 -25.571  0.00  0.00    +0.038 C 
BRANCH  27  30
ATOM     30  O   UNL     1      34.719 -10.774 -23.428  0.00  0.00    -0.453 OA
BRANCH  30  32
ATOM     31  F   UNL     1      32.115  -5.947 -23.174  0.00  0.00    -0.204 F 
ATOM     32  C   UNL     1      34.062  -9.556 -23.364  0.00  0.00    +0.145 C 
ATOM     33  C   UNL     1      32.724  -9.530 -23.013  0.00  0.00    +0.040 C 
ATOM     34  C   UNL     1      34.761  -8.398 -23.652  0.00  0.00    +0.040 C 
ATOM     35  C   UNL     1      32.063  -8.304 -22.948  0.00  0.00    +0.033 C 
ATOM     36  C   UNL     1      34.100  -7.172 -23.588  0.00  0.00    +0.033 C 
ATOM     37  C   UNL     1      32.751  -7.125 -23.236  0.00  0.00    +0.140 C 
ENDBRANCH  30  32
ENDBRANCH  27  30
ENDBRANCH  22  24
ENDBRANCH   1  22
TORSDOF 9
ENDMDL
MODEL 6
REMARK VINA RESULT:     -11.6      2.738      4.442
REMARK  Name = 5287728
REMARK  9 active torsions:
REMARK  status: ('A' for Active; 'I' for Inactive)
REMARK    1  A    between atoms: S_1  and  N_4
REMARK    2  A    between atoms: S_1  and  N_22
REMARK    3  A    between atoms: C_5  and  N_10
REMARK    4  A    between atoms: N_10  and  C_13
REMARK    5  A    between atoms: C_13  and  C_14
REMARK    6  A    between atoms: C_15  and  O_20
REMARK    7  A    between atoms: N_22  and  C_24
REMARK    8  A    between atoms: C_27  and  O_30
REMARK    9  A    between atoms: O_30  and  C_32
REMARK                            x       y       z     vdW  Elec       q    Type
REMARK                         _______ _______ _______ _____ _____    ______ ____
ROOT
ATOM      1  S   UNL     1      34.183 -16.214 -24.370  0.00  0.00    +0.113 S 
ATOM      2  O   UNL     1      35.049 -16.449 -25.511  0.00  0.00    -0.138 OA
ATOM      3  O   UNL     1      32.741 -16.273 -24.525  0.00  0.00    -0.138 OA
ENDROOT
BRANCH   1   4
ATOM      4  N   UNL     1      34.641 -17.298 -23.122  0.00  0.00    -0.143 NA
ATOM      5  C   UNL     1      35.801 -19.413 -21.498  0.00  0.00    -0.059 C 
ATOM      6  C   UNL     1      34.354 -19.475 -21.999  0.00  0.00    -0.002 C 
ATOM      7  C   UNL     1      36.257 -17.954 -21.377  0.00  0.00    -0.002 C 
ATOM      8  C   UNL     1      34.195 -18.710 -23.310  0.00  0.00    +0.095 C 
ATOM      9  C   UNL     1      36.069 -17.211 -22.697  0.00  0.00    +0.095 C 
BRANCH   5  10
ATOM     10  N   UNL     1      35.912 -20.081 -20.204  0.00  0.00    +0.388 N 
ATOM     11  H   UNL     1      35.853 -19.385 -19.461  0.00  0.00    -0.084 HD
ATOM     12  H   UNL     1      36.807 -20.570 -20.163  0.00  0.00    -0.084 HD
BRANCH  10  13
ATOM     13  C   UNL     1      34.842 -21.053 -20.032  0.00  0.00    -0.051 C 
BRANCH  13  14
ATOM     14  C   UNL     1      34.910 -21.729 -18.689  0.00  0.00    -0.010 C 
ATOM     15  C   UNL     1      33.788 -22.355 -18.161  0.00  0.00    +0.128 C 
ATOM     16  C   UNL     1      36.112 -21.715 -17.992  0.00  0.00    -0.003 C 
ATOM     17  C   UNL     1      33.868 -22.977 -16.916  0.00  0.00    +0.036 C 
ATOM     18  C   UNL     1      36.191 -22.337 -16.746  0.00  0.00    -0.000 C 
ATOM     19  C   UNL     1      35.071 -22.968 -16.208  0.00  0.00    +0.003 C 
BRANCH  15  20
ATOM     20  O   UNL     1      32.606 -22.373 -18.839  0.00  0.00    -0.506 OA
ATOM     21  H   UNL     1      32.602 -22.335 -19.776  0.00  0.00    +0.292 HD
ENDBRANCH  15  20
ENDBRANCH  13  14
ENDBRANCH  10  13
ENDBRANCH   5  10
ENDBRANCH   1   4
BRANCH   1  22
ATOM     22  N   UNL     1      34.642 -14.705 -23.668  0.00  0.00    -0.205 N 
ATOM     23  H   UNL     1      35.389 -14.174 -24.027  0.00  0.00    +0.175 HD
BRANCH  22  24
ATOM     24  C   UNL     1      33.879 -14.260 -22.530  0.00  0.00    +0.069 C 
ATOM     25  C   UNL     1      32.948 -13.240 -22.686  0.00  0.00    +0.053 C 
ATOM     26  C   UNL     1      34.084 -14.854 -21.292  0.00  0.00    +0.016 C 
ATOM     27  C   UNL     1      32.211 -12.808 -21.583  0.00  0.00    +0.147 C 
ATOM     28  C   UNL     1      33.346 -14.421 -20.190  0.00  0.00    +0.004 C 
ATOM     29  C   UNL     1      32.410 -13.399 -20.336  0.00  0.00    +0.038 C 
BRANCH  27  30
ATOM     30  O   UNL     1      31.298 -11.808 -21.726  0.00  0.00    -0.453 OA
BRANCH  30  32
ATOM     31  F   UNL     1      32.679  -6.811 -19.920  0.00  0.00    -0.204 F 
ATOM     32  C   UNL     1      31.647 -10.548 -21.270  0.00  0.00    +0.145 C 
ATOM     33  C   UNL     1      31.490 -10.249 -19.928  0.00  0.00    +0.040 C 
ATOM     34  C   UNL     1      32.142  -9.620 -22.168  0.00  0.00    +0.040 C 
ATOM     35  C   UNL     1      31.841  -8.980 -19.470  0.00  0.00    +0.033 C 
ATOM     36  C   UNL     1      32.492  -8.350 -21.710  0.00  0.00    +0.033 C 
ATOM     37  C   UNL     1      32.342  -8.030 -20.361  0.00  0.00    +0.140 C 
ENDBRANCH  30  32
ENDBRANCH  27  30
ENDBRANCH  22  24
ENDBRANCH   1  22
TORSDOF 9
ENDMDL
MODEL 7
REMARK VINA RESULT:     -11.6      4.317     11.418
REMARK  Name = 5287728
REMARK  9 active torsions:
REMARK  status: ('A' for Active; 'I' for Inactive)
REMARK    1  A    between atoms: S_1  and  N_4
REMARK    2  A    between atoms: S_1  and  N_22
REMARK    3  A    between atoms: C_5  and  N_10
REMARK    4  A    between atoms: N_10  and  C_13
REMARK    5  A    between atoms: C_13  and  C_14
REMARK    6  A    between atoms: C_15  and  O_20
REMARK    7  A    between atoms: N_22  and  C_24
REMARK    8  A    between atoms: C_27  and  O_30
REMARK    9  A    between atoms: O_30  and  C_32
REMARK                            x       y       z     vdW  Elec       q    Type
REMARK                         _______ _______ _______ _____ _____    ______ ____
ROOT
ATOM      1  S   UNL     1      33.469 -22.765 -18.110  0.00  0.00    +0.113 S 
ATOM      2  O   UNL     1      32.109 -22.389 -17.770  0.00  0.00    -0.138 OA
ATOM      3  O   UNL     1      33.730 -24.025 -18.780  0.00  0.00    -0.138 OA
ENDROOT
BRANCH   1   4
ATOM      4  N   UNL     1      34.153 -21.499 -19.043  0.00  0.00    -0.143 NA
ATOM      5  C   UNL     1      35.292 -19.817 -21.124  0.00  0.00    -0.059 C 
ATOM      6  C   UNL     1      36.152 -20.423 -20.009  0.00  0.00    -0.002 C 
ATOM      7  C   UNL     1      33.846 -19.648 -20.646  0.00  0.00    -0.002 C 
ATOM      8  C   UNL     1      35.552 -21.734 -19.506  0.00  0.00    +0.095 C 
ATOM      9  C   UNL     1      33.281 -20.970 -20.133  0.00  0.00    +0.095 C 
BRANCH   5  10
ATOM     10  N   UNL     1      35.840 -18.526 -21.532  0.00  0.00    +0.388 N 
ATOM     11  H   UNL     1      36.856 -18.549 -21.441  0.00  0.00    -0.084 HD
ATOM     12  H   UNL     1      35.446 -17.799 -20.935  0.00  0.00    -0.084 HD
BRANCH  10  13
ATOM     13  C   UNL     1      35.492 -18.233 -22.915  0.00  0.00    -0.051 C 
BRANCH  13  14
ATOM     14  C   UNL     1      34.862 -16.873 -23.058  0.00  0.00    -0.010 C 
ATOM     15  C   UNL     1      34.294 -16.486 -24.265  0.00  0.00    +0.128 C 
ATOM     16  C   UNL     1      34.859 -16.018 -21.963  0.00  0.00    -0.003 C 
ATOM     17  C   UNL     1      33.715 -15.223 -24.380  0.00  0.00    +0.036 C 
ATOM     18  C   UNL     1      34.280 -14.754 -22.079  0.00  0.00    -0.000 C 
ATOM     19  C   UNL     1      33.708 -14.357 -23.287  0.00  0.00    +0.003 C 
BRANCH  15  20
ATOM     20  O   UNL     1      34.293 -17.321 -25.343  0.00  0.00    -0.506 OA
ATOM     21  H   UNL     1      34.976 -17.262 -25.982  0.00  0.00    +0.292 HD
ENDBRANCH  15  20
ENDBRANCH  13  14
ENDBRANCH  10  13
ENDBRANCH   5  10
ENDBRANCH   1   4
BRANCH   1  22
ATOM     22  N   UNL     1      34.417 -22.651 -16.672  0.00  0.00    -0.205 N 
ATOM     23  H   UNL     1      35.279 -22.175 -16.658  0.00  0.00    +0.175 HD
BRANCH  22  24
ATOM     24  C   UNL     1      33.888 -23.286 -15.493  0.00  0.00    +0.069 C 
ATOM     25  C   UNL     1      34.751 -23.661 -14.470  0.00  0.00    +0.053 C 
ATOM     26  C   UNL     1      32.522 -23.516 -15.392  0.00  0.00    +0.016 C 
ATOM     27  C   UNL     1      34.237 -24.277 -13.329  0.00  0.00    +0.147 C 
ATOM     28  C   UNL     1      32.010 -24.132 -14.251  0.00  0.00    +0.004 C 
ATOM     29  C   UNL     1      32.867 -24.512 -13.219  0.00  0.00    +0.038 C 
BRANCH  27  30
ATOM     30  O   UNL     1      35.075 -24.649 -12.322  0.00  0.00    -0.453 OA
BRANCH  30  32
ATOM     31  F   UNL     1      40.197 -26.100 -13.666  0.00  0.00    -0.204 F 
ATOM     32  C   UNL     1      36.367 -25.015 -12.662  0.00  0.00    +0.145 C 
ATOM     33  C   UNL     1      36.560 -26.008 -13.605  0.00  0.00    +0.040 C 
ATOM     34  C   UNL     1      37.430 -24.378 -12.049  0.00  0.00    +0.040 C 
ATOM     35  C   UNL     1      37.861 -26.376 -13.946  0.00  0.00    +0.033 C 
ATOM     36  C   UNL     1      38.731 -24.747 -12.389  0.00  0.00    +0.033 C 
ATOM     37  C   UNL     1      38.947 -25.746 -13.338  0.00  0.00    +0.140 C 
ENDBRANCH  30  32
ENDBRANCH  27  30
ENDBRANCH  22  24
ENDBRANCH   1  22
TORSDOF 9
ENDMDL
MODEL 8
REMARK VINA RESULT:     -11.3      3.388     11.087
REMARK  Name = 5287728
REMARK  9 active torsions:
REMARK  status: ('A' for Active; 'I' for Inactive)
REMARK    1  A    between atoms: S_1  and  N_4
REMARK    2  A    between atoms: S_1  and  N_22
REMARK    3  A    between atoms: C_5  and  N_10
REMARK    4  A    between atoms: N_10  and  C_13
REMARK    5  A    between atoms: C_13  and  C_14
REMARK    6  A    between atoms: C_15  and  O_20
REMARK    7  A    between atoms: N_22  and  C_24
REMARK    8  A    between atoms: C_27  and  O_30
REMARK    9  A    between atoms: O_30  and  C_32
REMARK                            x       y       z     vdW  Elec       q    Type
REMARK                         _______ _______ _______ _____ _____    ______ ____
ROOT
ATOM      1  S   UNL     1      35.037 -18.545 -22.494  0.00  0.00    +0.113 S 
ATOM      2  O   UNL     1      34.640 -19.411 -23.589  0.00  0.00    -0.138 OA
ATOM      3  O   UNL     1      36.430 -18.476 -22.087  0.00  0.00    -0.138 OA
ENDROOT
BRANCH   1   4
ATOM      4  N   UNL     1      34.494 -16.957 -22.848  0.00  0.00    -0.143 NA
ATOM      5  C   UNL     1      34.236 -14.148 -23.555  0.00  0.00    -0.059 C 
ATOM      6  C   UNL     1      34.115 -14.635 -22.107  0.00  0.00    -0.002 C 
ATOM      7  C   UNL     1      33.843 -15.268 -24.525  0.00  0.00    -0.002 C 
ATOM      8  C   UNL     1      34.934 -15.904 -21.886  0.00  0.00    +0.095 C 
ATOM      9  C   UNL     1      34.665 -16.528 -24.268  0.00  0.00    +0.095 C 
BRANCH   5  10
ATOM     10  N   UNL     1      33.382 -12.982 -23.764  0.00  0.00    +0.388 N 
ATOM     11  H   UNL     1      33.134 -12.582 -22.859  0.00  0.00    -0.084 HD
ATOM     12  H   UNL     1      32.543 -13.275 -24.265  0.00  0.00    -0.084 HD
BRANCH  10  13
ATOM     13  C   UNL     1      34.070 -11.974 -24.558  0.00  0.00    -0.051 C 
BRANCH  13  14
ATOM     14  C   UNL     1      33.986 -10.610 -23.927  0.00  0.00    -0.010 C 
ATOM     15  C   UNL     1      34.975  -9.665 -24.164  0.00  0.00    +0.128 C 
ATOM     16  C   UNL     1      32.903 -10.318 -23.106  0.00  0.00    -0.003 C 
ATOM     17  C   UNL     1      34.881  -8.406 -23.572  0.00  0.00    +0.036 C 
ATOM     18  C   UNL     1      32.810  -9.059 -22.512  0.00  0.00    -0.000 C 
ATOM     19  C   UNL     1      33.798  -8.103 -22.746  0.00  0.00    +0.003 C 
BRANCH  15  20
ATOM     20  O   UNL     1      36.039  -9.945 -24.969  0.00  0.00    -0.506 OA
ATOM     21  H   UNL     1      35.906 -10.106 -25.882  0.00  0.00    +0.292 HD
ENDBRANCH  15  20
ENDBRANCH  13  14
ENDBRANCH  10  13
ENDBRANCH   5  10
ENDBRANCH   1   4
BRANCH   1  22
ATOM     22  N   UNL     1      34.043 -18.929 -21.137  0.00  0.00    -0.205 N 
ATOM     23  H   UNL     1      33.257 -18.383 -20.901  0.00  0.00    +0.175 HD
BRANCH  22  24
ATOM     24  C   UNL     1      34.415 -20.086 -20.365  0.00  0.00    +0.069 C 
ATOM     25  C   UNL     1      33.425 -20.892 -19.816  0.00  0.00    +0.053 C 
ATOM     26  C   UNL     1      35.759 -20.382 -20.178  0.00  0.00    +0.016 C 
ATOM     27  C   UNL     1      33.787 -22.012 -19.067  0.00  0.00    +0.147 C 
ATOM     28  C   UNL     1      36.120 -21.502 -19.430  0.00  0.00    +0.004 C 
ATOM     29  C   UNL     1      35.135 -22.317 -18.875  0.00  0.00    +0.038 C 
BRANCH  27  30
ATOM     30  O   UNL     1      32.825 -22.806 -18.524  0.00  0.00    -0.453 OA
BRANCH  30  32
ATOM     31  F   UNL     1      32.825 -23.457 -13.073  0.00  0.00    -0.204 F 
ATOM     32  C   UNL     1      32.825 -22.970 -17.149  0.00  0.00    +0.145 C 
ATOM     33  C   UNL     1      34.031 -23.123 -16.489  0.00  0.00    +0.040 C 
ATOM     34  C   UNL     1      31.619 -22.977 -16.472  0.00  0.00    +0.040 C 
ATOM     35  C   UNL     1      34.031 -23.288 -15.104  0.00  0.00    +0.033 C 
ATOM     36  C   UNL     1      31.619 -23.143 -15.087  0.00  0.00    +0.033 C 
ATOM     37  C   UNL     1      32.825 -23.298 -14.403  0.00  0.00    +0.140 C 
ENDBRANCH  30  32
ENDBRANCH  27  30
ENDBRANCH  22  24
ENDBRANCH   1  22
TORSDOF 9
ENDMDL
MODEL 9
REMARK VINA RESULT:     -11.2      2.721      3.608
REMARK  Name = 5287728
REMARK  9 active torsions:
REMARK  status: ('A' for Active; 'I' for Inactive)
REMARK    1  A    between atoms: S_1  and  N_4
REMARK    2  A    between atoms: S_1  and  N_22
REMARK    3  A    between atoms: C_5  and  N_10
REMARK    4  A    between atoms: N_10  and  C_13
REMARK    5  A    between atoms: C_13  and  C_14
REMARK    6  A    between atoms: C_15  and  O_20
REMARK    7  A    between atoms: N_22  and  C_24
REMARK    8  A    between atoms: C_27  and  O_30
REMARK    9  A    between atoms: O_30  and  C_32
REMARK                            x       y       z     vdW  Elec       q    Type
REMARK                         _______ _______ _______ _____ _____    ______ ____
ROOT
ATOM      1  S   UNL     1      36.072 -20.733 -19.776  0.00  0.00    +0.113 S 
ATOM      2  O   UNL     1      37.061 -19.704 -19.510  0.00  0.00    -0.138 OA
ATOM      3  O   UNL     1      36.368 -21.806 -20.707  0.00  0.00    -0.138 OA
ENDROOT
BRANCH   1   4
ATOM      4  N   UNL     1      35.609 -21.425 -18.276  0.00  0.00    -0.143 NA
ATOM      5  C   UNL     1      35.111 -23.159 -15.995  0.00  0.00    -0.059 C 
ATOM      6  C   UNL     1      33.997 -22.755 -16.966  0.00  0.00    -0.002 C 
ATOM      7  C   UNL     1      36.211 -22.091 -15.978  0.00  0.00    -0.002 C 
ATOM      8  C   UNL     1      34.557 -22.480 -18.360  0.00  0.00    +0.095 C 
ATOM      9  C   UNL     1      36.738 -21.826 -17.385  0.00  0.00    +0.095 C 
BRANCH   5  10
ATOM     10  N   UNL     1      34.565 -23.337 -14.652  0.00  0.00    +0.388 N 
ATOM     11  H   UNL     1      33.580 -23.071 -14.653  0.00  0.00    -0.084 HD
ATOM     12  H   UNL     1      35.091 -22.752 -14.004  0.00  0.00    -0.084 HD
BRANCH  10  13
ATOM     13  C   UNL     1      34.683 -24.725 -14.229  0.00  0.00    -0.051 C 
BRANCH  13  14
ATOM     14  C   UNL     1      36.098 -25.079 -13.856  0.00  0.00    -0.010 C 
ATOM     15  C   UNL     1      36.758 -26.111 -14.510  0.00  0.00    +0.128 C 
ATOM     16  C   UNL     1      36.726 -24.356 -12.849  0.00  0.00    -0.003 C 
ATOM     17  C   UNL     1      38.069 -26.425 -14.152  0.00  0.00    +0.036 C 
ATOM     18  C   UNL     1      38.037 -24.671 -12.491  0.00  0.00    -0.000 C 
ATOM     19  C   UNL     1      38.708 -25.705 -13.142  0.00  0.00    +0.003 C 
BRANCH  15  20
ATOM     20  O   UNL     1      36.149 -26.823 -15.499  0.00  0.00    -0.506 OA
ATOM     21  H   UNL     1      35.544 -26.401 -16.076  0.00  0.00    +0.292 HD
ENDBRANCH  15  20
ENDBRANCH  13  14
ENDBRANCH  10  13
ENDBRANCH   5  10
ENDBRANCH   1   4
BRANCH   1  22
ATOM     22  N   UNL     1      34.606 -19.943 -20.229  0.00  0.00    -0.205 N 
ATOM     23  H   UNL     1      33.779 -20.048 -19.705  0.00  0.00    +0.175 HD
BRANCH  22  24
ATOM     24  C   UNL     1      34.650 -19.122 -21.412  0.00  0.00    +0.069 C 
ATOM     25  C   UNL     1      34.994 -17.780 -21.303  0.00  0.00    +0.053 C 
ATOM     26  C   UNL     1      34.346 -19.681 -22.647  0.00  0.00    +0.016 C 
ATOM     27  C   UNL     1      35.036 -16.985 -22.448  0.00  0.00    +0.147 C 
ATOM     28  C   UNL     1      34.388 -18.885 -23.791  0.00  0.00    +0.004 C 
ATOM     29  C   UNL     1      34.733 -17.538 -23.692  0.00  0.00    +0.038 C 
BRANCH  27  30
ATOM     30  O   UNL     1      35.371 -15.670 -22.351  0.00  0.00    -0.453 OA
BRANCH  30  32
ATOM     31  F   UNL     1      31.332 -12.066 -21.434  0.00  0.00    -0.204 F 
ATOM     32  C   UNL     1      34.352 -14.761 -22.120  0.00  0.00    +0.145 C 
ATOM     33  C   UNL     1      33.779 -14.102 -23.194  0.00  0.00    +0.040 C 
ATOM     34  C   UNL     1      33.933 -14.535 -20.822  0.00  0.00    +0.040 C 
ATOM     35  C   UNL     1      32.753 -13.187 -22.961  0.00  0.00    +0.033 C 
ATOM     36  C   UNL     1      32.907 -13.619 -20.588  0.00  0.00    +0.033 C 
ATOM     37  C   UNL     1      32.317 -12.945 -21.658  0.00  0.00    +0.140 C 
ENDBRANCH  30  32
ENDBRANCH  27  30
ENDBRANCH  22  24
ENDBRANCH   1  22
TORSDOF 9
ENDMDL
