MODEL 1
REMARK VINA RESULT:     -11.1      0.000      0.000
REMARK  Name = 118513932
REMARK  2 active torsions:
REMARK  status: ('A' for Active; 'I' for Inactive)
REMARK    1  A    between atoms: C_4  and  N_24
REMARK    2  A    between atoms: C_10  and  C_15
REMARK                            x       y       z     vdW  Elec       q    Type
REMARK                         _______ _______ _______ _____ _____    ______ ____
ROOT
ATOM      1  O   UNL     1      32.369 -22.739 -18.135  0.00  0.00    -0.274 OA
ATOM      2  N   UNL     1      34.626 -22.332 -17.620  0.00  0.00    -0.209 N 
ATOM      3  N   UNL     1      35.853 -20.794 -18.973  0.00  0.00    -0.389 NA
ATOM      4  C   UNL     1      35.723 -23.421 -15.776  0.00  0.00    +0.063 C 
ATOM      5  C   UNL     1      34.636 -23.204 -16.536  0.00  0.00    +0.089 C 
ATOM      6  C   UNL     1      36.938 -22.708 -16.112  0.00  0.00    +0.020 C 
ATOM      7  C   UNL     1      36.993 -21.857 -17.142  0.00  0.00    +0.050 C 
ATOM      8  C   UNL     1      35.782 -21.624 -17.976  0.00  0.00    +0.193 C 
ATOM      9  C   UNL     1      33.441 -22.176 -18.349  0.00  0.00    +0.242 C 
ATOM     10  C   UNL     1      34.711 -20.621 -19.703  0.00  0.00    +0.139 C 
ATOM     11  C   UNL     1      33.539 -21.225 -19.482  0.00  0.00    +0.146 C 
ENDROOT
BRANCH  10  15
ATOM     12  N   UNL     1      34.825 -17.675 -21.784  0.00  0.00    -0.178 N 
ATOM     13  N   UNL     1      34.771 -18.401 -20.638  0.00  0.00    -0.173 NA
ATOM     14  N   UNL     1      34.916 -17.167 -23.951  0.00  0.00    -0.392 NA
ATOM     15  C   UNL     1      34.765 -19.690 -20.834  0.00  0.00    +0.124 C 
ATOM     16  C   UNL     1      34.811 -20.347 -22.175  0.00  0.00    +0.023 C 
ATOM     17  C   UNL     1      34.864 -19.570 -23.273  0.00  0.00    +0.025 C 
ATOM     18  C   UNL     1      34.871 -18.156 -23.080  0.00  0.00    +0.198 C 
ATOM     19  C   UNL     1      34.843 -16.308 -21.859  0.00  0.00    +0.173 C 
ATOM     20  C   UNL     1      34.899 -16.019 -23.201  0.00  0.00    +0.111 C 
ATOM     21  C   UNL     1      34.911 -20.210 -24.637  0.00  0.00    +0.035 C 
ATOM     22  C   UNL     1      34.940 -14.701 -23.850  0.00  0.00    +0.063 C 
ENDBRANCH  10  15
BRANCH   4  24
ATOM     23  N   UNL     1      36.036 -25.433 -12.103  0.00  0.00    +0.389 N 
ATOM     24  N   UNL     1      35.747 -24.272 -14.709  0.00  0.00    -0.311 N 
ATOM     25  C   UNL     1      37.205 -25.227 -12.997  0.00  0.00    -0.027 C 
ATOM     26  C   UNL     1      38.523 -25.853 -12.598  0.00  0.00    -0.020 C 
ATOM     27  C   UNL     1      38.348 -24.367 -12.499  0.00  0.00    -0.020 C 
ATOM     28  C   UNL     1      36.869 -25.187 -14.474  0.00  0.00    +0.071 C 
ATOM     29  C   UNL     1      35.011 -24.423 -12.372  0.00  0.00    -0.060 C 
ATOM     30  C   UNL     1      34.582 -24.457 -13.839  0.00  0.00    +0.067 C 
ATOM     31  H   UNL     1      36.337 -25.359 -11.132  0.00  0.00    -0.084 HD
ATOM     32  H   UNL     1      35.645 -26.360 -12.275  0.00  0.00    -0.084 HD
ENDBRANCH   4  24
TORSDOF 2
ENDMDL
MODEL 2
REMARK VINA RESULT:     -11.0      6.317     11.222
REMARK  Name = 118513932
REMARK  2 active torsions:
REMARK  status: ('A' for Active; 'I' for Inactive)
REMARK    1  A    between atoms: C_4  and  N_24
REMARK    2  A    between atoms: C_10  and  C_15
REMARK                            x       y       z     vdW  Elec       q    Type
REMARK                         _______ _______ _______ _____ _____    ______ ____
ROOT
ATOM      1  O   UNL     1      33.776 -13.124 -26.315  0.00  0.00    -0.274 OA
ATOM      2  N   UNL     1      33.997 -13.556 -24.015  0.00  0.00    -0.209 N 
ATOM      3  N   UNL     1      33.690 -11.757 -22.475  0.00  0.00    -0.389 NA
ATOM      4  C   UNL     1      34.525 -15.750 -23.180  0.00  0.00    +0.063 C 
ATOM      5  C   UNL     1      34.283 -14.905 -24.198  0.00  0.00    +0.089 C 
ATOM      6  C   UNL     1      34.484 -15.219 -21.834  0.00  0.00    +0.020 C 
ATOM      7  C   UNL     1      34.216 -13.932 -21.592  0.00  0.00    +0.050 C 
ATOM      8  C   UNL     1      33.949 -13.006 -22.726  0.00  0.00    +0.193 C 
ATOM      9  C   UNL     1      33.761 -12.758 -25.141  0.00  0.00    +0.242 C 
ATOM     10  C   UNL     1      33.454 -10.955 -23.555  0.00  0.00    +0.139 C 
ATOM     11  C   UNL     1      33.466 -11.338 -24.835  0.00  0.00    +0.146 C 
ENDROOT
BRANCH  10  15
ATOM     12  N   UNL     1      31.903  -7.841 -22.593  0.00  0.00    -0.178 N 
ATOM     13  N   UNL     1      32.023  -9.182 -22.771  0.00  0.00    -0.173 NA
ATOM     14  N   UNL     1      32.385  -5.666 -22.600  0.00  0.00    -0.392 NA
ATOM     15  C   UNL     1      33.159  -9.542 -23.297  0.00  0.00    +0.124 C 
ATOM     16  C   UNL     1      34.253  -8.601 -23.684  0.00  0.00    +0.023 C 
ATOM     17  C   UNL     1      34.073  -7.282 -23.482  0.00  0.00    +0.025 C 
ATOM     18  C   UNL     1      32.834  -6.867 -22.907  0.00  0.00    +0.198 C 
ATOM     19  C   UNL     1      30.814  -7.203 -22.061  0.00  0.00    +0.173 C 
ATOM     20  C   UNL     1      31.134  -5.867 -22.076  0.00  0.00    +0.111 C 
ATOM     21  C   UNL     1      35.162  -6.314 -23.865  0.00  0.00    +0.035 C 
ATOM     22  C   UNL     1      30.323  -4.730 -21.617  0.00  0.00    +0.063 C 
ENDBRANCH  10  15
BRANCH   4  24
ATOM     23  N   UNL     1      34.705 -19.942 -23.372  0.00  0.00    +0.389 N 
ATOM     24  N   UNL     1      34.805 -17.076 -23.344  0.00  0.00    -0.311 N 
ATOM     25  C   UNL     1      35.061 -19.188 -22.143  0.00  0.00    -0.027 C 
ATOM     26  C   UNL     1      35.597 -19.967 -20.962  0.00  0.00    -0.020 C 
ATOM     27  C   UNL     1      34.215 -19.389 -20.904  0.00  0.00    -0.020 C 
ATOM     28  C   UNL     1      35.646 -17.813 -22.395  0.00  0.00    +0.071 C 
ATOM     29  C   UNL     1      33.806 -19.145 -24.210  0.00  0.00    -0.060 C 
ATOM     30  C   UNL     1      34.440 -17.800 -24.566  0.00  0.00    +0.067 C 
ATOM     31  H   UNL     1      34.240 -20.811 -23.112  0.00  0.00    -0.084 HD
ATOM     32  H   UNL     1      35.556 -20.146 -23.896  0.00  0.00    -0.084 HD
ENDBRANCH   4  24
TORSDOF 2
ENDMDL
MODEL 3
REMARK VINA RESULT:     -10.8      7.464     14.637
REMARK  Name = 118513932
REMARK  2 active torsions:
REMARK  status: ('A' for Active; 'I' for Inactive)
REMARK    1  A    between atoms: C_4  and  N_24
REMARK    2  A    between atoms: C_10  and  C_15
REMARK                            x       y       z     vdW  Elec       q    Type
REMARK                         _______ _______ _______ _____ _____    ______ ____
ROOT
ATOM      1  O   UNL     1      30.486 -10.840 -20.505  0.00  0.00    -0.274 OA
ATOM      2  N   UNL     1      32.099  -9.853 -21.901  0.00  0.00    -0.209 N 
ATOM      3  N   UNL     1      33.612 -11.270 -23.087  0.00  0.00    -0.389 NA
ATOM      4  C   UNL     1      32.263  -7.467 -22.162  0.00  0.00    +0.063 C 
ATOM      5  C   UNL     1      31.685  -8.555 -21.624  0.00  0.00    +0.089 C 
ATOM      6  C   UNL     1      33.370  -7.669 -23.073  0.00  0.00    +0.020 C 
ATOM      7  C   UNL     1      33.816  -8.892 -23.380  0.00  0.00    +0.050 C 
ATOM      8  C   UNL     1      33.167 -10.089 -22.778  0.00  0.00    +0.193 C 
ATOM      9  C   UNL     1      31.431 -10.920 -21.288  0.00  0.00    +0.242 C 
ATOM     10  C   UNL     1      32.978 -12.331 -22.504  0.00  0.00    +0.139 C 
ATOM     11  C   UNL     1      31.951 -12.260 -21.652  0.00  0.00    +0.146 C 
ENDROOT
BRANCH  10  15
ATOM     12  N   UNL     1      34.515 -15.595 -22.426  0.00  0.00    -0.178 N 
ATOM     13  N   UNL     1      34.140 -14.373 -21.969  0.00  0.00    -0.173 NA
ATOM     14  N   UNL     1      34.771 -17.351 -23.773  0.00  0.00    -0.392 NA
ATOM     15  C   UNL     1      33.463 -13.674 -22.835  0.00  0.00    +0.124 C 
ATOM     16  C   UNL     1      33.111 -14.137 -24.212  0.00  0.00    +0.023 C 
ATOM     17  C   UNL     1      33.513 -15.360 -24.605  0.00  0.00    +0.025 C 
ATOM     18  C   UNL     1      34.256 -16.141 -23.670  0.00  0.00    +0.198 C 
ATOM     19  C   UNL     1      35.233 -16.523 -21.719  0.00  0.00    +0.173 C 
ATOM     20  C   UNL     1      35.377 -17.593 -22.568  0.00  0.00    +0.111 C 
ATOM     21  C   UNL     1      33.170 -15.848 -25.989  0.00  0.00    +0.035 C 
ATOM     22  C   UNL     1      36.066 -18.868 -22.319  0.00  0.00    +0.063 C 
ENDBRANCH  10  15
BRANCH   4  24
ATOM     23  N   UNL     1      30.466  -3.686 -21.824  0.00  0.00    +0.389 N 
ATOM     24  N   UNL     1      31.867  -6.188 -21.900  0.00  0.00    -0.311 N 
ATOM     25  C   UNL     1      31.373  -4.036 -22.947  0.00  0.00    -0.027 C 
ATOM     26  C   UNL     1      31.726  -2.950 -23.939  0.00  0.00    -0.020 C 
ATOM     27  C   UNL     1      30.805  -4.060 -24.350  0.00  0.00    -0.020 C 
ATOM     28  C   UNL     1      32.454  -5.037 -22.594  0.00  0.00    +0.071 C 
ATOM     29  C   UNL     1      29.878  -4.900 -21.253  0.00  0.00    -0.060 C 
ATOM     30  C   UNL     1      30.967  -5.867 -20.788  0.00  0.00    +0.067 C 
ATOM     31  H   UNL     1      29.721  -3.081 -22.167  0.00  0.00    -0.084 HD
ATOM     32  H   UNL     1      31.001  -3.204 -21.101  0.00  0.00    -0.084 HD
ENDBRANCH   4  24
TORSDOF 2
ENDMDL
MODEL 4
REMARK VINA RESULT:     -10.5      1.302      1.616
REMARK  Name = 118513932
REMARK  2 active torsions:
REMARK  status: ('A' for Active; 'I' for Inactive)
REMARK    1  A    between atoms: C_4  and  N_24
REMARK    2  A    between atoms: C_10  and  C_15
REMARK                            x       y       z     vdW  Elec       q    Type
REMARK                         _______ _______ _______ _____ _____    ______ ____
ROOT
ATOM      1  O   UNL     1      32.436 -23.029 -17.740  0.00  0.00    -0.274 OA
ATOM      2  N   UNL     1      34.662 -22.635 -17.096  0.00  0.00    -0.209 N 
ATOM      3  N   UNL     1      36.013 -21.207 -18.452  0.00  0.00    -0.389 NA
ATOM      4  C   UNL     1      35.607 -23.628 -15.119  0.00  0.00    +0.063 C 
ATOM      5  C   UNL     1      34.578 -23.437 -15.963  0.00  0.00    +0.089 C 
ATOM      6  C   UNL     1      36.858 -22.961 -15.413  0.00  0.00    +0.020 C 
ATOM      7  C   UNL     1      37.003 -22.177 -16.487  0.00  0.00    +0.050 C 
ATOM      8  C   UNL     1      35.856 -21.972 -17.414  0.00  0.00    +0.193 C 
ATOM      9  C   UNL     1      33.533 -22.501 -17.913  0.00  0.00    +0.242 C 
ATOM     10  C   UNL     1      34.927 -21.058 -19.268  0.00  0.00    +0.139 C 
ATOM     11  C   UNL     1      33.729 -21.624 -19.092  0.00  0.00    +0.146 C 
ENDROOT
BRANCH  10  15
ATOM     12  N   UNL     1      34.383 -19.190 -22.308  0.00  0.00    -0.178 N 
ATOM     13  N   UNL     1      34.084 -20.010 -21.268  0.00  0.00    -0.173 NA
ATOM     14  N   UNL     1      35.525 -17.841 -23.664  0.00  0.00    -0.392 NA
ATOM     15  C   UNL     1      35.079 -20.199 -20.447  0.00  0.00    +0.124 C 
ATOM     16  C   UNL     1      36.435 -19.591 -20.599  0.00  0.00    +0.023 C 
ATOM     17  C   UNL     1      36.667 -18.786 -21.653  0.00  0.00    +0.025 C 
ATOM     18  C   UNL     1      35.591 -18.566 -22.564  0.00  0.00    +0.198 C 
ATOM     19  C   UNL     1      33.521 -18.828 -23.308  0.00  0.00    +0.173 C 
ATOM     20  C   UNL     1      34.246 -17.999 -24.129  0.00  0.00    +0.111 C 
ATOM     21  C   UNL     1      38.027 -18.161 -21.828  0.00  0.00    +0.035 C 
ATOM     22  C   UNL     1      33.808 -17.323 -25.359  0.00  0.00    +0.063 C 
ENDBRANCH  10  15
BRANCH   4  24
ATOM     23  N   UNL     1      35.721 -25.448 -11.335  0.00  0.00    +0.389 N 
ATOM     24  N   UNL     1      35.539 -24.412 -14.003  0.00  0.00    -0.311 N 
ATOM     25  C   UNL     1      36.891 -25.447 -12.251  0.00  0.00    -0.027 C 
ATOM     26  C   UNL     1      38.123 -26.215 -11.829  0.00  0.00    -0.020 C 
ATOM     27  C   UNL     1      38.144 -24.716 -11.817  0.00  0.00    -0.020 C 
ATOM     28  C   UNL     1      36.537 -25.450 -13.724  0.00  0.00    +0.071 C 
ATOM     29  C   UNL     1      34.830 -24.330 -11.654  0.00  0.00    -0.060 C 
ATOM     30  C   UNL     1      34.375 -24.393 -13.113  0.00  0.00    +0.067 C 
ATOM     31  H   UNL     1      36.045 -25.357 -10.373  0.00  0.00    -0.084 HD
ATOM     32  H   UNL     1      35.210 -26.324 -11.449  0.00  0.00    -0.084 HD
ENDBRANCH   4  24
TORSDOF 2
ENDMDL
MODEL 5
REMARK VINA RESULT:      -9.5      6.428     13.723
REMARK  Name = 118513932
REMARK  2 active torsions:
REMARK  status: ('A' for Active; 'I' for Inactive)
REMARK    1  A    between atoms: C_4  and  N_24
REMARK    2  A    between atoms: C_10  and  C_15
REMARK                            x       y       z     vdW  Elec       q    Type
REMARK                         _______ _______ _______ _____ _____    ______ ____
ROOT
ATOM      1  O   UNL     1      30.935 -11.734 -20.876  0.00  0.00    -0.274 OA
ATOM      2  N   UNL     1      32.551 -11.039 -22.435  0.00  0.00    -0.209 N 
ATOM      3  N   UNL     1      34.136 -12.637 -23.234  0.00  0.00    -0.389 NA
ATOM      4  C   UNL     1      32.647  -8.774 -23.239  0.00  0.00    +0.063 C 
ATOM      5  C   UNL     1      32.090  -9.728 -22.473  0.00  0.00    +0.089 C 
ATOM      6  C   UNL     1      33.782  -9.142 -24.059  0.00  0.00    +0.020 C 
ATOM      7  C   UNL     1      34.273 -10.385 -24.067  0.00  0.00    +0.050 C 
ATOM      8  C   UNL     1      33.647 -11.433 -23.215  0.00  0.00    +0.193 C 
ATOM      9  C   UNL     1      31.901 -11.959 -21.602  0.00  0.00    +0.242 C 
ATOM     10  C   UNL     1      33.521 -13.556 -22.431  0.00  0.00    +0.139 C 
ATOM     11  C   UNL     1      32.471 -13.327 -21.637  0.00  0.00    +0.146 C 
ENDROOT
BRANCH  10  15
ATOM     12  N   UNL     1      34.997 -16.719 -21.514  0.00  0.00    -0.178 N 
ATOM     13  N   UNL     1      34.545 -15.449 -21.348  0.00  0.00    -0.173 NA
ATOM     14  N   UNL     1      35.504 -18.664 -22.475  0.00  0.00    -0.392 NA
ATOM     15  C   UNL     1      34.054 -14.922 -22.434  0.00  0.00    +0.124 C 
ATOM     16  C   UNL     1      33.978 -15.613 -23.757  0.00  0.00    +0.023 C 
ATOM     17  C   UNL     1      34.443 -16.873 -23.855  0.00  0.00    +0.025 C 
ATOM     18  C   UNL     1      34.985 -17.469 -22.676  0.00  0.00    +0.198 C 
ATOM     19  C   UNL     1      35.556 -17.498 -20.536  0.00  0.00    +0.173 C 
ATOM     20  C   UNL     1      35.860 -18.688 -21.151  0.00  0.00    +0.111 C 
ATOM     21  C   UNL     1      34.377 -17.591 -25.178  0.00  0.00    +0.035 C 
ATOM     22  C   UNL     1      36.480 -19.885 -20.565  0.00  0.00    +0.063 C 
ENDBRANCH  10  15
BRANCH   4  24
ATOM     23  N   UNL     1      31.776  -4.687 -22.819  0.00  0.00    +0.389 N 
ATOM     24  N   UNL     1      32.205  -7.484 -23.288  0.00  0.00    -0.311 N 
ATOM     25  C   UNL     1      31.142  -5.725 -21.966  0.00  0.00    -0.027 C 
ATOM     26  C   UNL     1      30.079  -5.285 -20.985  0.00  0.00    -0.020 C 
ATOM     27  C   UNL     1      31.427  -5.706 -20.479  0.00  0.00    -0.020 C 
ATOM     28  C   UNL     1      30.955  -7.068 -22.643  0.00  0.00    +0.071 C 
ATOM     29  C   UNL     1      33.049  -5.179 -23.351  0.00  0.00    -0.060 C 
ATOM     30  C   UNL     1      32.849  -6.476 -24.136  0.00  0.00    +0.067 C 
ATOM     31  H   UNL     1      31.944  -3.849 -22.263  0.00  0.00    -0.084 HD
ATOM     32  H   UNL     1      31.152  -4.469 -23.597  0.00  0.00    -0.084 HD
ENDBRANCH   4  24
TORSDOF 2
ENDMDL
MODEL 6
REMARK VINA RESULT:      -9.4      1.631      2.379
REMARK  Name = 118513932
REMARK  2 active torsions:
REMARK  status: ('A' for Active; 'I' for Inactive)
REMARK    1  A    between atoms: C_4  and  N_24
REMARK    2  A    between atoms: C_10  and  C_15
REMARK                            x       y       z     vdW  Elec       q    Type
REMARK                         _______ _______ _______ _____ _____    ______ ____
ROOT
ATOM      1  O   UNL     1      33.513 -23.427 -17.132  0.00  0.00    -0.274 OA
ATOM      2  N   UNL     1      35.747 -22.801 -16.754  0.00  0.00    -0.209 N 
ATOM      3  N   UNL     1      36.783 -21.275 -18.271  0.00  0.00    -0.389 NA
ATOM      4  C   UNL     1      37.007 -23.654 -14.890  0.00  0.00    +0.063 C 
ATOM      5  C   UNL     1      35.874 -23.583 -15.612  0.00  0.00    +0.089 C 
ATOM      6  C   UNL     1      38.142 -22.873 -15.334  0.00  0.00    +0.020 C 
ATOM      7  C   UNL     1      38.084 -22.100 -16.424  0.00  0.00    +0.050 C 
ATOM      8  C   UNL     1      36.824 -22.030 -17.214  0.00  0.00    +0.193 C 
ATOM      9  C   UNL     1      34.524 -22.797 -17.436  0.00  0.00    +0.242 C 
ATOM     10  C   UNL     1      35.602 -21.251 -18.956  0.00  0.00    +0.139 C 
ATOM     11  C   UNL     1      34.495 -21.929 -18.638  0.00  0.00    +0.146 C 
ENDROOT
BRANCH  10  15
ATOM     12  N   UNL     1      34.545 -19.547 -21.957  0.00  0.00    -0.178 N 
ATOM     13  N   UNL     1      34.454 -20.378 -20.887  0.00  0.00    -0.173 NA
ATOM     14  N   UNL     1      35.366 -18.082 -23.421  0.00  0.00    -0.392 NA
ATOM     15  C   UNL     1      35.531 -20.406 -20.153  0.00  0.00    +0.124 C 
ATOM     16  C   UNL     1      36.769 -19.616 -20.428  0.00  0.00    +0.023 C 
ATOM     17  C   UNL     1      36.795 -18.811 -21.506  0.00  0.00    +0.025 C 
ATOM     18  C   UNL     1      35.626 -18.766 -22.323  0.00  0.00    +0.198 C 
ATOM     19  C   UNL     1      33.559 -19.333 -22.884  0.00  0.00    +0.173 C 
ATOM     20  C   UNL     1      34.088 -18.429 -23.773  0.00  0.00    +0.111 C 
ATOM     21  C   UNL     1      38.033 -18.005 -21.804  0.00  0.00    +0.035 C 
ATOM     22  C   UNL     1      33.457 -17.849 -24.967  0.00  0.00    +0.063 C 
ENDBRANCH  10  15
BRANCH   4  24
ATOM     23  N   UNL     1      36.731 -26.238 -11.591  0.00  0.00    +0.389 N 
ATOM     24  N   UNL     1      37.146 -24.417 -13.767  0.00  0.00    -0.311 N 
ATOM     25  C   UNL     1      36.184 -24.857 -11.565  0.00  0.00    -0.027 C 
ATOM     26  C   UNL     1      35.597 -24.351 -10.266  0.00  0.00    -0.020 C 
ATOM     27  C   UNL     1      34.688 -24.680 -11.413  0.00  0.00    -0.020 C 
ATOM     28  C   UNL     1      36.940 -23.864 -12.424  0.00  0.00    +0.071 C 
ATOM     29  C   UNL     1      36.826 -26.718 -12.971  0.00  0.00    -0.060 C 
ATOM     30  C   UNL     1      37.687 -25.779 -13.818  0.00  0.00    +0.067 C 
ATOM     31  H   UNL     1      36.117 -26.855 -11.061  0.00  0.00    -0.084 HD
ATOM     32  H   UNL     1      37.663 -26.235 -11.175  0.00  0.00    -0.084 HD
ENDBRANCH   4  24
TORSDOF 2
ENDMDL
MODEL 7
REMARK VINA RESULT:      -9.4      6.614     11.553
REMARK  Name = 118513932
REMARK  2 active torsions:
REMARK  status: ('A' for Active; 'I' for Inactive)
REMARK    1  A    between atoms: C_4  and  N_24
REMARK    2  A    between atoms: C_10  and  C_15
REMARK                            x       y       z     vdW  Elec       q    Type
REMARK                         _______ _______ _______ _____ _____    ______ ____
ROOT
ATOM      1  O   UNL     1      31.966 -13.771 -20.228  0.00  0.00    -0.274 OA
ATOM      2  N   UNL     1      33.069 -13.380 -22.267  0.00  0.00    -0.209 N 
ATOM      3  N   UNL     1      33.157 -11.149 -23.114  0.00  0.00    -0.389 NA
ATOM      4  C   UNL     1      34.102 -15.159 -23.513  0.00  0.00    +0.063 C 
ATOM      5  C   UNL     1      33.412 -14.715 -22.448  0.00  0.00    +0.089 C 
ATOM      6  C   UNL     1      34.503 -14.191 -24.512  0.00  0.00    +0.020 C 
ATOM      7  C   UNL     1      34.204 -12.893 -24.396  0.00  0.00    +0.050 C 
ATOM      8  C   UNL     1      33.439 -12.413 -23.212  0.00  0.00    +0.193 C 
ATOM      9  C   UNL     1      32.346 -13.019 -21.123  0.00  0.00    +0.242 C 
ATOM     10  C   UNL     1      32.453 -10.767 -22.007  0.00  0.00    +0.139 C 
ATOM     11  C   UNL     1      32.034 -11.573 -21.026  0.00  0.00    +0.146 C 
ENDROOT
BRANCH  10  15
ATOM     12  N   UNL     1      31.495  -7.342 -22.624  0.00  0.00    -0.178 N 
ATOM     13  N   UNL     1      31.771  -8.640 -22.912  0.00  0.00    -0.173 NA
ATOM     14  N   UNL     1      31.217  -5.455 -21.473  0.00  0.00    -0.392 NA
ATOM     15  C   UNL     1      32.121  -9.345 -21.873  0.00  0.00    +0.124 C 
ATOM     16  C   UNL     1      32.222  -8.814 -20.480  0.00  0.00    +0.023 C 
ATOM     17  C   UNL     1      31.934  -7.518 -20.260  0.00  0.00    +0.025 C 
ATOM     18  C   UNL     1      31.549  -6.729 -21.385  0.00  0.00    +0.198 C 
ATOM     19  C   UNL     1      31.106  -6.392 -23.529  0.00  0.00    +0.173 C 
ATOM     20  C   UNL     1      30.940  -5.241 -22.798  0.00  0.00    +0.111 C 
ATOM     21  C   UNL     1      32.029  -6.960 -18.864  0.00  0.00    +0.035 C 
ATOM     22  C   UNL     1      30.528  -3.911 -23.271  0.00  0.00    +0.063 C 
ENDBRANCH  10  15
BRANCH   4  24
ATOM     23  N   UNL     1      34.540 -19.333 -23.692  0.00  0.00    +0.389 N 
ATOM     24  N   UNL     1      34.446 -16.466 -23.704  0.00  0.00    -0.311 N 
ATOM     25  C   UNL     1      35.019 -18.533 -22.535  0.00  0.00    -0.027 C 
ATOM     26  C   UNL     1      35.773 -19.253 -21.438  0.00  0.00    -0.020 C 
ATOM     27  C   UNL     1      34.377 -18.768 -21.183  0.00  0.00    -0.020 C 
ATOM     28  C   UNL     1      35.465 -17.128 -22.882  0.00  0.00    +0.071 C 
ATOM     29  C   UNL     1      33.477 -18.613 -24.396  0.00  0.00    -0.060 C 
ATOM     30  C   UNL     1      33.959 -17.236 -24.853  0.00  0.00    +0.067 C 
ATOM     31  H   UNL     1      34.180 -20.226 -23.359  0.00  0.00    -0.084 HD
ATOM     32  H   UNL     1      35.318 -19.489 -24.333  0.00  0.00    -0.084 HD
ENDBRANCH   4  24
TORSDOF 2
ENDMDL
MODEL 8
REMARK VINA RESULT:      -9.4      1.339      1.808
REMARK  Name = 118513932
REMARK  2 active torsions:
REMARK  status: ('A' for Active; 'I' for Inactive)
REMARK    1  A    between atoms: C_4  and  N_24
REMARK    2  A    between atoms: C_10  and  C_15
REMARK                            x       y       z     vdW  Elec       q    Type
REMARK                         _______ _______ _______ _____ _____    ______ ____
ROOT
ATOM      1  O   UNL     1      37.820 -20.970 -17.236  0.00  0.00    -0.274 OA
ATOM      2  N   UNL     1      35.676 -21.901 -17.486  0.00  0.00    -0.209 N 
ATOM      3  N   UNL     1      34.326 -21.194 -19.324  0.00  0.00    -0.389 NA
ATOM      4  C   UNL     1      34.816 -23.537 -15.946  0.00  0.00    +0.063 C 
ATOM      5  C   UNL     1      35.791 -22.708 -16.360  0.00  0.00    +0.089 C 
ATOM      6  C   UNL     1      33.592 -23.582 -16.719  0.00  0.00    +0.020 C 
ATOM      7  C   UNL     1      33.421 -22.830 -17.811  0.00  0.00    +0.050 C 
ATOM      8  C   UNL     1      34.508 -21.918 -18.260  0.00  0.00    +0.193 C 
ATOM      9  C   UNL     1      36.750 -21.071 -17.833  0.00  0.00    +0.242 C 
ATOM     10  C   UNL     1      35.357 -20.375 -19.687  0.00  0.00    +0.139 C 
ATOM     11  C   UNL     1      36.525 -20.254 -19.049  0.00  0.00    +0.146 C 
ENDROOT
BRANCH  10  15
ATOM     12  N   UNL     1      34.925 -17.628 -21.988  0.00  0.00    -0.178 N 
ATOM     13  N   UNL     1      35.090 -18.251 -20.792  0.00  0.00    -0.173 NA
ATOM     14  N   UNL     1      34.682 -17.312 -24.180  0.00  0.00    -0.392 NA
ATOM     15  C   UNL     1      35.176 -19.548 -20.884  0.00  0.00    +0.124 C 
ATOM     16  C   UNL     1      35.104 -20.317 -22.163  0.00  0.00    +0.023 C 
ATOM     17  C   UNL     1      34.939 -19.641 -23.315  0.00  0.00    +0.025 C 
ATOM     18  C   UNL     1      34.843 -18.219 -23.236  0.00  0.00    +0.198 C 
ATOM     19  C   UNL     1      34.808 -16.276 -22.172  0.00  0.00    +0.173 C 
ATOM     20  C   UNL     1      34.660 -16.107 -23.527  0.00  0.00    +0.111 C 
ATOM     21  C   UNL     1      34.863 -20.395 -24.617  0.00  0.00    +0.035 C 
ATOM     22  C   UNL     1      34.494 -14.852 -24.276  0.00  0.00    +0.063 C 
ENDBRANCH  10  15
BRANCH   4  24
ATOM     23  N   UNL     1      35.523 -25.422 -12.260  0.00  0.00    +0.389 N 
ATOM     24  N   UNL     1      34.914 -24.335 -14.843  0.00  0.00    -0.311 N 
ATOM     25  C   UNL     1      36.509 -25.457 -13.371  0.00  0.00    -0.027 C 
ATOM     26  C   UNL     1      37.761 -26.284 -13.184  0.00  0.00    -0.020 C 
ATOM     27  C   UNL     1      37.851 -24.788 -13.163  0.00  0.00    -0.020 C 
ATOM     28  C   UNL     1      35.897 -25.420 -14.757  0.00  0.00    +0.071 C 
ATOM     29  C   UNL     1      34.641 -24.262 -12.404  0.00  0.00    -0.060 C 
ATOM     30  C   UNL     1      33.930 -24.281 -13.758  0.00  0.00    +0.067 C 
ATOM     31  H   UNL     1      36.018 -25.361 -11.371  0.00  0.00    -0.084 HD
ATOM     32  H   UNL     1      34.961 -26.273 -12.287  0.00  0.00    -0.084 HD
ENDBRANCH   4  24
TORSDOF 2
ENDMDL
MODEL 9
REMARK VINA RESULT:      -9.2      6.821     14.210
REMARK  Name = 118513932
REMARK  2 active torsions:
REMARK  status: ('A' for Active; 'I' for Inactive)
REMARK    1  A    between atoms: C_4  and  N_24
REMARK    2  A    between atoms: C_10  and  C_15
REMARK                            x       y       z     vdW  Elec       q    Type
REMARK                         _______ _______ _______ _____ _____    ______ ____
ROOT
ATOM      1  O   UNL     1      34.959 -10.363 -25.009  0.00  0.00    -0.274 OA
ATOM      2  N   UNL     1      33.435 -10.422 -23.221  0.00  0.00    -0.209 N 
ATOM      3  N   UNL     1      32.943 -12.525 -22.201  0.00  0.00    -0.389 NA
ATOM      4  C   UNL     1      32.366  -8.430 -22.398  0.00  0.00    +0.063 C 
ATOM      5  C   UNL     1      33.206  -9.051 -23.245  0.00  0.00    +0.089 C 
ATOM      6  C   UNL     1      31.671  -9.239 -21.419  0.00  0.00    +0.020 C 
ATOM      7  C   UNL     1      31.848 -10.562 -21.344  0.00  0.00    +0.050 C 
ATOM      8  C   UNL     1      32.782 -11.238 -22.286  0.00  0.00    +0.193 C 
ATOM      9  C   UNL     1      34.330 -10.973 -24.147  0.00  0.00    +0.242 C 
ATOM     10  C   UNL     1      33.811 -13.090 -23.092  0.00  0.00    +0.139 C 
ATOM     11  C   UNL     1      34.502 -12.441 -24.034  0.00  0.00    +0.146 C 
ENDROOT
BRANCH  10  15
ATOM     12  N   UNL     1      34.691 -16.434 -22.059  0.00  0.00    -0.178 N 
ATOM     13  N   UNL     1      34.582 -15.083 -21.979  0.00  0.00    -0.173 NA
ATOM     14  N   UNL     1      34.536 -18.515 -22.838  0.00  0.00    -0.392 NA
ATOM     15  C   UNL     1      34.010 -14.540 -23.016  0.00  0.00    +0.124 C 
ATOM     16  C   UNL     1      33.507 -15.297 -24.203  0.00  0.00    +0.023 C 
ATOM     17  C   UNL     1      33.645 -16.636 -24.221  0.00  0.00    +0.025 C 
ATOM     18  C   UNL     1      34.270 -17.249 -23.094  0.00  0.00    +0.198 C 
ATOM     19  C   UNL     1      35.249 -17.245 -21.107  0.00  0.00    +0.173 C 
ATOM     20  C   UNL     1      35.142 -18.519 -21.609  0.00  0.00    +0.111 C 
ATOM     21  C   UNL     1      33.147 -17.420 -25.407  0.00  0.00    +0.035 C 
ATOM     22  C   UNL     1      35.583 -19.781 -20.996  0.00  0.00    +0.063 C 
ENDBRANCH  10  15
BRANCH   4  24
ATOM     23  N   UNL     1      31.228  -4.440 -23.051  0.00  0.00    +0.389 N 
ATOM     24  N   UNL     1      32.131  -7.086 -22.410  0.00  0.00    -0.311 N 
ATOM     25  C   UNL     1      32.372  -5.066 -23.763  0.00  0.00    -0.027 C 
ATOM     26  C   UNL     1      33.202  -4.193 -24.678  0.00  0.00    -0.020 C 
ATOM     27  C   UNL     1      32.285  -5.222 -25.267  0.00  0.00    -0.020 C 
ATOM     28  C   UNL     1      33.097  -6.135 -22.972  0.00  0.00    +0.071 C 
ATOM     29  C   UNL     1      30.291  -5.471 -22.598  0.00  0.00    -0.060 C 
ATOM     30  C   UNL     1      30.994  -6.491 -21.702  0.00  0.00    +0.067 C 
ATOM     31  H   UNL     1      30.746  -3.801 -23.682  0.00  0.00    -0.084 HD
ATOM     32  H   UNL     1      31.579  -3.930 -22.241  0.00  0.00    -0.084 HD
ENDBRANCH   4  24
TORSDOF 2
ENDMDL
