MODEL 1
REMARK VINA RESULT:     -11.3      0.000      0.000
REMARK  Name = 25113615
REMARK  7 active torsions:
REMARK  status: ('A' for Active; 'I' for Inactive)
REMARK    1  A    between atoms: N_2  and  C_20
REMARK    2  A    between atoms: C_3  and  C_7
REMARK    3  A    between atoms: C_11  and  C_12
REMARK    4  A    between atoms: C_12  and  C_13
REMARK    5  A    between atoms: C_13  and  C_14
REMARK    6  A    between atoms: C_20  and  C_21
REMARK    7  A    between atoms: C_26  and  C_29
REMARK                            x       y       z     vdW  Elec       q    Type
REMARK                         _______ _______ _______ _____ _____    ______ ____
ROOT
ATOM      1  O   UNL     1      35.514 -23.708 -13.064  0.00  0.00    -0.273 OA
ATOM      2  N   UNL     1      33.820 -24.991 -14.015  0.00  0.00    -0.299 N 
ATOM      3  C   UNL     1      35.116 -24.519 -13.896  0.00  0.00    +0.241 C 
ATOM      4  H   UNL     1      33.622 -25.643 -14.726  0.00  0.00    +0.150 HD
ENDROOT
BRANCH   3   7
ATOM      5  O   UNL     1      38.702 -22.686 -15.550  0.00  0.00    -0.275 OA
ATOM      6  N   UNL     1      37.298 -24.393 -14.878  0.00  0.00    -0.273 N 
ATOM      7  C   UNL     1      36.039 -25.135 -14.904  0.00  0.00    +0.152 C 
ATOM      8  C   UNL     1      36.423 -26.553 -14.489  0.00  0.00    +0.031 C 
ATOM      9  C   UNL     1      37.630 -26.340 -13.578  0.00  0.00    +0.024 C 
ATOM     10  C   UNL     1      38.345 -25.162 -14.219  0.00  0.00    +0.094 C 
ATOM     11  C   UNL     1      37.577 -23.189 -15.502  0.00  0.00    +0.226 C 
BRANCH  11  12
ATOM     12  C   UNL     1      36.408 -22.490 -16.150  0.00  0.00    +0.090 C 
BRANCH  12  13
ATOM     13  C   UNL     1      36.754 -22.075 -17.572  0.00  0.00    +0.036 C 
BRANCH  13  14
ATOM     14  C   UNL     1      35.545 -21.709 -18.398  0.00  0.00    -0.022 C 
ATOM     15  C   UNL     1      34.283 -22.177 -18.033  0.00  0.00    -0.004 C 
ATOM     16  C   UNL     1      35.690 -20.902 -19.527  0.00  0.00    -0.004 C 
ATOM     17  C   UNL     1      33.165 -21.839 -18.796  0.00  0.00    -0.000 C 
ATOM     18  C   UNL     1      34.572 -20.564 -20.290  0.00  0.00    -0.000 C 
ATOM     19  C   UNL     1      33.309 -21.033 -19.924  0.00  0.00    -0.000 C 
ENDBRANCH  13  14
ENDBRANCH  12  13
ENDBRANCH  11  12
ENDBRANCH   3   7
BRANCH   2  20
ATOM     20  C   UNL     1      32.743 -24.571 -13.147  0.00  0.00    +0.116 C 
BRANCH  20  21
ATOM     21  C   UNL     1      31.504 -24.222 -13.919  0.00  0.00    -0.003 C 
ATOM     22  C   UNL     1      31.530 -23.179 -14.845  0.00  0.00    -0.003 C 
ATOM     23  C   UNL     1      30.325 -24.939 -13.709  0.00  0.00    -0.003 C 
ATOM     24  C   UNL     1      30.378 -22.853 -15.561  0.00  0.00    +0.002 C 
ATOM     25  C   UNL     1      29.173 -24.612 -14.425  0.00  0.00    +0.002 C 
ATOM     26  C   UNL     1      29.200 -23.569 -15.351  0.00  0.00    +0.031 C 
BRANCH  26  29
ATOM     27  N   UNL     1      26.985 -22.463 -15.531  0.00  0.00    -0.343 N 
ATOM     28  N   UNL     1      27.856 -23.654 -17.342  0.00  0.00    -0.285 NA
ATOM     29  C   UNL     1      28.000 -23.229 -16.099  0.00  0.00    +0.117 C 
ATOM     30  H   UNL     1      26.180 -22.246 -16.054  0.00  0.00    +0.144 HD
ATOM     31  H   UNL     1      27.071 -22.140 -14.605  0.00  0.00    +0.144 HD
ATOM     32  H   UNL     1      27.045 -23.425 -17.849  0.00  0.00    +0.188 HD
ENDBRANCH  26  29
ENDBRANCH  20  21
ENDBRANCH   2  20
TORSDOF 7
ENDMDL
MODEL 2
REMARK VINA RESULT:     -11.1      2.916      6.234
REMARK  Name = 25113615
REMARK  7 active torsions:
REMARK  status: ('A' for Active; 'I' for Inactive)
REMARK    1  A    between atoms: N_2  and  C_20
REMARK    2  A    between atoms: C_3  and  C_7
REMARK    3  A    between atoms: C_11  and  C_12
REMARK    4  A    between atoms: C_12  and  C_13
REMARK    5  A    between atoms: C_13  and  C_14
REMARK    6  A    between atoms: C_20  and  C_21
REMARK    7  A    between atoms: C_26  and  C_29
REMARK                            x       y       z     vdW  Elec       q    Type
REMARK                         _______ _______ _______ _____ _____    ______ ____
ROOT
ATOM      1  O   UNL     1      35.072 -24.923 -15.680  0.00  0.00    -0.273 OA
ATOM      2  N   UNL     1      34.524 -22.773 -16.383  0.00  0.00    -0.299 N 
ATOM      3  C   UNL     1      35.049 -23.707 -15.507  0.00  0.00    +0.241 C 
ATOM      4  H   UNL     1      34.563 -21.821 -16.133  0.00  0.00    +0.150 HD
ENDROOT
BRANCH   3   7
ATOM      5  O   UNL     1      34.595 -25.122 -11.414  0.00  0.00    -0.275 OA
ATOM      6  N   UNL     1      35.598 -24.054 -13.201  0.00  0.00    -0.273 N 
ATOM      7  C   UNL     1      35.633 -23.071 -14.282  0.00  0.00    +0.152 C 
ATOM      8  C   UNL     1      37.118 -22.778 -14.482  0.00  0.00    +0.031 C 
ATOM      9  C   UNL     1      37.795 -24.085 -14.075  0.00  0.00    +0.024 C 
ATOM     10  C   UNL     1      36.929 -24.581 -12.929  0.00  0.00    +0.094 C 
ATOM     11  C   UNL     1      34.519 -24.380 -12.397  0.00  0.00    +0.226 C 
BRANCH  11  12
ATOM     12  C   UNL     1      33.195 -23.768 -12.781  0.00  0.00    +0.090 C 
BRANCH  12  13
ATOM     13  C   UNL     1      32.185 -24.852 -13.127  0.00  0.00    +0.036 C 
BRANCH  13  14
ATOM     14  C   UNL     1      31.128 -24.393 -14.102  0.00  0.00    -0.022 C 
ATOM     15  C   UNL     1      29.915 -25.075 -14.187  0.00  0.00    -0.004 C 
ATOM     16  C   UNL     1      31.366 -23.288 -14.919  0.00  0.00    -0.004 C 
ATOM     17  C   UNL     1      28.937 -24.651 -15.088  0.00  0.00    -0.000 C 
ATOM     18  C   UNL     1      30.389 -22.864 -15.820  0.00  0.00    -0.000 C 
ATOM     19  C   UNL     1      29.174 -23.546 -15.905  0.00  0.00    -0.000 C 
ENDBRANCH  13  14
ENDBRANCH  12  13
ENDBRANCH  11  12
ENDBRANCH   3   7
BRANCH   2  20
ATOM     20  C   UNL     1      33.923 -23.126 -17.649  0.00  0.00    +0.116 C 
BRANCH  20  21
ATOM     21  C   UNL     1      34.145 -22.068 -18.691  0.00  0.00    -0.003 C 
ATOM     22  C   UNL     1      35.443 -21.722 -19.067  0.00  0.00    -0.003 C 
ATOM     23  C   UNL     1      33.053 -21.428 -19.280  0.00  0.00    -0.003 C 
ATOM     24  C   UNL     1      35.649 -20.736 -20.033  0.00  0.00    +0.002 C 
ATOM     25  C   UNL     1      33.261 -20.444 -20.246  0.00  0.00    +0.002 C 
ATOM     26  C   UNL     1      34.559 -20.098 -20.622  0.00  0.00    +0.031 C 
BRANCH  26  29
ATOM     27  N   UNL     1      35.256 -17.810 -21.289  0.00  0.00    -0.343 N 
ATOM     28  N   UNL     1      34.509 -19.329 -22.899  0.00  0.00    -0.285 NA
ATOM     29  C   UNL     1      34.775 -19.072 -21.630  0.00  0.00    +0.117 C 
ATOM     30  H   UNL     1      35.394 -17.130 -21.987  0.00  0.00    +0.144 HD
ATOM     31  H   UNL     1      35.456 -17.598 -20.349  0.00  0.00    +0.144 HD
ATOM     32  H   UNL     1      34.654 -18.637 -23.582  0.00  0.00    +0.188 HD
ENDBRANCH  26  29
ENDBRANCH  20  21
ENDBRANCH   2  20
TORSDOF 7
ENDMDL
MODEL 3
REMARK VINA RESULT:     -10.5      9.171     12.602
REMARK  Name = 25113615
REMARK  7 active torsions:
REMARK  status: ('A' for Active; 'I' for Inactive)
REMARK    1  A    between atoms: N_2  and  C_20
REMARK    2  A    between atoms: C_3  and  C_7
REMARK    3  A    between atoms: C_11  and  C_12
REMARK    4  A    between atoms: C_12  and  C_13
REMARK    5  A    between atoms: C_13  and  C_14
REMARK    6  A    between atoms: C_20  and  C_21
REMARK    7  A    between atoms: C_26  and  C_29
REMARK                            x       y       z     vdW  Elec       q    Type
REMARK                         _______ _______ _______ _____ _____    ______ ____
ROOT
ATOM      1  O   UNL     1      34.064 -14.943 -20.786  0.00  0.00    -0.273 OA
ATOM      2  N   UNL     1      32.820 -13.444 -22.060  0.00  0.00    -0.299 N 
ATOM      3  C   UNL     1      33.829 -14.366 -21.845  0.00  0.00    +0.241 C 
ATOM      4  H   UNL     1      32.731 -13.047 -22.956  0.00  0.00    +0.150 HD
ENDROOT
BRANCH   3   7
ATOM      5  O   UNL     1      34.167 -18.176 -23.926  0.00  0.00    -0.275 OA
ATOM      6  N   UNL     1      34.158 -15.879 -23.673  0.00  0.00    -0.273 N 
ATOM      7  C   UNL     1      34.632 -14.629 -23.083  0.00  0.00    +0.152 C 
ATOM      8  C   UNL     1      34.344 -13.573 -24.147  0.00  0.00    +0.031 C 
ATOM      9  C   UNL     1      33.121 -14.126 -24.874  0.00  0.00    +0.024 C 
ATOM     10  C   UNL     1      33.364 -15.627 -24.868  0.00  0.00    +0.094 C 
ATOM     11  C   UNL     1      34.499 -17.168 -23.297  0.00  0.00    +0.226 C 
BRANCH  11  12
ATOM     12  C   UNL     1      35.326 -17.297 -22.043  0.00  0.00    +0.090 C 
BRANCH  12  13
ATOM     13  C   UNL     1      36.042 -18.639 -22.010  0.00  0.00    +0.036 C 
BRANCH  13  14
ATOM     14  C   UNL     1      35.424 -19.622 -21.046  0.00  0.00    -0.022 C 
ATOM     15  C   UNL     1      36.239 -20.402 -20.227  0.00  0.00    -0.004 C 
ATOM     16  C   UNL     1      34.037 -19.750 -20.974  0.00  0.00    -0.004 C 
ATOM     17  C   UNL     1      35.669 -21.311 -19.335  0.00  0.00    -0.000 C 
ATOM     18  C   UNL     1      33.466 -20.659 -20.083  0.00  0.00    -0.000 C 
ATOM     19  C   UNL     1      34.282 -21.439 -19.263  0.00  0.00    -0.000 C 
ENDBRANCH  13  14
ENDBRANCH  12  13
ENDBRANCH  11  12
ENDBRANCH   3   7
BRANCH   2  20
ATOM     20  C   UNL     1      31.891 -13.035 -21.031  0.00  0.00    +0.116 C 
BRANCH  20  21
ATOM     21  C   UNL     1      31.959 -11.558 -20.769  0.00  0.00    -0.003 C 
ATOM     22  C   UNL     1      32.075 -10.666 -21.835  0.00  0.00    -0.003 C 
ATOM     23  C   UNL     1      31.908 -11.078 -19.459  0.00  0.00    -0.003 C 
ATOM     24  C   UNL     1      32.141  -9.294 -21.592  0.00  0.00    +0.002 C 
ATOM     25  C   UNL     1      31.974  -9.706 -19.217  0.00  0.00    +0.002 C 
ATOM     26  C   UNL     1      32.090  -8.814 -20.283  0.00  0.00    +0.031 C 
BRANCH  26  29
ATOM     27  N   UNL     1      31.318  -6.490 -20.693  0.00  0.00    -0.343 N 
ATOM     28  N   UNL     1      33.031  -6.909 -19.160  0.00  0.00    -0.285 NA
ATOM     29  C   UNL     1      32.157  -7.383 -20.031  0.00  0.00    +0.117 C 
ATOM     30  H   UNL     1      31.381  -5.525 -20.507  0.00  0.00    +0.144 HD
ATOM     31  H   UNL     1      30.663  -6.823 -21.348  0.00  0.00    +0.144 HD
ATOM     32  H   UNL     1      33.078  -5.941 -18.988  0.00  0.00    +0.188 HD
ENDBRANCH  26  29
ENDBRANCH  20  21
ENDBRANCH   2  20
TORSDOF 7
ENDMDL
MODEL 4
REMARK VINA RESULT:     -10.0      2.506      5.933
REMARK  Name = 25113615
REMARK  7 active torsions:
REMARK  status: ('A' for Active; 'I' for Inactive)
REMARK    1  A    between atoms: N_2  and  C_20
REMARK    2  A    between atoms: C_3  and  C_7
REMARK    3  A    between atoms: C_11  and  C_12
REMARK    4  A    between atoms: C_12  and  C_13
REMARK    5  A    between atoms: C_13  and  C_14
REMARK    6  A    between atoms: C_20  and  C_21
REMARK    7  A    between atoms: C_26  and  C_29
REMARK                            x       y       z     vdW  Elec       q    Type
REMARK                         _______ _______ _______ _____ _____    ______ ____
ROOT
ATOM      1  O   UNL     1      36.432 -24.651 -14.966  0.00  0.00    -0.273 OA
ATOM      2  N   UNL     1      36.827 -22.393 -15.374  0.00  0.00    -0.299 N 
ATOM      3  C   UNL     1      36.426 -23.475 -14.609  0.00  0.00    +0.241 C 
ATOM      4  H   UNL     1      36.776 -21.493 -14.977  0.00  0.00    +0.150 HD
ENDROOT
BRANCH   3   7
ATOM      5  O   UNL     1      32.844 -24.846 -12.549  0.00  0.00    -0.275 OA
ATOM      6  N   UNL     1      34.997 -24.037 -12.770  0.00  0.00    -0.273 N 
ATOM      7  C   UNL     1      35.986 -23.067 -13.236  0.00  0.00    +0.152 C 
ATOM      8  C   UNL     1      37.137 -23.189 -12.242  0.00  0.00    +0.031 C 
ATOM      9  C   UNL     1      37.060 -24.645 -11.787  0.00  0.00    +0.024 C 
ATOM     10  C   UNL     1      35.566 -24.921 -11.761  0.00  0.00    +0.094 C 
ATOM     11  C   UNL     1      33.649 -24.080 -13.084  0.00  0.00    +0.226 C 
BRANCH  11  12
ATOM     12  C   UNL     1      33.183 -23.113 -14.143  0.00  0.00    +0.090 C 
BRANCH  12  13
ATOM     13  C   UNL     1      32.607 -23.863 -15.336  0.00  0.00    +0.036 C 
BRANCH  13  14
ATOM     14  C   UNL     1      31.102 -23.795 -15.413  0.00  0.00    -0.022 C 
ATOM     15  C   UNL     1      30.326 -24.751 -14.759  0.00  0.00    -0.004 C 
ATOM     16  C   UNL     1      30.486 -22.776 -16.139  0.00  0.00    -0.004 C 
ATOM     17  C   UNL     1      28.934 -24.690 -14.829  0.00  0.00    -0.000 C 
ATOM     18  C   UNL     1      29.094 -22.714 -16.211  0.00  0.00    -0.000 C 
ATOM     19  C   UNL     1      28.318 -23.671 -15.556  0.00  0.00    -0.000 C 
ENDBRANCH  13  14
ENDBRANCH  12  13
ENDBRANCH  11  12
ENDBRANCH   3   7
BRANCH   2  20
ATOM     20  C   UNL     1      37.318 -22.520 -16.727  0.00  0.00    +0.116 C 
BRANCH  20  21
ATOM     21  C   UNL     1      36.347 -21.967 -17.730  0.00  0.00    -0.003 C 
ATOM     22  C   UNL     1      34.998 -22.313 -17.658  0.00  0.00    -0.003 C 
ATOM     23  C   UNL     1      36.795 -21.109 -18.736  0.00  0.00    -0.003 C 
ATOM     24  C   UNL     1      34.096 -21.801 -18.591  0.00  0.00    +0.002 C 
ATOM     25  C   UNL     1      35.892 -20.597 -19.669  0.00  0.00    +0.002 C 
ATOM     26  C   UNL     1      34.543 -20.943 -19.596  0.00  0.00    +0.031 C 
BRANCH  26  29
ATOM     27  N   UNL     1      34.039 -19.732 -21.704  0.00  0.00    -0.343 N 
ATOM     28  N   UNL     1      32.303 -20.559 -20.377  0.00  0.00    -0.285 NA
ATOM     29  C   UNL     1      33.602 -20.409 -20.567  0.00  0.00    +0.117 C 
ATOM     30  H   UNL     1      33.384 -19.377 -22.348  0.00  0.00    +0.144 HD
ATOM     31  H   UNL     1      35.002 -19.607 -21.862  0.00  0.00    +0.144 HD
ATOM     32  H   UNL     1      31.664 -20.197 -21.033  0.00  0.00    +0.188 HD
ENDBRANCH  26  29
ENDBRANCH  20  21
ENDBRANCH   2  20
TORSDOF 7
ENDMDL
MODEL 5
REMARK VINA RESULT:      -9.9      7.934     11.556
REMARK  Name = 25113615
REMARK  7 active torsions:
REMARK  status: ('A' for Active; 'I' for Inactive)
REMARK    1  A    between atoms: N_2  and  C_20
REMARK    2  A    between atoms: C_3  and  C_7
REMARK    3  A    between atoms: C_11  and  C_12
REMARK    4  A    between atoms: C_12  and  C_13
REMARK    5  A    between atoms: C_13  and  C_14
REMARK    6  A    between atoms: C_20  and  C_21
REMARK    7  A    between atoms: C_26  and  C_29
REMARK                            x       y       z     vdW  Elec       q    Type
REMARK                         _______ _______ _______ _____ _____    ______ ____
ROOT
ATOM      1  O   UNL     1      35.654 -15.495 -23.230  0.00  0.00    -0.273 OA
ATOM      2  N   UNL     1      34.557 -17.529 -22.944  0.00  0.00    -0.299 N 
ATOM      3  C   UNL     1      34.647 -16.196 -23.305  0.00  0.00    +0.241 C 
ATOM      4  H   UNL     1      33.691 -17.986 -23.051  0.00  0.00    +0.150 HD
ENDROOT
BRANCH   3   7
ATOM      5  O   UNL     1      33.629 -11.999 -23.862  0.00  0.00    -0.275 OA
ATOM      6  N   UNL     1      33.567 -14.277 -24.248  0.00  0.00    -0.273 N 
ATOM      7  C   UNL     1      33.353 -15.664 -23.842  0.00  0.00    +0.152 C 
ATOM      8  C   UNL     1      32.968 -16.383 -25.132  0.00  0.00    +0.031 C 
ATOM      9  C   UNL     1      33.694 -15.586 -26.213  0.00  0.00    +0.024 C 
ATOM     10  C   UNL     1      33.618 -14.157 -25.699  0.00  0.00    +0.094 C 
ATOM     11  C   UNL     1      33.577 -13.155 -23.435  0.00  0.00    +0.226 C 
BRANCH  11  12
ATOM     12  C   UNL     1      33.517 -13.411 -21.950  0.00  0.00    +0.090 C 
BRANCH  12  13
ATOM     13  C   UNL     1      32.112 -13.160 -21.421  0.00  0.00    +0.036 C 
BRANCH  13  14
ATOM     14  C   UNL     1      31.938 -11.788 -20.817  0.00  0.00    -0.022 C 
ATOM     15  C   UNL     1      31.958 -11.627 -19.432  0.00  0.00    -0.004 C 
ATOM     16  C   UNL     1      31.756 -10.680 -21.645  0.00  0.00    -0.004 C 
ATOM     17  C   UNL     1      31.798 -10.359 -18.874  0.00  0.00    -0.000 C 
ATOM     18  C   UNL     1      31.595  -9.412 -21.087  0.00  0.00    -0.000 C 
ATOM     19  C   UNL     1      31.616  -9.251 -19.702  0.00  0.00    -0.000 C 
ENDBRANCH  13  14
ENDBRANCH  12  13
ENDBRANCH  11  12
ENDBRANCH   3   7
BRANCH   2  20
ATOM     20  C   UNL     1      35.673 -18.283 -22.420  0.00  0.00    +0.116 C 
BRANCH  20  21
ATOM     21  C   UNL     1      35.236 -19.293 -21.398  0.00  0.00    -0.003 C 
ATOM     22  C   UNL     1      33.880 -19.571 -21.228  0.00  0.00    -0.003 C 
ATOM     23  C   UNL     1      36.187 -19.952 -20.616  0.00  0.00    -0.003 C 
ATOM     24  C   UNL     1      33.474 -20.507 -20.277  0.00  0.00    +0.002 C 
ATOM     25  C   UNL     1      35.780 -20.888 -19.666  0.00  0.00    +0.002 C 
ATOM     26  C   UNL     1      34.423 -21.166 -19.496  0.00  0.00    +0.031 C 
BRANCH  26  29
ATOM     27  N   UNL     1      32.653 -22.449 -18.321  0.00  0.00    -0.343 N 
ATOM     28  N   UNL     1      34.900 -22.755 -17.758  0.00  0.00    -0.285 NA
ATOM     29  C   UNL     1      33.999 -22.142 -18.506  0.00  0.00    +0.117 C 
ATOM     30  H   UNL     1      32.388 -23.113 -17.644  0.00  0.00    +0.144 HD
ATOM     31  H   UNL     1      31.966 -22.002 -18.865  0.00  0.00    +0.144 HD
ATOM     32  H   UNL     1      34.615 -23.416 -17.087  0.00  0.00    +0.188 HD
ENDBRANCH  26  29
ENDBRANCH  20  21
ENDBRANCH   2  20
TORSDOF 7
ENDMDL
MODEL 6
REMARK VINA RESULT:      -9.9      3.624      7.379
REMARK  Name = 25113615
REMARK  7 active torsions:
REMARK  status: ('A' for Active; 'I' for Inactive)
REMARK    1  A    between atoms: N_2  and  C_20
REMARK    2  A    between atoms: C_3  and  C_7
REMARK    3  A    between atoms: C_11  and  C_12
REMARK    4  A    between atoms: C_12  and  C_13
REMARK    5  A    between atoms: C_13  and  C_14
REMARK    6  A    between atoms: C_20  and  C_21
REMARK    7  A    between atoms: C_26  and  C_29
REMARK                            x       y       z     vdW  Elec       q    Type
REMARK                         _______ _______ _______ _____ _____    ______ ____
ROOT
ATOM      1  O   UNL     1      34.509 -23.206 -17.354  0.00  0.00    -0.273 OA
ATOM      2  N   UNL     1      36.092 -21.711 -18.180  0.00  0.00    -0.299 N 
ATOM      3  C   UNL     1      35.414 -22.392 -17.183  0.00  0.00    +0.241 C 
ATOM      4  H   UNL     1      36.801 -21.081 -17.918  0.00  0.00    +0.150 HD
ENDROOT
BRANCH   3   7
ATOM      5  O   UNL     1      34.873 -24.770 -13.576  0.00  0.00    -0.275 OA
ATOM      6  N   UNL     1      35.893 -23.267 -15.005  0.00  0.00    -0.273 N 
ATOM      7  C   UNL     1      35.923 -22.052 -15.816  0.00  0.00    +0.152 C 
ATOM      8  C   UNL     1      37.399 -21.666 -15.869  0.00  0.00    +0.031 C 
ATOM      9  C   UNL     1      38.120 -23.008 -15.756  0.00  0.00    +0.024 C 
ATOM     10  C   UNL     1      37.235 -23.797 -14.805  0.00  0.00    +0.094 C 
ATOM     11  C   UNL     1      34.800 -23.816 -14.355  0.00  0.00    +0.226 C 
BRANCH  11  12
ATOM     12  C   UNL     1      33.465 -23.176 -14.643  0.00  0.00    +0.090 C 
BRANCH  12  13
ATOM     13  C   UNL     1      32.435 -23.596 -13.605  0.00  0.00    +0.036 C 
BRANCH  13  14
ATOM     14  C   UNL     1      31.088 -23.926 -14.200  0.00  0.00    -0.022 C 
ATOM     15  C   UNL     1      30.487 -25.154 -13.928  0.00  0.00    -0.004 C 
ATOM     16  C   UNL     1      30.445 -23.002 -15.023  0.00  0.00    -0.004 C 
ATOM     17  C   UNL     1      29.242 -25.460 -14.478  0.00  0.00    -0.000 C 
ATOM     18  C   UNL     1      29.200 -23.307 -15.574  0.00  0.00    -0.000 C 
ATOM     19  C   UNL     1      28.598 -24.536 -15.301  0.00  0.00    -0.000 C 
ENDBRANCH  13  14
ENDBRANCH  12  13
ENDBRANCH  11  12
ENDBRANCH   3   7
BRANCH   2  20
ATOM     20  C   UNL     1      35.807 -21.880 -19.587  0.00  0.00    +0.116 C 
BRANCH  20  21
ATOM     21  C   UNL     1      35.641 -20.562 -20.287  0.00  0.00    -0.003 C 
ATOM     22  C   UNL     1      34.403 -20.213 -20.828  0.00  0.00    -0.003 C 
ATOM     23  C   UNL     1      36.724 -19.689 -20.401  0.00  0.00    -0.003 C 
ATOM     24  C   UNL     1      34.249 -18.990 -21.481  0.00  0.00    +0.002 C 
ATOM     25  C   UNL     1      36.568 -18.467 -21.054  0.00  0.00    +0.002 C 
ATOM     26  C   UNL     1      35.330 -18.117 -21.594  0.00  0.00    +0.031 C 
BRANCH  26  29
ATOM     27  N   UNL     1      34.738 -15.706 -21.591  0.00  0.00    -0.343 N 
ATOM     28  N   UNL     1      35.427 -16.747 -23.566  0.00  0.00    -0.285 NA
ATOM     29  C   UNL     1      35.168 -16.842 -22.274  0.00  0.00    +0.117 C 
ATOM     30  H   UNL     1      34.634 -14.853 -22.072  0.00  0.00    +0.144 HD
ATOM     31  H   UNL     1      34.537 -15.756 -20.629  0.00  0.00    +0.144 HD
ATOM     32  H   UNL     1      35.317 -15.885 -24.028  0.00  0.00    +0.188 HD
ENDBRANCH  26  29
ENDBRANCH  20  21
ENDBRANCH   2  20
TORSDOF 7
ENDMDL
MODEL 7
REMARK VINA RESULT:      -9.5      9.947     13.553
REMARK  Name = 25113615
REMARK  7 active torsions:
REMARK  status: ('A' for Active; 'I' for Inactive)
REMARK    1  A    between atoms: N_2  and  C_20
REMARK    2  A    between atoms: C_3  and  C_7
REMARK    3  A    between atoms: C_11  and  C_12
REMARK    4  A    between atoms: C_12  and  C_13
REMARK    5  A    between atoms: C_13  and  C_14
REMARK    6  A    between atoms: C_20  and  C_21
REMARK    7  A    between atoms: C_26  and  C_29
REMARK                            x       y       z     vdW  Elec       q    Type
REMARK                         _______ _______ _______ _____ _____    ______ ____
ROOT
ATOM      1  O   UNL     1      33.589 -14.488 -21.652  0.00  0.00    -0.273 OA
ATOM      2  N   UNL     1      32.590 -12.655 -22.682  0.00  0.00    -0.299 N 
ATOM      3  C   UNL     1      33.470 -13.721 -22.604  0.00  0.00    +0.241 C 
ATOM      4  H   UNL     1      32.586 -12.109 -23.501  0.00  0.00    +0.150 HD
ENDROOT
BRANCH   3   7
ATOM      5  O   UNL     1      33.244 -17.031 -25.422  0.00  0.00    -0.275 OA
ATOM      6  N   UNL     1      33.632 -14.871 -24.699  0.00  0.00    -0.273 N 
ATOM      7  C   UNL     1      34.285 -13.876 -23.851  0.00  0.00    +0.152 C 
ATOM      8  C   UNL     1      34.257 -12.594 -24.678  0.00  0.00    +0.031 C 
ATOM      9  C   UNL     1      33.000 -12.751 -25.532  0.00  0.00    +0.024 C 
ATOM     10  C   UNL     1      32.969 -14.240 -25.832  0.00  0.00    +0.094 C 
ATOM     11  C   UNL     1      33.713 -16.250 -24.591  0.00  0.00    +0.226 C 
BRANCH  11  12
ATOM     12  C   UNL     1      34.426 -16.780 -23.373  0.00  0.00    +0.090 C 
BRANCH  12  13
ATOM     13  C   UNL     1      34.837 -18.230 -23.583  0.00  0.00    +0.036 C 
BRANCH  13  14
ATOM     14  C   UNL     1      35.291 -18.911 -22.315  0.00  0.00    -0.022 C 
ATOM     15  C   UNL     1      36.606 -18.760 -21.874  0.00  0.00    -0.004 C 
ATOM     16  C   UNL     1      34.396 -19.692 -21.584  0.00  0.00    -0.004 C 
ATOM     17  C   UNL     1      37.026 -19.388 -20.702  0.00  0.00    -0.000 C 
ATOM     18  C   UNL     1      34.816 -20.321 -20.412  0.00  0.00    -0.000 C 
ATOM     19  C   UNL     1      36.131 -20.169 -19.971  0.00  0.00    -0.000 C 
ENDBRANCH  13  14
ENDBRANCH  12  13
ENDBRANCH  11  12
ENDBRANCH   3   7
BRANCH   2  20
ATOM     20  C   UNL     1      31.675 -12.306 -21.619  0.00  0.00    +0.116 C 
BRANCH  20  21
ATOM     21  C   UNL     1      31.833 -10.876 -21.190  0.00  0.00    -0.003 C 
ATOM     22  C   UNL     1      32.200  -9.905 -22.122  0.00  0.00    -0.003 C 
ATOM     23  C   UNL     1      31.617 -10.518 -19.858  0.00  0.00    -0.003 C 
ATOM     24  C   UNL     1      32.350  -8.577 -21.723  0.00  0.00    +0.002 C 
ATOM     25  C   UNL     1      31.767  -9.189 -19.460  0.00  0.00    +0.002 C 
ATOM     26  C   UNL     1      32.133  -8.219 -20.393  0.00  0.00    +0.031 C 
BRANCH  26  29
ATOM     27  N   UNL     1      31.591  -5.806 -20.609  0.00  0.00    -0.343 N 
ATOM     28  N   UNL     1      33.107  -6.531 -18.987  0.00  0.00    -0.285 NA
ATOM     29  C   UNL     1      32.288  -6.834 -19.978  0.00  0.00    +0.117 C 
ATOM     30  H   UNL     1      31.712  -4.875 -20.313  0.00  0.00    +0.144 HD
ATOM     31  H   UNL     1      30.979  -6.010 -21.352  0.00  0.00    +0.144 HD
ATOM     32  H   UNL     1      33.214  -5.595 -18.705  0.00  0.00    +0.188 HD
ENDBRANCH  26  29
ENDBRANCH  20  21
ENDBRANCH   2  20
TORSDOF 7
ENDMDL
MODEL 8
REMARK VINA RESULT:      -9.5     12.325     15.813
REMARK  Name = 25113615
REMARK  7 active torsions:
REMARK  status: ('A' for Active; 'I' for Inactive)
REMARK    1  A    between atoms: N_2  and  C_20
REMARK    2  A    between atoms: C_3  and  C_7
REMARK    3  A    between atoms: C_11  and  C_12
REMARK    4  A    between atoms: C_12  and  C_13
REMARK    5  A    between atoms: C_13  and  C_14
REMARK    6  A    between atoms: C_20  and  C_21
REMARK    7  A    between atoms: C_26  and  C_29
REMARK                            x       y       z     vdW  Elec       q    Type
REMARK                         _______ _______ _______ _____ _____    ______ ____
ROOT
ATOM      1  O   UNL     1      33.603 -11.274 -23.440  0.00  0.00    -0.273 OA
ATOM      2  N   UNL     1      32.531  -9.510 -22.362  0.00  0.00    -0.299 N 
ATOM      3  C   UNL     1      32.719 -10.838 -22.706  0.00  0.00    +0.241 C 
ATOM      4  H   UNL     1      31.783  -9.283 -21.763  0.00  0.00    +0.150 HD
ENDROOT
BRANCH   3   7
ATOM      5  O   UNL     1      33.601 -14.475 -20.481  0.00  0.00    -0.275 OA
ATOM      6  N   UNL     1      32.422 -12.584 -21.093  0.00  0.00    -0.273 N 
ATOM      7  C   UNL     1      31.715 -11.741 -22.055  0.00  0.00    +0.152 C 
ATOM      8  C   UNL     1      30.735 -10.935 -21.207  0.00  0.00    +0.031 C 
ATOM      9  C   UNL     1      31.443 -10.821 -19.859  0.00  0.00    +0.024 C 
ATOM     10  C   UNL     1      32.153 -12.159 -19.726  0.00  0.00    +0.094 C 
ATOM     11  C   UNL     1      33.143 -13.737 -21.357  0.00  0.00    +0.226 C 
BRANCH  11  12
ATOM     12  C   UNL     1      33.351 -14.071 -22.812  0.00  0.00    +0.090 C 
BRANCH  12  13
ATOM     13  C   UNL     1      34.702 -14.741 -23.019  0.00  0.00    +0.036 C 
BRANCH  13  14
ATOM     14  C   UNL     1      34.600 -16.228 -23.261  0.00  0.00    -0.022 C 
ATOM     15  C   UNL     1      34.004 -16.705 -24.427  0.00  0.00    -0.004 C 
ATOM     16  C   UNL     1      35.101 -17.123 -22.317  0.00  0.00    -0.004 C 
ATOM     17  C   UNL     1      33.909 -18.079 -24.651  0.00  0.00    -0.000 C 
ATOM     18  C   UNL     1      35.007 -18.497 -22.540  0.00  0.00    -0.000 C 
ATOM     19  C   UNL     1      34.410 -18.975 -23.707  0.00  0.00    -0.000 C 
ENDBRANCH  13  14
ENDBRANCH  12  13
ENDBRANCH  11  12
ENDBRANCH   3   7
BRANCH   2  20
ATOM     20  C   UNL     1      33.380  -8.443 -22.839  0.00  0.00    +0.116 C 
BRANCH  20  21
ATOM     21  C   UNL     1      32.646  -7.134 -22.915  0.00  0.00    -0.003 C 
ATOM     22  C   UNL     1      31.542  -6.906 -22.094  0.00  0.00    -0.003 C 
ATOM     23  C   UNL     1      33.066  -6.148 -23.809  0.00  0.00    -0.003 C 
ATOM     24  C   UNL     1      30.858  -5.692 -22.166  0.00  0.00    +0.002 C 
ATOM     25  C   UNL     1      32.383  -4.935 -23.880  0.00  0.00    +0.002 C 
ATOM     26  C   UNL     1      31.279  -4.707 -23.058  0.00  0.00    +0.031 C 
BRANCH  26  29
ATOM     27  N   UNL     1      30.143  -2.779 -21.981  0.00  0.00    -0.343 N 
ATOM     28  N   UNL     1      30.307  -2.899 -24.309  0.00  0.00    -0.285 NA
ATOM     29  C   UNL     1      30.567  -3.441 -23.132  0.00  0.00    +0.117 C 
ATOM     30  H   UNL     1      29.662  -1.924 -22.054  0.00  0.00    +0.144 HD
ATOM     31  H   UNL     1      30.324  -3.168 -21.095  0.00  0.00    +0.144 HD
ATOM     32  H   UNL     1      29.825  -2.043 -24.361  0.00  0.00    +0.188 HD
ENDBRANCH  26  29
ENDBRANCH  20  21
ENDBRANCH   2  20
TORSDOF 7
ENDMDL
MODEL 9
REMARK VINA RESULT:      -9.2     14.577     18.316
REMARK  Name = 25113615
REMARK  7 active torsions:
REMARK  status: ('A' for Active; 'I' for Inactive)
REMARK    1  A    between atoms: N_2  and  C_20
REMARK    2  A    between atoms: C_3  and  C_7
REMARK    3  A    between atoms: C_11  and  C_12
REMARK    4  A    between atoms: C_12  and  C_13
REMARK    5  A    between atoms: C_13  and  C_14
REMARK    6  A    between atoms: C_20  and  C_21
REMARK    7  A    between atoms: C_26  and  C_29
REMARK                            x       y       z     vdW  Elec       q    Type
REMARK                         _______ _______ _______ _____ _____    ______ ____
ROOT
ATOM      1  O   UNL     1      33.106  -9.406 -23.107  0.00  0.00    -0.273 OA
ATOM      2  N   UNL     1      33.377  -7.105 -22.874  0.00  0.00    -0.299 N 
ATOM      3  C   UNL     1      32.738  -8.316 -22.673  0.00  0.00    +0.241 C 
ATOM      4  H   UNL     1      32.984  -6.295 -22.475  0.00  0.00    +0.150 HD
ENDROOT
BRANCH   3   7
ATOM      5  O   UNL     1      31.954 -10.423 -18.945  0.00  0.00    -0.275 OA
ATOM      6  N   UNL     1      31.819  -8.717 -20.497  0.00  0.00    -0.273 N 
ATOM      7  C   UNL     1      31.513  -8.177 -21.820  0.00  0.00    +0.152 C 
ATOM      8  C   UNL     1      31.196  -6.706 -21.567  0.00  0.00    +0.031 C 
ATOM      9  C   UNL     1      32.037  -6.368 -20.338  0.00  0.00    +0.024 C 
ATOM     10  C   UNL     1      31.987  -7.649 -19.521  0.00  0.00    +0.094 C 
ATOM     11  C   UNL     1      31.818 -10.047 -20.112  0.00  0.00    +0.226 C 
BRANCH  11  12
ATOM     12  C   UNL     1      31.633 -11.058 -21.215  0.00  0.00    +0.090 C 
BRANCH  12  13
ATOM     13  C   UNL     1      31.734 -12.474 -20.666  0.00  0.00    +0.036 C 
BRANCH  13  14
ATOM     14  C   UNL     1      32.709 -13.341 -21.427  0.00  0.00    -0.022 C 
ATOM     15  C   UNL     1      33.608 -14.151 -20.735  0.00  0.00    -0.004 C 
ATOM     16  C   UNL     1      32.710 -13.330 -22.821  0.00  0.00    -0.004 C 
ATOM     17  C   UNL     1      34.509 -14.953 -21.437  0.00  0.00    -0.000 C 
ATOM     18  C   UNL     1      33.610 -14.131 -23.523  0.00  0.00    -0.000 C 
ATOM     19  C   UNL     1      34.510 -14.942 -22.831  0.00  0.00    -0.000 C 
ENDBRANCH  13  14
ENDBRANCH  12  13
ENDBRANCH  11  12
ENDBRANCH   3   7
BRANCH   2  20
ATOM     20  C   UNL     1      34.593  -6.971 -23.643  0.00  0.00    +0.116 C 
BRANCH  20  21
ATOM     21  C   UNL     1      34.465  -5.932 -24.719  0.00  0.00    -0.003 C 
ATOM     22  C   UNL     1      35.563  -5.624 -25.524  0.00  0.00    -0.003 C 
ATOM     23  C   UNL     1      33.251  -5.273 -24.914  0.00  0.00    -0.003 C 
ATOM     24  C   UNL     1      35.445  -4.656 -26.522  0.00  0.00    +0.002 C 
ATOM     25  C   UNL     1      33.134  -4.307 -25.913  0.00  0.00    +0.002 C 
ATOM     26  C   UNL     1      34.231  -3.998 -26.717  0.00  0.00    +0.031 C 
BRANCH  26  29
ATOM     27  N   UNL     1      35.234  -2.422 -28.352  0.00  0.00    -0.343 N 
ATOM     28  N   UNL     1      32.912  -2.598 -28.157  0.00  0.00    -0.285 NA
ATOM     29  C   UNL     1      34.109  -2.992 -27.759  0.00  0.00    +0.117 C 
ATOM     30  H   UNL     1      35.128  -1.741 -29.055  0.00  0.00    +0.144 HD
ATOM     31  H   UNL     1      36.134  -2.698 -28.067  0.00  0.00    +0.144 HD
ATOM     32  H   UNL     1      32.828  -1.917 -28.862  0.00  0.00    +0.188 HD
ENDBRANCH  26  29
ENDBRANCH  20  21
ENDBRANCH   2  20
TORSDOF 7
ENDMDL
