MODEL 1
REMARK VINA RESULT:     -12.2      0.000      0.000
REMARK  Name = 17748441
REMARK  5 active torsions:
REMARK  status: ('A' for Active; 'I' for Inactive)
REMARK    1  A    between atoms: C_2  and  N_10
REMARK    2  A    between atoms: C_3  and  O_24
REMARK    3  A    between atoms: C_12  and  C_16
REMARK    4  A    between atoms: C_16  and  C_18
REMARK    5  A    between atoms: O_24  and  C_27
REMARK                            x       y       z     vdW  Elec       q    Type
REMARK                         _______ _______ _______ _____ _____    ______ ____
ROOT
ATOM      1  F   UNL     1      33.966 -23.818 -16.122  0.00  0.00    -0.201 F 
ATOM      2  C   UNL     1      36.080 -21.548 -18.022  0.00  0.00    +0.054 C 
ATOM      3  C   UNL     1      36.102 -22.928 -15.598  0.00  0.00    +0.173 C 
ATOM      4  C   UNL     1      34.997 -22.354 -17.668  0.00  0.00    +0.047 C 
ATOM      5  C   UNL     1      37.173 -21.433 -17.163  0.00  0.00    +0.018 C 
ATOM      6  C   UNL     1      35.009 -23.044 -16.456  0.00  0.00    +0.176 C 
ATOM      7  C   UNL     1      37.183 -22.122 -15.951  0.00  0.00    +0.041 C 
ENDROOT
BRANCH   2  10
ATOM      8  O   UNL     1      33.330 -19.542 -22.266  0.00  0.00    -0.274 OA
ATOM      9  O   UNL     1      33.796 -20.852 -19.843  0.00  0.00    -0.252 OA
ATOM     10  N   UNL     1      36.069 -20.847 -19.251  0.00  0.00    -0.268 N 
ATOM     11  N   UNL     1      35.384 -19.837 -21.201  0.00  0.00    -0.239 N 
ATOM     12  C   UNL     1      34.547 -19.382 -22.223  0.00  0.00    +0.234 C 
ATOM     13  C   UNL     1      34.967 -20.552 -20.060  0.00  0.00    +0.310 C 
ATOM     14  H   UNL     1      36.943 -20.531 -19.576  0.00  0.00    +0.156 HD
ATOM     15  H   UNL     1      36.346 -19.644 -21.285  0.00  0.00    +0.159 HD
BRANCH  12  16
ATOM     16  C   UNL     1      35.334 -18.652 -23.294  0.00  0.00    +0.112 C 
BRANCH  16  18
ATOM     17  F   UNL     1      33.276 -13.544 -24.484  0.00  0.00    -0.204 F 
ATOM     18  C   UNL     1      34.785 -17.287 -23.613  0.00  0.00    -0.013 C 
ATOM     19  C   UNL     1      34.934 -16.245 -22.698  0.00  0.00    -0.001 C 
ATOM     20  C   UNL     1      34.125 -17.064 -24.822  0.00  0.00    -0.001 C 
ATOM     21  C   UNL     1      34.424 -14.980 -22.993  0.00  0.00    +0.029 C 
ATOM     22  C   UNL     1      33.615 -15.800 -25.116  0.00  0.00    +0.029 C 
ATOM     23  C   UNL     1      33.765 -14.757 -24.202  0.00  0.00    +0.140 C 
ENDBRANCH  16  18
ENDBRANCH  12  16
ENDBRANCH   2  10
BRANCH   3  24
ATOM     24  O   UNL     1      36.112 -23.600 -14.414  0.00  0.00    -0.451 OA
BRANCH  24  27
ATOM     25  N   UNL     1      38.145 -27.249 -14.267  0.00  0.00    -0.229 NA
ATOM     26  N   UNL     1      40.128 -26.100 -13.612  0.00  0.00    -0.343 N 
ATOM     27  C   UNL     1      36.786 -24.808 -14.365  0.00  0.00    +0.150 C 
ATOM     28  C   UNL     1      38.130 -24.845 -14.010  0.00  0.00    +0.071 C 
ATOM     29  C   UNL     1      36.122 -25.990 -14.671  0.00  0.00    +0.058 C 
ATOM     30  C   UNL     1      38.758 -26.080 -13.976  0.00  0.00    +0.128 C 
ATOM     31  C   UNL     1      36.840 -27.174 -14.608  0.00  0.00    +0.103 C 
ATOM     32  H   UNL     1      40.614 -26.955 -13.575  0.00  0.00    +0.144 HD
ATOM     33  H   UNL     1      40.592 -25.259 -13.397  0.00  0.00    +0.144 HD
ENDBRANCH  24  27
ENDBRANCH   3  24
TORSDOF 5
ENDMDL
MODEL 2
REMARK VINA RESULT:     -12.1      2.989      4.250
REMARK  Name = 17748441
REMARK  5 active torsions:
REMARK  status: ('A' for Active; 'I' for Inactive)
REMARK    1  A    between atoms: C_2  and  N_10
REMARK    2  A    between atoms: C_3  and  O_24
REMARK    3  A    between atoms: C_12  and  C_16
REMARK    4  A    between atoms: C_16  and  C_18
REMARK    5  A    between atoms: O_24  and  C_27
REMARK                            x       y       z     vdW  Elec       q    Type
REMARK                         _______ _______ _______ _____ _____    ______ ____
ROOT
ATOM      1  F   UNL     1      36.624 -22.247 -18.608  0.00  0.00    -0.201 F 
ATOM      2  C   UNL     1      34.459 -19.961 -20.430  0.00  0.00    +0.054 C 
ATOM      3  C   UNL     1      34.273 -22.302 -18.924  0.00  0.00    +0.173 C 
ATOM      4  C   UNL     1      35.609 -20.533 -19.884  0.00  0.00    +0.047 C 
ATOM      5  C   UNL     1      33.217 -20.561 -20.223  0.00  0.00    +0.018 C 
ATOM      6  C   UNL     1      35.515 -21.703 -19.131  0.00  0.00    +0.176 C 
ATOM      7  C   UNL     1      33.124 -21.732 -19.470  0.00  0.00    +0.041 C 
ENDROOT
BRANCH   2  10
ATOM      8  O   UNL     1      34.511 -17.479 -25.270  0.00  0.00    -0.274 OA
ATOM      9  O   UNL     1      34.369 -19.552 -23.403  0.00  0.00    -0.252 OA
ATOM     10  N   UNL     1      34.553 -18.775 -21.194  0.00  0.00    -0.268 N 
ATOM     11  N   UNL     1      34.634 -17.289 -22.949  0.00  0.00    -0.239 N 
ATOM     12  C   UNL     1      34.630 -16.796 -24.256  0.00  0.00    +0.234 C 
ATOM     13  C   UNL     1      34.504 -18.645 -22.586  0.00  0.00    +0.310 C 
ATOM     14  H   UNL     1      34.667 -17.940 -20.684  0.00  0.00    +0.156 HD
ATOM     15  H   UNL     1      34.738 -16.635 -22.220  0.00  0.00    +0.159 HD
BRANCH  12  16
ATOM     16  C   UNL     1      34.793 -15.288 -24.276  0.00  0.00    +0.112 C 
BRANCH  16  18
ATOM     17  F   UNL     1      32.106 -12.697 -20.055  0.00  0.00    -0.204 F 
ATOM     18  C   UNL     1      34.075 -14.596 -23.148  0.00  0.00    -0.013 C 
ATOM     19  C   UNL     1      33.013 -13.735 -23.422  0.00  0.00    -0.001 C 
ATOM     20  C   UNL     1      34.472 -14.815 -21.828  0.00  0.00    -0.001 C 
ATOM     21  C   UNL     1      32.347 -13.094 -22.377  0.00  0.00    +0.029 C 
ATOM     22  C   UNL     1      33.808 -14.173 -20.784  0.00  0.00    +0.029 C 
ATOM     23  C   UNL     1      32.745 -13.313 -21.057  0.00  0.00    +0.140 C 
ENDBRANCH  16  18
ENDBRANCH  12  16
ENDBRANCH   2  10
BRANCH   3  24
ATOM     24  O   UNL     1      34.183 -23.446 -18.191  0.00  0.00    -0.451 OA
BRANCH  24  27
ATOM     25  N   UNL     1      32.812 -23.124 -14.255  0.00  0.00    -0.229 NA
ATOM     26  N   UNL     1      35.066 -23.178 -13.482  0.00  0.00    -0.343 N 
ATOM     27  C   UNL     1      33.729 -23.339 -16.887  0.00  0.00    +0.150 C 
ATOM     28  C   UNL     1      34.635 -23.312 -15.832  0.00  0.00    +0.071 C 
ATOM     29  C   UNL     1      32.366 -23.259 -16.627  0.00  0.00    +0.058 C 
ATOM     30  C   UNL     1      34.130 -23.204 -14.546  0.00  0.00    +0.128 C 
ATOM     31  C   UNL     1      31.962 -23.153 -15.305  0.00  0.00    +0.103 C 
ATOM     32  H   UNL     1      34.752 -23.102 -12.553  0.00  0.00    +0.144 HD
ATOM     33  H   UNL     1      36.030 -23.236 -13.673  0.00  0.00    +0.144 HD
ENDBRANCH  24  27
ENDBRANCH   3  24
TORSDOF 5
ENDMDL
MODEL 3
REMARK VINA RESULT:     -12.0      1.302      1.581
REMARK  Name = 17748441
REMARK  5 active torsions:
REMARK  status: ('A' for Active; 'I' for Inactive)
REMARK    1  A    between atoms: C_2  and  N_10
REMARK    2  A    between atoms: C_3  and  O_24
REMARK    3  A    between atoms: C_12  and  C_16
REMARK    4  A    between atoms: C_16  and  C_18
REMARK    5  A    between atoms: O_24  and  C_27
REMARK                            x       y       z     vdW  Elec       q    Type
REMARK                         _______ _______ _______ _____ _____    ______ ____
ROOT
ATOM      1  F   UNL     1      37.944 -22.200 -15.850  0.00  0.00    -0.201 F 
ATOM      2  C   UNL     1      35.168 -21.861 -18.175  0.00  0.00    +0.054 C 
ATOM      3  C   UNL     1      35.717 -23.003 -15.690  0.00  0.00    +0.173 C 
ATOM      4  C   UNL     1      36.443 -21.746 -17.621  0.00  0.00    +0.047 C 
ATOM      5  C   UNL     1      34.169 -22.548 -17.487  0.00  0.00    +0.018 C 
ATOM      6  C   UNL     1      36.717 -22.316 -16.378  0.00  0.00    +0.176 C 
ATOM      7  C   UNL     1      34.443 -23.119 -16.244  0.00  0.00    +0.041 C 
ENDROOT
BRANCH   2  10
ATOM      8  O   UNL     1      36.636 -18.616 -22.287  0.00  0.00    -0.274 OA
ATOM      9  O   UNL     1      36.789 -19.961 -19.844  0.00  0.00    -0.252 OA
ATOM     10  N   UNL     1      34.890 -21.282 -19.436  0.00  0.00    -0.268 N 
ATOM     11  N   UNL     1      35.046 -20.058 -21.377  0.00  0.00    -0.239 N 
ATOM     12  C   UNL     1      35.556 -19.195 -22.351  0.00  0.00    +0.234 C 
ATOM     13  C   UNL     1      35.687 -20.399 -20.169  0.00  0.00    +0.310 C 
ATOM     14  H   UNL     1      34.029 -21.532 -19.845  0.00  0.00    +0.156 HD
ATOM     15  H   UNL     1      34.163 -20.461 -21.548  0.00  0.00    +0.159 HD
BRANCH  12  16
ATOM     16  C   UNL     1      34.598 -19.056 -23.519  0.00  0.00    +0.112 C 
BRANCH  16  18
ATOM     17  F   UNL     1      33.464 -13.700 -24.850  0.00  0.00    -0.204 F 
ATOM     18  C   UNL     1      34.295 -17.625 -23.875  0.00  0.00    -0.013 C 
ATOM     19  C   UNL     1      34.777 -16.591 -23.074  0.00  0.00    -0.001 C 
ATOM     20  C   UNL     1      33.532 -17.333 -25.006  0.00  0.00    -0.001 C 
ATOM     21  C   UNL     1      34.496 -15.264 -23.403  0.00  0.00    +0.029 C 
ATOM     22  C   UNL     1      33.250 -16.008 -25.335  0.00  0.00    +0.029 C 
ATOM     23  C   UNL     1      33.733 -14.972 -24.534  0.00  0.00    +0.140 C 
ENDBRANCH  16  18
ENDBRANCH  12  16
ENDBRANCH   2  10
BRANCH   3  24
ATOM     24  O   UNL     1      35.986 -23.562 -14.478  0.00  0.00    -0.451 OA
BRANCH  24  27
ATOM     25  N   UNL     1      38.062 -27.189 -14.428  0.00  0.00    -0.229 NA
ATOM     26  N   UNL     1      39.989 -26.057 -13.602  0.00  0.00    -0.343 N 
ATOM     27  C   UNL     1      36.674 -24.763 -14.462  0.00  0.00    +0.150 C 
ATOM     28  C   UNL     1      37.997 -24.805 -14.036  0.00  0.00    +0.071 C 
ATOM     29  C   UNL     1      36.045 -25.933 -14.871  0.00  0.00    +0.058 C 
ATOM     30  C   UNL     1      38.641 -26.032 -14.038  0.00  0.00    +0.128 C 
ATOM     31  C   UNL     1      36.776 -27.110 -14.836  0.00  0.00    +0.103 C 
ATOM     32  H   UNL     1      40.485 -26.907 -13.587  0.00  0.00    +0.144 HD
ATOM     33  H   UNL     1      40.429 -25.224 -13.313  0.00  0.00    +0.144 HD
ENDBRANCH  24  27
ENDBRANCH   3  24
TORSDOF 5
ENDMDL
MODEL 4
REMARK VINA RESULT:     -11.9      5.423     12.729
REMARK  Name = 17748441
REMARK  5 active torsions:
REMARK  status: ('A' for Active; 'I' for Inactive)
REMARK    1  A    between atoms: C_2  and  N_10
REMARK    2  A    between atoms: C_3  and  O_24
REMARK    3  A    between atoms: C_12  and  C_16
REMARK    4  A    between atoms: C_16  and  C_18
REMARK    5  A    between atoms: O_24  and  C_27
REMARK                            x       y       z     vdW  Elec       q    Type
REMARK                         _______ _______ _______ _____ _____    ______ ____
ROOT
ATOM      1  F   UNL     1      33.353 -11.126 -23.828  0.00  0.00    -0.201 F 
ATOM      2  C   UNL     1      33.493 -13.840 -21.411  0.00  0.00    +0.054 C 
ATOM      3  C   UNL     1      32.031 -11.515 -21.897  0.00  0.00    +0.173 C 
ATOM      4  C   UNL     1      33.792 -13.046 -22.518  0.00  0.00    +0.047 C 
ATOM      5  C   UNL     1      32.462 -13.471 -20.547  0.00  0.00    +0.018 C 
ATOM      6  C   UNL     1      33.061 -11.884 -22.761  0.00  0.00    +0.176 C 
ATOM      7  C   UNL     1      31.731 -12.308 -20.790  0.00  0.00    +0.041 C 
ENDROOT
BRANCH   2  10
ATOM      8  O   UNL     1      35.760 -18.438 -23.234  0.00  0.00    -0.274 OA
ATOM      9  O   UNL     1      34.349 -16.027 -23.283  0.00  0.00    -0.252 OA
ATOM     10  N   UNL     1      34.234 -15.020 -21.164  0.00  0.00    -0.268 N 
ATOM     11  N   UNL     1      35.339 -17.019 -21.430  0.00  0.00    -0.239 N 
ATOM     12  C   UNL     1      35.865 -18.161 -22.042  0.00  0.00    +0.234 C 
ATOM     13  C   UNL     1      34.605 -16.008 -22.081  0.00  0.00    +0.310 C 
ATOM     14  H   UNL     1      34.523 -15.161 -20.233  0.00  0.00    +0.156 HD
ATOM     15  H   UNL     1      35.493 -16.914 -20.463  0.00  0.00    +0.159 HD
BRANCH  12  16
ATOM     16  C   UNL     1      36.595 -19.035 -21.040  0.00  0.00    +0.112 C 
BRANCH  16  18
ATOM     17  F   UNL     1      33.239 -22.750 -18.455  0.00  0.00    -0.204 F 
ATOM     18  C   UNL     1      35.698 -20.027 -20.349  0.00  0.00    -0.013 C 
ATOM     19  C   UNL     1      36.246 -20.991 -19.503  0.00  0.00    -0.001 C 
ATOM     20  C   UNL     1      34.319 -19.984 -20.555  0.00  0.00    -0.001 C 
ATOM     21  C   UNL     1      35.415 -21.911 -18.863  0.00  0.00    +0.029 C 
ATOM     22  C   UNL     1      33.489 -20.904 -19.917  0.00  0.00    +0.029 C 
ATOM     23  C   UNL     1      34.036 -21.868 -19.069  0.00  0.00    +0.140 C 
ENDBRANCH  16  18
ENDBRANCH  12  16
ENDBRANCH   2  10
BRANCH   3  24
ATOM     24  O   UNL     1      31.318 -10.379 -22.133  0.00  0.00    -0.451 OA
BRANCH  24  27
ATOM     25  N   UNL     1      33.256  -6.719 -21.566  0.00  0.00    -0.229 NA
ATOM     26  N   UNL     1      33.120  -7.029 -19.208  0.00  0.00    -0.343 N 
ATOM     27  C   UNL     1      31.960  -9.166 -21.945  0.00  0.00    +0.150 C 
ATOM     28  C   UNL     1      32.218  -8.705 -20.659  0.00  0.00    +0.071 C 
ATOM     29  C   UNL     1      32.349  -8.406 -23.041  0.00  0.00    +0.058 C 
ATOM     30  C   UNL     1      32.864  -7.486 -20.525  0.00  0.00    +0.128 C 
ATOM     31  C   UNL     1      32.989  -7.200 -22.801  0.00  0.00    +0.103 C 
ATOM     32  H   UNL     1      33.576  -6.169 -19.065  0.00  0.00    +0.144 HD
ATOM     33  H   UNL     1      32.842  -7.573 -18.435  0.00  0.00    +0.144 HD
ENDBRANCH  24  27
ENDBRANCH   3  24
TORSDOF 5
ENDMDL
MODEL 5
REMARK VINA RESULT:     -11.7      5.289     12.557
REMARK  Name = 17748441
REMARK  5 active torsions:
REMARK  status: ('A' for Active; 'I' for Inactive)
REMARK    1  A    between atoms: C_2  and  N_10
REMARK    2  A    between atoms: C_3  and  O_24
REMARK    3  A    between atoms: C_12  and  C_16
REMARK    4  A    between atoms: C_16  and  C_18
REMARK    5  A    between atoms: O_24  and  C_27
REMARK                            x       y       z     vdW  Elec       q    Type
REMARK                         _______ _______ _______ _____ _____    ______ ____
ROOT
ATOM      1  F   UNL     1      31.167 -11.963 -20.162  0.00  0.00    -0.201 F 
ATOM      2  C   UNL     1      33.748 -14.124 -21.539  0.00  0.00    +0.054 C 
ATOM      3  C   UNL     1      32.430 -11.745 -22.159  0.00  0.00    +0.173 C 
ATOM      4  C   UNL     1      32.767 -13.626 -20.682  0.00  0.00    +0.047 C 
ATOM      5  C   UNL     1      34.069 -13.431 -22.707  0.00  0.00    +0.018 C 
ATOM      6  C   UNL     1      32.108 -12.437 -20.991  0.00  0.00    +0.176 C 
ATOM      7  C   UNL     1      33.410 -12.242 -23.017  0.00  0.00    +0.041 C 
ENDROOT
BRANCH   2  10
ATOM      8  O   UNL     1      35.831 -18.892 -23.125  0.00  0.00    -0.274 OA
ATOM      9  O   UNL     1      34.553 -16.415 -23.305  0.00  0.00    -0.252 OA
ATOM     10  N   UNL     1      34.417 -15.331 -21.226  0.00  0.00    -0.268 N 
ATOM     11  N   UNL     1      35.422 -17.393 -21.386  0.00  0.00    -0.239 N 
ATOM     12  C   UNL     1      35.908 -18.581 -21.940  0.00  0.00    +0.234 C 
ATOM     13  C   UNL     1      34.767 -16.368 -22.096  0.00  0.00    +0.310 C 
ATOM     14  H   UNL     1      34.664 -15.455 -20.281  0.00  0.00    +0.156 HD
ATOM     15  H   UNL     1      35.547 -17.263 -20.417  0.00  0.00    +0.159 HD
BRANCH  12  16
ATOM     16  C   UNL     1      36.555 -19.456 -20.883  0.00  0.00    +0.112 C 
BRANCH  16  18
ATOM     17  F   UNL     1      32.882 -22.753 -18.165  0.00  0.00    -0.204 F 
ATOM     18  C   UNL     1      35.573 -20.337 -20.156  0.00  0.00    -0.013 C 
ATOM     19  C   UNL     1      36.031 -21.279 -19.236  0.00  0.00    -0.001 C 
ATOM     20  C   UNL     1      34.206 -20.211 -20.404  0.00  0.00    -0.001 C 
ATOM     21  C   UNL     1      35.122 -22.096 -18.563  0.00  0.00    +0.029 C 
ATOM     22  C   UNL     1      33.297 -21.028 -19.732  0.00  0.00    +0.029 C 
ATOM     23  C   UNL     1      33.754 -21.970 -18.810  0.00  0.00    +0.140 C 
ENDBRANCH  16  18
ENDBRANCH  12  16
ENDBRANCH   2  10
BRANCH   3  24
ATOM     24  O   UNL     1      31.785 -10.585 -22.462  0.00  0.00    -0.451 OA
BRANCH  24  27
ATOM     25  N   UNL     1      33.558  -7.001 -21.243  0.00  0.00    -0.229 NA
ATOM     26  N   UNL     1      34.806  -6.946 -23.272  0.00  0.00    -0.343 N 
ATOM     27  C   UNL     1      32.373  -9.397 -22.058  0.00  0.00    +0.150 C 
ATOM     28  C   UNL     1      33.302  -8.765 -22.876  0.00  0.00    +0.071 C 
ATOM     29  C   UNL     1      32.036  -8.833 -20.834  0.00  0.00    +0.058 C 
ATOM     30  C   UNL     1      33.861  -7.579 -22.427  0.00  0.00    +0.128 C 
ATOM     31  C   UNL     1      32.651  -7.644 -20.475  0.00  0.00    +0.103 C 
ATOM     32  H   UNL     1      35.228  -6.102 -22.993  0.00  0.00    +0.144 HD
ATOM     33  H   UNL     1      35.041  -7.351 -24.139  0.00  0.00    +0.144 HD
ENDBRANCH  24  27
ENDBRANCH   3  24
TORSDOF 5
ENDMDL
MODEL 6
REMARK VINA RESULT:     -11.5      4.447     10.052
REMARK  Name = 17748441
REMARK  5 active torsions:
REMARK  status: ('A' for Active; 'I' for Inactive)
REMARK    1  A    between atoms: C_2  and  N_10
REMARK    2  A    between atoms: C_3  and  O_24
REMARK    3  A    between atoms: C_12  and  C_16
REMARK    4  A    between atoms: C_16  and  C_18
REMARK    5  A    between atoms: O_24  and  C_27
REMARK                            x       y       z     vdW  Elec       q    Type
REMARK                         _______ _______ _______ _____ _____    ______ ____
ROOT
ATOM      1  F   UNL     1      36.956 -21.476 -19.739  0.00  0.00    -0.201 F 
ATOM      2  C   UNL     1      33.436 -21.711 -18.855  0.00  0.00    +0.054 C 
ATOM      3  C   UNL     1      35.088 -20.290 -20.596  0.00  0.00    +0.173 C 
ATOM      4  C   UNL     1      34.810 -21.950 -18.863  0.00  0.00    +0.047 C 
ATOM      5  C   UNL     1      32.888 -20.761 -19.717  0.00  0.00    +0.018 C 
ATOM      6  C   UNL     1      35.636 -21.240 -19.735  0.00  0.00    +0.176 C 
ATOM      7  C   UNL     1      33.715 -20.050 -20.587  0.00  0.00    +0.041 C 
ENDROOT
BRANCH   2  10
ATOM      8  O   UNL     1      32.713 -24.315 -14.133  0.00  0.00    -0.274 OA
ATOM      9  O   UNL     1      34.008 -22.875 -16.146  0.00  0.00    -0.252 OA
ATOM     10  N   UNL     1      32.597 -22.431 -17.971  0.00  0.00    -0.268 N 
ATOM     11  N   UNL     1      31.802 -23.601 -16.158  0.00  0.00    -0.239 N 
ATOM     12  C   UNL     1      31.768 -24.237 -14.914  0.00  0.00    +0.234 C 
ATOM     13  C   UNL     1      32.922 -22.952 -16.715  0.00  0.00    +0.310 C 
ATOM     14  H   UNL     1      31.674 -22.584 -18.280  0.00  0.00    +0.156 HD
ATOM     15  H   UNL     1      30.974 -23.610 -16.692  0.00  0.00    +0.159 HD
BRANCH  12  16
ATOM     16  C   UNL     1      30.400 -24.831 -14.636  0.00  0.00    +0.112 C 
BRANCH  16  18
ATOM     17  F   UNL     1      26.172 -21.815 -16.822  0.00  0.00    -0.204 F 
ATOM     18  C   UNL     1      29.270 -24.025 -15.221  0.00  0.00    -0.013 C 
ATOM     19  C   UNL     1      28.850 -22.855 -14.590  0.00  0.00    -0.001 C 
ATOM     20  C   UNL     1      28.644 -24.449 -16.393  0.00  0.00    -0.001 C 
ATOM     21  C   UNL     1      27.803 -22.108 -15.131  0.00  0.00    +0.029 C 
ATOM     22  C   UNL     1      27.597 -23.703 -16.933  0.00  0.00    +0.029 C 
ATOM     23  C   UNL     1      27.176 -22.532 -16.303  0.00  0.00    +0.140 C 
ENDBRANCH  16  18
ENDBRANCH  12  16
ENDBRANCH   2  10
BRANCH   3  24
ATOM     24  O   UNL     1      35.895 -19.595 -21.445  0.00  0.00    -0.451 OA
BRANCH  24  27
ATOM     25  N   UNL     1      34.064 -17.201 -24.341  0.00  0.00    -0.229 NA
ATOM     26  N   UNL     1      34.841 -15.257 -23.203  0.00  0.00    -0.343 N 
ATOM     27  C   UNL     1      35.288 -18.802 -22.404  0.00  0.00    +0.150 C 
ATOM     28  C   UNL     1      35.371 -17.416 -22.319  0.00  0.00    +0.071 C 
ATOM     29  C   UNL     1      34.593 -19.387 -23.456  0.00  0.00    +0.058 C 
ATOM     30  C   UNL     1      34.747 -16.667 -23.304  0.00  0.00    +0.128 C 
ATOM     31  C   UNL     1      34.004 -18.550 -24.390  0.00  0.00    +0.103 C 
ATOM     32  H   UNL     1      34.414 -14.685 -23.880  0.00  0.00    +0.144 HD
ATOM     33  H   UNL     1      35.335 -14.849 -22.455  0.00  0.00    +0.144 HD
ENDBRANCH  24  27
ENDBRANCH   3  24
TORSDOF 5
ENDMDL
MODEL 7
REMARK VINA RESULT:     -11.4      1.480      1.902
REMARK  Name = 17748441
REMARK  5 active torsions:
REMARK  status: ('A' for Active; 'I' for Inactive)
REMARK    1  A    between atoms: C_2  and  N_10
REMARK    2  A    between atoms: C_3  and  O_24
REMARK    3  A    between atoms: C_12  and  C_16
REMARK    4  A    between atoms: C_16  and  C_18
REMARK    5  A    between atoms: O_24  and  C_27
REMARK                            x       y       z     vdW  Elec       q    Type
REMARK                         _______ _______ _______ _____ _____    ______ ____
ROOT
ATOM      1  F   UNL     1      31.919 -23.714 -16.368  0.00  0.00    -0.201 F 
ATOM      2  C   UNL     1      34.266 -21.918 -18.489  0.00  0.00    +0.054 C 
ATOM      3  C   UNL     1      34.237 -23.305 -16.068  0.00  0.00    +0.173 C 
ATOM      4  C   UNL     1      33.078 -22.481 -18.021  0.00  0.00    +0.047 C 
ATOM      5  C   UNL     1      35.439 -22.049 -17.745  0.00  0.00    +0.018 C 
ATOM      6  C   UNL     1      33.064 -23.175 -16.811  0.00  0.00    +0.176 C 
ATOM      7  C   UNL     1      35.424 -22.742 -16.534  0.00  0.00    +0.041 C 
ENDROOT
BRANCH   2  10
ATOM      8  O   UNL     1      36.814 -18.621 -21.985  0.00  0.00    -0.274 OA
ATOM      9  O   UNL     1      36.376 -20.151 -19.690  0.00  0.00    -0.252 OA
ATOM     10  N   UNL     1      34.281 -21.215 -19.716  0.00  0.00    -0.268 N 
ATOM     11  N   UNL     1      34.920 -19.885 -21.480  0.00  0.00    -0.239 N 
ATOM     12  C   UNL     1      35.695 -19.034 -22.274  0.00  0.00    +0.234 C 
ATOM     13  C   UNL     1      35.299 -20.402 -20.225  0.00  0.00    +0.310 C 
ATOM     14  H   UNL     1      33.478 -21.308 -20.278  0.00  0.00    +0.156 HD
ATOM     15  H   UNL     1      34.035 -20.144 -21.827  0.00  0.00    +0.159 HD
BRANCH  12  16
ATOM     16  C   UNL     1      34.974 -18.674 -23.559  0.00  0.00    +0.112 C 
BRANCH  16  18
ATOM     17  F   UNL     1      33.549 -13.231 -23.869  0.00  0.00    -0.204 F 
ATOM     18  C   UNL     1      34.594 -17.219 -23.643  0.00  0.00    -0.013 C 
ATOM     19  C   UNL     1      34.884 -16.361 -22.583  0.00  0.00    -0.001 C 
ATOM     20  C   UNL     1      33.949 -16.730 -24.779  0.00  0.00    -0.001 C 
ATOM     21  C   UNL     1      34.532 -15.014 -22.659  0.00  0.00    +0.029 C 
ATOM     22  C   UNL     1      33.596 -15.383 -24.855  0.00  0.00    +0.029 C 
ATOM     23  C   UNL     1      33.887 -14.524 -23.796  0.00  0.00    +0.140 C 
ENDBRANCH  16  18
ENDBRANCH  12  16
ENDBRANCH   2  10
BRANCH   3  24
ATOM     24  O   UNL     1      34.222 -23.980 -14.886  0.00  0.00    -0.451 OA
BRANCH  24  27
ATOM     25  N   UNL     1      37.900 -24.833 -13.093  0.00  0.00    -0.229 NA
ATOM     26  N   UNL     1      37.907 -26.965 -14.157  0.00  0.00    -0.343 N 
ATOM     27  C   UNL     1      35.441 -24.263 -14.292  0.00  0.00    +0.150 C 
ATOM     28  C   UNL     1      36.065 -25.483 -14.526  0.00  0.00    +0.071 C 
ATOM     29  C   UNL     1      36.045 -23.328 -13.459  0.00  0.00    +0.058 C 
ATOM     30  C   UNL     1      37.283 -25.717 -13.908  0.00  0.00    +0.128 C 
ATOM     31  C   UNL     1      37.264 -23.658 -12.889  0.00  0.00    +0.103 C 
ATOM     32  H   UNL     1      38.774 -27.174 -13.739  0.00  0.00    +0.144 HD
ATOM     33  H   UNL     1      37.474 -27.622 -14.748  0.00  0.00    +0.144 HD
ENDBRANCH  24  27
ENDBRANCH   3  24
TORSDOF 5
ENDMDL
MODEL 8
REMARK VINA RESULT:     -11.3      3.198     10.594
REMARK  Name = 17748441
REMARK  5 active torsions:
REMARK  status: ('A' for Active; 'I' for Inactive)
REMARK    1  A    between atoms: C_2  and  N_10
REMARK    2  A    between atoms: C_3  and  O_24
REMARK    3  A    between atoms: C_12  and  C_16
REMARK    4  A    between atoms: C_16  and  C_18
REMARK    5  A    between atoms: O_24  and  C_27
REMARK                            x       y       z     vdW  Elec       q    Type
REMARK                         _______ _______ _______ _____ _____    ______ ____
ROOT
ATOM      1  F   UNL     1      37.807 -18.647 -21.682  0.00  0.00    -0.201 F 
ATOM      2  C   UNL     1      35.103 -20.532 -20.144  0.00  0.00    +0.054 C 
ATOM      3  C   UNL     1      35.509 -18.763 -22.262  0.00  0.00    +0.173 C 
ATOM      4  C   UNL     1      36.377 -20.019 -20.391  0.00  0.00    +0.047 C 
ATOM      5  C   UNL     1      34.033 -20.159 -20.958  0.00  0.00    +0.018 C 
ATOM      6  C   UNL     1      36.580 -19.135 -21.450  0.00  0.00    +0.176 C 
ATOM      7  C   UNL     1      34.236 -19.274 -22.016  0.00  0.00    +0.041 C 
ENDROOT
BRANCH   2  10
ATOM      8  O   UNL     1      36.774 -22.705 -15.445  0.00  0.00    -0.274 OA
ATOM      9  O   UNL     1      36.790 -21.088 -17.723  0.00  0.00    -0.252 OA
ATOM     10  N   UNL     1      34.896 -21.429 -19.070  0.00  0.00    -0.268 N 
ATOM     11  N   UNL     1      35.155 -22.624 -17.122  0.00  0.00    -0.239 N 
ATOM     12  C   UNL     1      35.712 -23.088 -15.927  0.00  0.00    +0.234 C 
ATOM     13  C   UNL     1      35.722 -21.646 -17.963  0.00  0.00    +0.310 C 
ATOM     14  H   UNL     1      34.071 -21.966 -19.108  0.00  0.00    +0.156 HD
ATOM     15  H   UNL     1      34.294 -23.014 -17.400  0.00  0.00    +0.159 HD
BRANCH  12  16
ATOM     16  C   UNL     1      34.832 -24.143 -15.283  0.00  0.00    +0.112 C 
BRANCH  16  18
ATOM     17  F   UNL     1      29.513 -22.448 -14.518  0.00  0.00    -0.204 F 
ATOM     18  C   UNL     1      33.410 -23.689 -15.079  0.00  0.00    -0.013 C 
ATOM     19  C   UNL     1      32.908 -23.531 -13.788  0.00  0.00    -0.001 C 
ATOM     20  C   UNL     1      32.596 -23.428 -16.181  0.00  0.00    -0.001 C 
ATOM     21  C   UNL     1      31.591 -23.111 -13.598  0.00  0.00    +0.029 C 
ATOM     22  C   UNL     1      31.279 -23.010 -15.991  0.00  0.00    +0.029 C 
ATOM     23  C   UNL     1      30.776 -22.850 -14.700  0.00  0.00    +0.140 C 
ENDBRANCH  16  18
ENDBRANCH  12  16
ENDBRANCH   2  10
BRANCH   3  24
ATOM     24  O   UNL     1      35.707 -17.898 -23.295  0.00  0.00    -0.451 OA
BRANCH  24  27
ATOM     25  N   UNL     1      33.477 -14.363 -23.319  0.00  0.00    -0.229 NA
ATOM     26  N   UNL     1      32.805 -14.820 -25.560  0.00  0.00    -0.343 N 
ATOM     27  C   UNL     1      34.968 -16.726 -23.304  0.00  0.00    +0.150 C 
ATOM     28  C   UNL     1      34.253 -16.360 -24.438  0.00  0.00    +0.071 C 
ATOM     29  C   UNL     1      34.938 -15.912 -22.177  0.00  0.00    +0.058 C 
ATOM     30  C   UNL     1      33.529 -15.179 -24.395  0.00  0.00    +0.128 C 
ATOM     31  C   UNL     1      34.184 -14.751 -22.235  0.00  0.00    +0.103 C 
ATOM     32  H   UNL     1      32.277 -13.989 -25.574  0.00  0.00    +0.144 HD
ATOM     33  H   UNL     1      32.831 -15.401 -26.354  0.00  0.00    +0.144 HD
ENDBRANCH  24  27
ENDBRANCH   3  24
TORSDOF 5
ENDMDL
MODEL 9
REMARK VINA RESULT:     -11.3      2.862     11.535
REMARK  Name = 17748441
REMARK  5 active torsions:
REMARK  status: ('A' for Active; 'I' for Inactive)
REMARK    1  A    between atoms: C_2  and  N_10
REMARK    2  A    between atoms: C_3  and  O_24
REMARK    3  A    between atoms: C_12  and  C_16
REMARK    4  A    between atoms: C_16  and  C_18
REMARK    5  A    between atoms: O_24  and  C_27
REMARK                            x       y       z     vdW  Elec       q    Type
REMARK                         _______ _______ _______ _____ _____    ______ ____
ROOT
ATOM      1  F   UNL     1      33.251 -19.684 -22.170  0.00  0.00    -0.201 F 
ATOM      2  C   UNL     1      36.275 -19.917 -20.163  0.00  0.00    +0.054 C 
ATOM      3  C   UNL     1      35.410 -18.780 -22.559  0.00  0.00    +0.173 C 
ATOM      4  C   UNL     1      34.954 -20.087 -20.579  0.00  0.00    +0.047 C 
ATOM      5  C   UNL     1      37.162 -19.178 -20.945  0.00  0.00    +0.018 C 
ATOM      6  C   UNL     1      34.522 -19.518 -21.777  0.00  0.00    +0.176 C 
ATOM      7  C   UNL     1      36.730 -18.610 -22.144  0.00  0.00    +0.041 C 
ENDROOT
BRANCH   2  10
ATOM      8  O   UNL     1      35.623 -23.572 -16.188  0.00  0.00    -0.274 OA
ATOM      9  O   UNL     1      35.114 -22.165 -18.546  0.00  0.00    -0.252 OA
ATOM     10  N   UNL     1      36.714 -20.493 -18.948  0.00  0.00    -0.268 N 
ATOM     11  N   UNL     1      36.878 -21.818 -17.075  0.00  0.00    -0.239 N 
ATOM     12  C   UNL     1      36.580 -22.806 -16.132  0.00  0.00    +0.234 C 
ATOM     13  C   UNL     1      36.129 -21.545 -18.237  0.00  0.00    +0.310 C 
ATOM     14  H   UNL     1      37.531 -20.106 -18.556  0.00  0.00    +0.156 HD
ATOM     15  H   UNL     1      37.677 -21.266 -16.914  0.00  0.00    +0.159 HD
BRANCH  12  16
ATOM     16  C   UNL     1      37.599 -22.818 -15.008  0.00  0.00    +0.112 C 
BRANCH  16  18
ATOM     17  F   UNL     1      36.928 -27.120 -11.431  0.00  0.00    -0.204 F 
ATOM     18  C   UNL     1      37.419 -23.968 -14.052  0.00  0.00    -0.013 C 
ATOM     19  C   UNL     1      36.590 -23.827 -12.941  0.00  0.00    -0.001 C 
ATOM     20  C   UNL     1      38.084 -25.174 -14.278  0.00  0.00    -0.001 C 
ATOM     21  C   UNL     1      36.423 -24.892 -12.055  0.00  0.00    +0.029 C 
ATOM     22  C   UNL     1      37.919 -26.238 -13.393  0.00  0.00    +0.029 C 
ATOM     23  C   UNL     1      37.088 -26.098 -12.281  0.00  0.00    +0.140 C 
ENDBRANCH  16  18
ENDBRANCH  12  16
ENDBRANCH   2  10
BRANCH   3  24
ATOM     24  O   UNL     1      34.988 -18.226 -23.729  0.00  0.00    -0.451 OA
BRANCH  24  27
ATOM     25  N   UNL     1      33.742 -14.237 -23.652  0.00  0.00    -0.229 NA
ATOM     26  N   UNL     1      32.763 -14.517 -25.806  0.00  0.00    -0.343 N 
ATOM     27  C   UNL     1      34.576 -16.904 -23.704  0.00  0.00    +0.150 C 
ATOM     28  C   UNL     1      33.871 -16.372 -24.778  0.00  0.00    +0.071 C 
ATOM     29  C   UNL     1      34.863 -16.105 -22.604  0.00  0.00    +0.058 C 
ATOM     30  C   UNL     1      33.480 -15.045 -24.703  0.00  0.00    +0.128 C 
ATOM     31  C   UNL     1      34.428 -14.789 -22.626  0.00  0.00    +0.103 C 
ATOM     32  H   UNL     1      32.465 -13.579 -25.796  0.00  0.00    +0.144 HD
ATOM     33  H   UNL     1      32.562 -15.090 -26.582  0.00  0.00    +0.144 HD
ENDBRANCH  24  27
ENDBRANCH   3  24
TORSDOF 5
ENDMDL
