MODEL 1
REMARK VINA RESULT:     -11.8      0.000      0.000
REMARK  Name = 11538455
REMARK  6 active torsions:
REMARK  status: ('A' for Active; 'I' for Inactive)
REMARK    1  A    between atoms: C_4  and  C_19
REMARK    2  A    between atoms: C_12  and  C_15
REMARK    3  A    between atoms: N_14  and  O_17
REMARK    4  A    between atoms: C_19  and  N_20
REMARK    5  A    between atoms: N_20  and  C_23
REMARK    6  A    between atoms: C_23  and  C_25
REMARK                            x       y       z     vdW  Elec       q    Type
REMARK                         _______ _______ _______ _____ _____    ______ ____
ROOT
ATOM      1  N   UNL     1      34.933 -22.064 -17.832  0.00  0.00    -0.253 N 
ATOM      2  N   UNL     1      36.281 -23.053 -16.167  0.00  0.00    -0.203 NA
ATOM      3  N   UNL     1      33.882 -23.011 -15.942  0.00  0.00    -0.180 NA
ATOM      4  C   UNL     1      34.693 -20.811 -20.431  0.00  0.00    -0.018 C 
ATOM      5  C   UNL     1      35.905 -20.565 -19.527  0.00  0.00    +0.020 C 
ATOM      6  C   UNL     1      33.465 -21.115 -19.568  0.00  0.00    +0.020 C 
ATOM      7  C   UNL     1      36.151 -21.741 -18.582  0.00  0.00    +0.101 C 
ATOM      8  C   UNL     1      33.719 -22.292 -18.628  0.00  0.00    +0.101 C 
ATOM      9  C   UNL     1      35.035 -22.732 -16.606  0.00  0.00    +0.090 C 
ATOM     10  C   UNL     1      36.344 -23.694 -14.981  0.00  0.00    +0.170 C 
ATOM     11  C   UNL     1      34.018 -23.652 -14.764  0.00  0.00    +0.113 C 
ATOM     12  C   UNL     1      35.235 -24.023 -14.228  0.00  0.00    +0.078 C 
ENDROOT
BRANCH  12  15
ATOM     13  O   UNL     1      34.525 -24.494 -12.040  0.00  0.00    -0.268 OA
ATOM     14  N   UNL     1      36.390 -25.612 -12.806  0.00  0.00    -0.194 N 
ATOM     15  C   UNL     1      35.341 -24.713 -12.958  0.00  0.00    +0.267 C 
ATOM     16  H   UNL     1      37.031 -25.782 -13.535  0.00  0.00    +0.183 HD
BRANCH  14  17
ATOM     17  O   UNL     1      36.493 -26.267 -11.570  0.00  0.00    -0.295 OA
ATOM     18  H   UNL     1      37.123 -25.793 -11.005  0.00  0.00    +0.241 HD
ENDBRANCH  14  17
ENDBRANCH  12  15
BRANCH   4  19
ATOM     19  C   UNL     1      34.438 -19.609 -21.338  0.00  0.00    -0.081 C 
BRANCH  19  20
ATOM     20  N   UNL     1      35.240 -18.468 -20.925  0.00  0.00    +0.386 N 
ATOM     21  H   UNL     1      35.903 -18.768 -20.209  0.00  0.00    -0.084 HD
ATOM     22  H   UNL     1      34.618 -17.748 -20.558  0.00  0.00    -0.084 HD
BRANCH  20  23
ATOM     23  C   UNL     1      35.978 -17.913 -22.053  0.00  0.00    -0.053 C 
BRANCH  23  25
ATOM     24  N   UNL     1      34.082 -15.822 -24.370  0.00  0.00    -0.284 N 
ATOM     25  C   UNL     1      35.146 -16.889 -22.775  0.00  0.00    -0.028 C 
ATOM     26  C   UNL     1      34.547 -15.759 -22.190  0.00  0.00    +0.009 C 
ATOM     27  C   UNL     1      34.856 -16.919 -24.104  0.00  0.00    +0.059 C 
ATOM     28  C   UNL     1      33.877 -15.095 -23.219  0.00  0.00    +0.051 C 
ATOM     29  C   UNL     1      34.497 -15.219 -20.890  0.00  0.00    +0.001 C 
ATOM     30  C   UNL     1      33.157 -13.912 -23.013  0.00  0.00    +0.015 C 
ATOM     31  C   UNL     1      33.561 -15.489 -25.679  0.00  0.00    +0.117 C 
ATOM     32  C   UNL     1      33.781 -14.036 -20.667  0.00  0.00    +0.000 C 
ATOM     33  C   UNL     1      33.122 -13.395 -21.715  0.00  0.00    +0.001 C 
ENDBRANCH  23  25
ENDBRANCH  20  23
ENDBRANCH  19  20
ENDBRANCH   4  19
TORSDOF 6
ENDMDL
MODEL 2
REMARK VINA RESULT:     -11.7      0.774      1.905
REMARK  Name = 11538455
REMARK  6 active torsions:
REMARK  status: ('A' for Active; 'I' for Inactive)
REMARK    1  A    between atoms: C_4  and  C_19
REMARK    2  A    between atoms: C_12  and  C_15
REMARK    3  A    between atoms: N_14  and  O_17
REMARK    4  A    between atoms: C_19  and  N_20
REMARK    5  A    between atoms: N_20  and  C_23
REMARK    6  A    between atoms: C_23  and  C_25
REMARK                            x       y       z     vdW  Elec       q    Type
REMARK                         _______ _______ _______ _____ _____    ______ ____
ROOT
ATOM      1  N   UNL     1      34.904 -22.163 -17.722  0.00  0.00    -0.253 N 
ATOM      2  N   UNL     1      36.254 -23.124 -16.041  0.00  0.00    -0.203 NA
ATOM      3  N   UNL     1      33.854 -23.088 -15.821  0.00  0.00    -0.180 NA
ATOM      4  C   UNL     1      34.663 -20.946 -20.338  0.00  0.00    -0.018 C 
ATOM      5  C   UNL     1      35.872 -20.683 -19.436  0.00  0.00    +0.020 C 
ATOM      6  C   UNL     1      33.434 -21.243 -19.473  0.00  0.00    +0.020 C 
ATOM      7  C   UNL     1      36.122 -21.845 -18.475  0.00  0.00    +0.101 C 
ATOM      8  C   UNL     1      33.692 -22.407 -18.517  0.00  0.00    +0.101 C 
ATOM      9  C   UNL     1      35.007 -22.814 -16.487  0.00  0.00    +0.090 C 
ATOM     10  C   UNL     1      36.317 -23.747 -14.847  0.00  0.00    +0.170 C 
ATOM     11  C   UNL     1      33.991 -23.713 -14.633  0.00  0.00    +0.113 C 
ATOM     12  C   UNL     1      35.208 -24.071 -14.091  0.00  0.00    +0.078 C 
ENDROOT
BRANCH  12  15
ATOM     13  O   UNL     1      34.495 -24.519 -11.899  0.00  0.00    -0.268 OA
ATOM     14  N   UNL     1      36.370 -25.632 -12.644  0.00  0.00    -0.194 N 
ATOM     15  C   UNL     1      35.315 -24.744 -12.812  0.00  0.00    +0.267 C 
ATOM     16  H   UNL     1      37.015 -25.808 -13.368  0.00  0.00    +0.183 HD
BRANCH  14  17
ATOM     17  O   UNL     1      36.475 -26.270 -11.399  0.00  0.00    -0.295 OA
ATOM     18  H   UNL     1      35.750 -26.907 -11.300  0.00  0.00    +0.241 HD
ENDBRANCH  14  17
ENDBRANCH  12  15
BRANCH   4  19
ATOM     19  C   UNL     1      34.403 -19.758 -21.261  0.00  0.00    -0.081 C 
BRANCH  19  20
ATOM     20  N   UNL     1      35.644 -19.070 -21.583  0.00  0.00    +0.386 N 
ATOM     21  H   UNL     1      36.399 -19.754 -21.640  0.00  0.00    -0.084 HD
ATOM     22  H   UNL     1      35.836 -18.386 -20.851  0.00  0.00    -0.084 HD
BRANCH  20  23
ATOM     23  C   UNL     1      35.538 -18.370 -22.856  0.00  0.00    -0.053 C 
BRANCH  23  25
ATOM     24  N   UNL     1      34.424 -15.092 -21.695  0.00  0.00    -0.284 N 
ATOM     25  C   UNL     1      35.000 -16.980 -22.652  0.00  0.00    -0.028 C 
ATOM     26  C   UNL     1      34.431 -16.167 -23.649  0.00  0.00    +0.009 C 
ATOM     27  C   UNL     1      34.992 -16.316 -21.465  0.00  0.00    +0.059 C 
ATOM     28  C   UNL     1      34.072 -14.973 -23.020  0.00  0.00    +0.051 C 
ATOM     29  C   UNL     1      34.178 -16.311 -25.027  0.00  0.00    +0.001 C 
ATOM     30  C   UNL     1      33.469 -13.911 -23.704  0.00  0.00    +0.015 C 
ATOM     31  C   UNL     1      34.231 -14.079 -20.679  0.00  0.00    +0.117 C 
ATOM     32  C   UNL     1      33.574 -15.256 -25.725  0.00  0.00    +0.000 C 
ATOM     33  C   UNL     1      33.227 -14.075 -25.071  0.00  0.00    +0.001 C 
ENDBRANCH  23  25
ENDBRANCH  20  23
ENDBRANCH  19  20
ENDBRANCH   4  19
TORSDOF 6
ENDMDL
MODEL 3
REMARK VINA RESULT:     -11.3      2.188      2.559
REMARK  Name = 11538455
REMARK  6 active torsions:
REMARK  status: ('A' for Active; 'I' for Inactive)
REMARK    1  A    between atoms: C_4  and  C_19
REMARK    2  A    between atoms: C_12  and  C_15
REMARK    3  A    between atoms: N_14  and  O_17
REMARK    4  A    between atoms: C_19  and  N_20
REMARK    5  A    between atoms: N_20  and  C_23
REMARK    6  A    between atoms: C_23  and  C_25
REMARK                            x       y       z     vdW  Elec       q    Type
REMARK                         _______ _______ _______ _____ _____    ______ ____
ROOT
ATOM      1  N   UNL     1      33.813 -21.948 -18.316  0.00  0.00    -0.253 N 
ATOM      2  N   UNL     1      33.729 -23.490 -16.531  0.00  0.00    -0.203 NA
ATOM      3  N   UNL     1      31.729 -22.387 -17.299  0.00  0.00    -0.180 NA
ATOM      4  C   UNL     1      35.320 -20.636 -20.411  0.00  0.00    -0.018 C 
ATOM      5  C   UNL     1      35.954 -20.987 -19.062  0.00  0.00    +0.020 C 
ATOM      6  C   UNL     1      33.820 -20.386 -20.221  0.00  0.00    +0.020 C 
ATOM      7  C   UNL     1      35.259 -22.179 -18.406  0.00  0.00    +0.101 C 
ATOM      8  C   UNL     1      33.133 -21.584 -19.566  0.00  0.00    +0.101 C 
ATOM      9  C   UNL     1      33.064 -22.631 -17.350  0.00  0.00    +0.090 C 
ATOM     10  C   UNL     1      32.978 -24.129 -15.610  0.00  0.00    +0.170 C 
ATOM     11  C   UNL     1      31.039 -23.060 -16.356  0.00  0.00    +0.113 C 
ATOM     12  C   UNL     1      31.616 -23.953 -15.475  0.00  0.00    +0.078 C 
ENDROOT
BRANCH  12  15
ATOM     13  O   UNL     1      29.932 -25.446 -14.806  0.00  0.00    -0.268 OA
ATOM     14  N   UNL     1      31.145 -24.411 -13.141  0.00  0.00    -0.194 N 
ATOM     15  C   UNL     1      30.841 -24.659 -14.474  0.00  0.00    +0.267 C 
ATOM     16  H   UNL     1      31.864 -23.790 -12.884  0.00  0.00    +0.183 HD
BRANCH  14  17
ATOM     17  O   UNL     1      30.382 -25.089 -12.178  0.00  0.00    -0.295 OA
ATOM     18  H   UNL     1      30.618 -26.030 -12.182  0.00  0.00    +0.241 HD
ENDBRANCH  14  17
ENDBRANCH  12  15
BRANCH   4  19
ATOM     19  C   UNL     1      35.999 -19.417 -21.031  0.00  0.00    -0.081 C 
BRANCH  19  20
ATOM     20  N   UNL     1      35.063 -18.661 -21.848  0.00  0.00    +0.386 N 
ATOM     21  H   UNL     1      34.603 -17.960 -21.266  0.00  0.00    -0.084 HD
ATOM     22  H   UNL     1      34.377 -19.306 -22.239  0.00  0.00    -0.084 HD
BRANCH  20  23
ATOM     23  C   UNL     1      35.750 -17.992 -22.946  0.00  0.00    -0.053 C 
BRANCH  23  25
ATOM     24  N   UNL     1      33.879 -15.407 -24.722  0.00  0.00    -0.284 N 
ATOM     25  C   UNL     1      34.958 -16.804 -23.419  0.00  0.00    -0.028 C 
ATOM     26  C   UNL     1      34.499 -15.750 -22.607  0.00  0.00    +0.009 C 
ATOM     27  C   UNL     1      34.575 -16.586 -24.706  0.00  0.00    +0.059 C 
ATOM     28  C   UNL     1      33.817 -14.875 -23.455  0.00  0.00    +0.051 C 
ATOM     29  C   UNL     1      34.586 -15.438 -21.237  0.00  0.00    +0.001 C 
ATOM     30  C   UNL     1      33.214 -13.696 -22.998  0.00  0.00    +0.015 C 
ATOM     31  C   UNL     1      33.297 -14.821 -25.911  0.00  0.00    +0.117 C 
ATOM     32  C   UNL     1      33.988 -14.262 -20.764  0.00  0.00    +0.000 C 
ATOM     33  C   UNL     1      33.313 -13.407 -21.634  0.00  0.00    +0.001 C 
ENDBRANCH  23  25
ENDBRANCH  20  23
ENDBRANCH  19  20
ENDBRANCH   4  19
TORSDOF 6
ENDMDL
MODEL 4
REMARK VINA RESULT:     -10.9      2.293      3.232
REMARK  Name = 11538455
REMARK  6 active torsions:
REMARK  status: ('A' for Active; 'I' for Inactive)
REMARK    1  A    between atoms: C_4  and  C_19
REMARK    2  A    between atoms: C_12  and  C_15
REMARK    3  A    between atoms: N_14  and  O_17
REMARK    4  A    between atoms: C_19  and  N_20
REMARK    5  A    between atoms: N_20  and  C_23
REMARK    6  A    between atoms: C_23  and  C_25
REMARK                            x       y       z     vdW  Elec       q    Type
REMARK                         _______ _______ _______ _____ _____    ______ ____
ROOT
ATOM      1  N   UNL     1      33.741 -21.985 -18.263  0.00  0.00    -0.253 N 
ATOM      2  N   UNL     1      33.592 -23.449 -16.417  0.00  0.00    -0.203 NA
ATOM      3  N   UNL     1      31.627 -22.353 -17.279  0.00  0.00    -0.180 NA
ATOM      4  C   UNL     1      35.315 -20.782 -20.374  0.00  0.00    -0.018 C 
ATOM      5  C   UNL     1      35.912 -21.084 -18.996  0.00  0.00    +0.020 C 
ATOM      6  C   UNL     1      33.815 -20.505 -20.231  0.00  0.00    +0.020 C 
ATOM      7  C   UNL     1      35.185 -22.238 -18.307  0.00  0.00    +0.101 C 
ATOM      8  C   UNL     1      33.096 -21.664 -19.543  0.00  0.00    +0.101 C 
ATOM      9  C   UNL     1      32.960 -22.617 -17.287  0.00  0.00    +0.090 C 
ATOM     10  C   UNL     1      32.811 -24.038 -15.489  0.00  0.00    +0.170 C 
ATOM     11  C   UNL     1      30.905 -22.977 -16.325  0.00  0.00    +0.113 C 
ATOM     12  C   UNL     1      31.449 -23.839 -15.395  0.00  0.00    +0.078 C 
ENDROOT
BRANCH  12  15
ATOM     13  O   UNL     1      29.558 -25.035 -14.682  0.00  0.00    -0.268 OA
ATOM     14  N   UNL     1      31.115 -24.474 -13.078  0.00  0.00    -0.194 N 
ATOM     15  C   UNL     1      30.640 -24.492 -14.384  0.00  0.00    +0.267 C 
ATOM     16  H   UNL     1      31.971 -24.045 -12.848  0.00  0.00    +0.183 HD
BRANCH  14  17
ATOM     17  O   UNL     1      30.322 -25.097 -12.104  0.00  0.00    -0.295 OA
ATOM     18  H   UNL     1      30.589 -26.025 -12.013  0.00  0.00    +0.241 HD
ENDBRANCH  14  17
ENDBRANCH  12  15
BRANCH   4  19
ATOM     19  C   UNL     1      36.026 -19.600 -21.028  0.00  0.00    -0.081 C 
BRANCH  19  20
ATOM     20  N   UNL     1      35.066 -18.664 -21.593  0.00  0.00    +0.386 N 
ATOM     21  H   UNL     1      34.572 -18.194 -20.834  0.00  0.00    -0.084 HD
ATOM     22  H   UNL     1      34.411 -19.184 -22.177  0.00  0.00    -0.084 HD
BRANCH  20  23
ATOM     23  C   UNL     1      35.733 -17.666 -22.419  0.00  0.00    -0.053 C 
BRANCH  23  25
ATOM     24  N   UNL     1      33.911 -14.565 -21.785  0.00  0.00    -0.284 N 
ATOM     25  C   UNL     1      34.942 -16.387 -22.442  0.00  0.00    -0.028 C 
ATOM     26  C   UNL     1      34.408 -15.775 -23.592  0.00  0.00    +0.009 C 
ATOM     27  C   UNL     1      34.634 -15.641 -21.347  0.00  0.00    +0.059 C 
ATOM     28  C   UNL     1      33.758 -14.620 -23.151  0.00  0.00    +0.051 C 
ATOM     29  C   UNL     1      34.403 -16.073 -24.968  0.00  0.00    +0.001 C 
ATOM     30  C   UNL     1      33.099 -13.745 -24.023  0.00  0.00    +0.015 C 
ATOM     31  C   UNL     1      33.392 -13.526 -20.922  0.00  0.00    +0.117 C 
ATOM     32  C   UNL     1      33.748 -15.207 -25.853  0.00  0.00    +0.000 C 
ATOM     33  C   UNL     1      33.107 -14.061 -25.385  0.00  0.00    +0.001 C 
ENDBRANCH  23  25
ENDBRANCH  20  23
ENDBRANCH  19  20
ENDBRANCH   4  19
TORSDOF 6
ENDMDL
MODEL 5
REMARK VINA RESULT:     -10.5      6.227     10.363
REMARK  Name = 11538455
REMARK  6 active torsions:
REMARK  status: ('A' for Active; 'I' for Inactive)
REMARK    1  A    between atoms: C_4  and  C_19
REMARK    2  A    between atoms: C_12  and  C_15
REMARK    3  A    between atoms: N_14  and  O_17
REMARK    4  A    between atoms: C_19  and  N_20
REMARK    5  A    between atoms: N_20  and  C_23
REMARK    6  A    between atoms: C_23  and  C_25
REMARK                            x       y       z     vdW  Elec       q    Type
REMARK                         _______ _______ _______ _____ _____    ______ ____
ROOT
ATOM      1  N   UNL     1      33.185 -13.040 -21.757  0.00  0.00    -0.253 N 
ATOM      2  N   UNL     1      34.378 -14.721 -22.907  0.00  0.00    -0.203 NA
ATOM      3  N   UNL     1      33.913 -14.935 -20.552  0.00  0.00    -0.180 NA
ATOM      4  C   UNL     1      31.689 -10.562 -21.809  0.00  0.00    -0.018 C 
ATOM      5  C   UNL     1      32.883 -10.802 -22.739  0.00  0.00    +0.020 C 
ATOM      6  C   UNL     1      31.881 -11.359 -20.515  0.00  0.00    +0.020 C 
ATOM      7  C   UNL     1      33.092 -12.291 -23.015  0.00  0.00    +0.101 C 
ATOM      8  C   UNL     1      32.087 -12.846 -20.800  0.00  0.00    +0.101 C 
ATOM      9  C   UNL     1      33.847 -14.274 -21.738  0.00  0.00    +0.090 C 
ATOM     10  C   UNL     1      35.011 -15.911 -22.852  0.00  0.00    +0.170 C 
ATOM     11  C   UNL     1      34.560 -16.119 -20.569  0.00  0.00    +0.113 C 
ATOM     12  C   UNL     1      35.134 -16.662 -21.700  0.00  0.00    +0.078 C 
ENDROOT
BRANCH  12  15
ATOM     13  O   UNL     1      35.965 -18.606 -22.724  0.00  0.00    -0.268 OA
ATOM     14  N   UNL     1      36.296 -18.387 -20.453  0.00  0.00    -0.194 N 
ATOM     15  C   UNL     1      35.821 -17.938 -21.680  0.00  0.00    +0.267 C 
ATOM     16  H   UNL     1      36.180 -17.856 -19.631  0.00  0.00    +0.183 HD
BRANCH  14  17
ATOM     17  O   UNL     1      36.948 -19.628 -20.439  0.00  0.00    -0.295 OA
ATOM     18  H   UNL     1      37.668 -19.623 -21.089  0.00  0.00    +0.241 HD
ENDBRANCH  14  17
ENDBRANCH  12  15
BRANCH   4  19
ATOM     19  C   UNL     1      31.522  -9.074 -21.511  0.00  0.00    -0.081 C 
BRANCH  19  20
ATOM     20  N   UNL     1      31.899  -8.774 -20.138  0.00  0.00    +0.386 N 
ATOM     21  H   UNL     1      32.379  -9.582 -19.740  0.00  0.00    -0.084 HD
ATOM     22  H   UNL     1      31.054  -8.564 -19.607  0.00  0.00    -0.084 HD
BRANCH  20  23
ATOM     23  C   UNL     1      32.784  -7.617 -20.080  0.00  0.00    -0.053 C 
BRANCH  23  25
ATOM     24  N   UNL     1      31.537  -5.139 -22.454  0.00  0.00    -0.284 N 
ATOM     25  C   UNL     1      32.497  -6.675 -21.216  0.00  0.00    -0.028 C 
ATOM     26  C   UNL     1      33.269  -6.542 -22.385  0.00  0.00    +0.009 C 
ATOM     27  C   UNL     1      31.444  -5.815 -21.267  0.00  0.00    +0.059 C 
ATOM     28  C   UNL     1      32.641  -5.563 -23.157  0.00  0.00    +0.051 C 
ATOM     29  C   UNL     1      34.440  -7.149 -22.880  0.00  0.00    +0.001 C 
ATOM     30  C   UNL     1      33.129  -5.157 -24.405  0.00  0.00    +0.015 C 
ATOM     31  C   UNL     1      30.600  -4.125 -22.890  0.00  0.00    +0.117 C 
ATOM     32  C   UNL     1      34.940  -6.754 -24.127  0.00  0.00    +0.000 C 
ATOM     33  C   UNL     1      34.292  -5.773 -24.876  0.00  0.00    +0.001 C 
ENDBRANCH  23  25
ENDBRANCH  20  23
ENDBRANCH  19  20
ENDBRANCH   4  19
TORSDOF 6
ENDMDL
MODEL 6
REMARK VINA RESULT:     -10.3      0.904      1.631
REMARK  Name = 11538455
REMARK  6 active torsions:
REMARK  status: ('A' for Active; 'I' for Inactive)
REMARK    1  A    between atoms: C_4  and  C_19
REMARK    2  A    between atoms: C_12  and  C_15
REMARK    3  A    between atoms: N_14  and  O_17
REMARK    4  A    between atoms: C_19  and  N_20
REMARK    5  A    between atoms: N_20  and  C_23
REMARK    6  A    between atoms: C_23  and  C_25
REMARK                            x       y       z     vdW  Elec       q    Type
REMARK                         _______ _______ _______ _____ _____    ______ ____
ROOT
ATOM      1  N   UNL     1      35.344 -22.330 -17.410  0.00  0.00    -0.253 N 
ATOM      2  N   UNL     1      34.365 -23.364 -15.527  0.00  0.00    -0.203 NA
ATOM      3  N   UNL     1      36.760 -23.287 -15.781  0.00  0.00    -0.180 NA
ATOM      4  C   UNL     1      35.055 -20.786 -19.842  0.00  0.00    -0.018 C 
ATOM      5  C   UNL     1      34.009 -21.821 -19.415  0.00  0.00    +0.020 C 
ATOM      6  C   UNL     1      36.431 -21.202 -19.311  0.00  0.00    +0.020 C 
ATOM      7  C   UNL     1      33.997 -22.018 -17.899  0.00  0.00    +0.101 C 
ATOM      8  C   UNL     1      36.410 -21.395 -17.795  0.00  0.00    +0.101 C 
ATOM      9  C   UNL     1      35.496 -23.016 -16.198  0.00  0.00    +0.090 C 
ATOM     10  C   UNL     1      34.547 -24.026 -14.366  0.00  0.00    +0.170 C 
ATOM     11  C   UNL     1      36.869 -23.951 -14.612  0.00  0.00    +0.113 C 
ATOM     12  C   UNL     1      35.787 -24.349 -13.854  0.00  0.00    +0.078 C 
ENDROOT
BRANCH  12  15
ATOM     13  O   UNL     1      36.716 -26.036 -12.510  0.00  0.00    -0.268 OA
ATOM     14  N   UNL     1      35.191 -24.621 -11.519  0.00  0.00    -0.194 N 
ATOM     15  C   UNL     1      35.943 -25.061 -12.601  0.00  0.00    +0.267 C 
ATOM     16  H   UNL     1      34.583 -23.849 -11.595  0.00  0.00    +0.183 HD
BRANCH  14  17
ATOM     17  O   UNL     1      35.338 -25.322 -10.313  0.00  0.00    -0.295 OA
ATOM     18  H   UNL     1      35.342 -26.275 -10.492  0.00  0.00    +0.241 HD
ENDBRANCH  14  17
ENDBRANCH  12  15
BRANCH   4  19
ATOM     19  C   UNL     1      35.082 -20.633 -21.360  0.00  0.00    -0.081 C 
BRANCH  19  20
ATOM     20  N   UNL     1      34.550 -19.340 -21.761  0.00  0.00    +0.386 N 
ATOM     21  H   UNL     1      34.308 -18.805 -20.926  0.00  0.00    -0.084 HD
ATOM     22  H   UNL     1      33.724 -19.492 -22.339  0.00  0.00    -0.084 HD
BRANCH  20  23
ATOM     23  C   UNL     1      35.529 -18.590 -22.539  0.00  0.00    -0.053 C 
BRANCH  23  25
ATOM     24  N   UNL     1      34.026 -15.939 -24.550  0.00  0.00    -0.284 N 
ATOM     25  C   UNL     1      34.905 -17.352 -23.120  0.00  0.00    -0.028 C 
ATOM     26  C   UNL     1      34.590 -16.181 -22.406  0.00  0.00    +0.009 C 
ATOM     27  C   UNL     1      34.557 -17.195 -24.426  0.00  0.00    +0.059 C 
ATOM     28  C   UNL     1      34.034 -15.297 -23.333  0.00  0.00    +0.051 C 
ATOM     29  C   UNL     1      34.716 -15.767 -21.065  0.00  0.00    +0.001 C 
ATOM     30  C   UNL     1      33.595 -14.014 -22.985  0.00  0.00    +0.015 C 
ATOM     31  C   UNL     1      33.531 -15.383 -25.791  0.00  0.00    +0.117 C 
ATOM     32  C   UNL     1      34.282 -14.486 -20.701  0.00  0.00    +0.000 C 
ATOM     33  C   UNL     1      33.729 -13.625 -21.649  0.00  0.00    +0.001 C 
ENDBRANCH  23  25
ENDBRANCH  20  23
ENDBRANCH  19  20
ENDBRANCH   4  19
TORSDOF 6
ENDMDL
MODEL 7
REMARK VINA RESULT:     -10.3      6.381     10.451
REMARK  Name = 11538455
REMARK  6 active torsions:
REMARK  status: ('A' for Active; 'I' for Inactive)
REMARK    1  A    between atoms: C_4  and  C_19
REMARK    2  A    between atoms: C_12  and  C_15
REMARK    3  A    between atoms: N_14  and  O_17
REMARK    4  A    between atoms: C_19  and  N_20
REMARK    5  A    between atoms: N_20  and  C_23
REMARK    6  A    between atoms: C_23  and  C_25
REMARK                            x       y       z     vdW  Elec       q    Type
REMARK                         _______ _______ _______ _____ _____    ______ ____
ROOT
ATOM      1  N   UNL     1      33.689 -13.204 -22.404  0.00  0.00    -0.253 N 
ATOM      2  N   UNL     1      34.828 -15.101 -23.226  0.00  0.00    -0.203 NA
ATOM      3  N   UNL     1      34.105 -14.999 -20.929  0.00  0.00    -0.180 NA
ATOM      4  C   UNL     1      32.449 -10.632 -22.889  0.00  0.00    -0.018 C 
ATOM      5  C   UNL     1      33.704 -11.078 -23.647  0.00  0.00    +0.020 C 
ATOM      6  C   UNL     1      32.430 -11.287 -21.504  0.00  0.00    +0.020 C 
ATOM      7  C   UNL     1      33.797 -12.601 -23.737  0.00  0.00    +0.101 C 
ATOM      8  C   UNL     1      32.522 -12.809 -21.603  0.00  0.00    +0.101 C 
ATOM      9  C   UNL     1      34.224 -14.478 -22.178  0.00  0.00    +0.090 C 
ATOM     10  C   UNL     1      35.335 -16.325 -22.973  0.00  0.00    +0.170 C 
ATOM     11  C   UNL     1      34.634 -16.226 -20.746  0.00  0.00    +0.113 C 
ATOM     12  C   UNL     1      35.267 -16.944 -21.741  0.00  0.00    +0.078 C 
ENDROOT
BRANCH  12  15
ATOM     13  O   UNL     1      36.883 -18.618 -22.060  0.00  0.00    -0.268 OA
ATOM     14  N   UNL     1      35.122 -19.107 -20.656  0.00  0.00    -0.194 N 
ATOM     15  C   UNL     1      35.823 -18.262 -21.507  0.00  0.00    +0.267 C 
ATOM     16  H   UNL     1      34.286 -18.822 -20.220  0.00  0.00    +0.183 HD
BRANCH  14  17
ATOM     17  O   UNL     1      35.659 -20.385 -20.444  0.00  0.00    -0.295 OA
ATOM     18  H   UNL     1      35.442 -20.683 -19.547  0.00  0.00    +0.241 HD
ENDBRANCH  14  17
ENDBRANCH  12  15
BRANCH   4  19
ATOM     19  C   UNL     1      32.395  -9.111 -22.772  0.00  0.00    -0.081 C 
BRANCH  19  20
ATOM     20  N   UNL     1      32.360  -8.698 -21.378  0.00  0.00    +0.386 N 
ATOM     21  H   UNL     1      32.746  -9.445 -20.799  0.00  0.00    -0.084 HD
ATOM     22  H   UNL     1      31.391  -8.510 -21.119  0.00  0.00    -0.084 HD
BRANCH  20  23
ATOM     23  C   UNL     1      33.139  -7.484 -21.172  0.00  0.00    -0.053 C 
BRANCH  23  25
ATOM     24  N   UNL     1      31.629  -4.808 -23.145  0.00  0.00    -0.284 N 
ATOM     25  C   UNL     1      32.739  -6.426 -22.162  0.00  0.00    -0.028 C 
ATOM     26  C   UNL     1      33.438  -6.098 -23.339  0.00  0.00    +0.009 C 
ATOM     27  C   UNL     1      31.638  -5.633 -22.053  0.00  0.00    +0.059 C 
ATOM     28  C   UNL     1      32.717  -5.070 -23.947  0.00  0.00    +0.051 C 
ATOM     29  C   UNL     1      34.614  -6.563 -23.961  0.00  0.00    +0.001 C 
ATOM     30  C   UNL     1      33.113  -4.480 -25.154  0.00  0.00    +0.015 C 
ATOM     31  C   UNL     1      30.615  -3.808 -23.403  0.00  0.00    +0.117 C 
ATOM     32  C   UNL     1      35.023  -5.983 -25.169  0.00  0.00    +0.000 C 
ATOM     33  C   UNL     1      34.282  -4.957 -25.754  0.00  0.00    +0.001 C 
ENDBRANCH  23  25
ENDBRANCH  20  23
ENDBRANCH  19  20
ENDBRANCH   4  19
TORSDOF 6
ENDMDL
MODEL 8
REMARK VINA RESULT:     -10.0      8.796     13.861
REMARK  Name = 11538455
REMARK  6 active torsions:
REMARK  status: ('A' for Active; 'I' for Inactive)
REMARK    1  A    between atoms: C_4  and  C_19
REMARK    2  A    between atoms: C_12  and  C_15
REMARK    3  A    between atoms: N_14  and  O_17
REMARK    4  A    between atoms: C_19  and  N_20
REMARK    5  A    between atoms: N_20  and  C_23
REMARK    6  A    between atoms: C_23  and  C_25
REMARK                            x       y       z     vdW  Elec       q    Type
REMARK                         _______ _______ _______ _____ _____    ______ ____
ROOT
ATOM      1  N   UNL     1      31.865  -9.204 -21.389  0.00  0.00    -0.253 N 
ATOM      2  N   UNL     1      31.991  -7.458 -22.972  0.00  0.00    -0.203 NA
ATOM      3  N   UNL     1      31.174  -7.041 -20.744  0.00  0.00    -0.180 NA
ATOM      4  C   UNL     1      32.396 -11.955 -20.660  0.00  0.00    -0.018 C 
ATOM      5  C   UNL     1      32.001 -11.562 -22.087  0.00  0.00    +0.020 C 
ATOM      6  C   UNL     1      31.779 -10.965 -19.668  0.00  0.00    +0.020 C 
ATOM      7  C   UNL     1      32.397 -10.120 -22.404  0.00  0.00    +0.101 C 
ATOM      8  C   UNL     1      32.181  -9.526 -19.991  0.00  0.00    +0.101 C 
ATOM      9  C   UNL     1      31.670  -7.856 -21.712  0.00  0.00    +0.090 C 
ATOM     10  C   UNL     1      31.788  -6.153 -23.250  0.00  0.00    +0.170 C 
ATOM     11  C   UNL     1      30.996  -5.750 -21.089  0.00  0.00    +0.113 C 
ATOM     12  C   UNL     1      31.289  -5.244 -22.340  0.00  0.00    +0.078 C 
ENDROOT
BRANCH  12  15
ATOM     13  O   UNL     1      31.804  -3.281 -23.522  0.00  0.00    -0.268 OA
ATOM     14  N   UNL     1      30.072  -3.173 -22.005  0.00  0.00    -0.194 N 
ATOM     15  C   UNL     1      31.086  -3.848 -22.674  0.00  0.00    +0.267 C 
ATOM     16  H   UNL     1      29.506  -3.626 -21.337  0.00  0.00    +0.183 HD
BRANCH  14  17
ATOM     17  O   UNL     1      29.889  -1.820 -22.325  0.00  0.00    -0.295 OA
ATOM     18  H   UNL     1      29.521  -1.746 -23.219  0.00  0.00    +0.241 HD
ENDBRANCH  14  17
ENDBRANCH  12  15
BRANCH   4  19
ATOM     19  C   UNL     1      31.955 -13.383 -20.348  0.00  0.00    -0.081 C 
BRANCH  19  20
ATOM     20  N   UNL     1      33.101 -14.225 -20.039  0.00  0.00    +0.386 N 
ATOM     21  H   UNL     1      32.840 -15.203 -20.167  0.00  0.00    -0.084 HD
ATOM     22  H   UNL     1      33.379 -14.053 -19.073  0.00  0.00    -0.084 HD
BRANCH  20  23
ATOM     23  C   UNL     1      34.227 -13.914 -20.909  0.00  0.00    -0.053 C 
BRANCH  23  25
ATOM     24  N   UNL     1      33.991 -15.548 -24.166  0.00  0.00    -0.284 N 
ATOM     25  C   UNL     1      34.231 -14.817 -22.111  0.00  0.00    -0.028 C 
ATOM     26  C   UNL     1      34.638 -16.165 -22.122  0.00  0.00    +0.009 C 
ATOM     27  C   UNL     1      33.839 -14.451 -23.362  0.00  0.00    +0.059 C 
ATOM     28  C   UNL     1      34.477 -16.609 -23.436  0.00  0.00    +0.051 C 
ATOM     29  C   UNL     1      35.129 -17.065 -21.157  0.00  0.00    +0.001 C 
ATOM     30  C   UNL     1      34.784 -17.916 -23.835  0.00  0.00    +0.015 C 
ATOM     31  C   UNL     1      33.682 -15.572 -25.580  0.00  0.00    +0.117 C 
ATOM     32  C   UNL     1      35.440 -18.376 -21.540  0.00  0.00    +0.000 C 
ATOM     33  C   UNL     1      35.269 -18.792 -22.860  0.00  0.00    +0.001 C 
ENDBRANCH  23  25
ENDBRANCH  20  23
ENDBRANCH  19  20
ENDBRANCH   4  19
TORSDOF 6
ENDMDL
MODEL 9
REMARK VINA RESULT:      -9.8      4.464     11.372
REMARK  Name = 11538455
REMARK  6 active torsions:
REMARK  status: ('A' for Active; 'I' for Inactive)
REMARK    1  A    between atoms: C_4  and  C_19
REMARK    2  A    between atoms: C_12  and  C_15
REMARK    3  A    between atoms: N_14  and  O_17
REMARK    4  A    between atoms: C_19  and  N_20
REMARK    5  A    between atoms: N_20  and  C_23
REMARK    6  A    between atoms: C_23  and  C_25
REMARK                            x       y       z     vdW  Elec       q    Type
REMARK                         _______ _______ _______ _____ _____    ______ ____
ROOT
ATOM      1  N   UNL     1      35.355 -20.601 -19.591  0.00  0.00    -0.253 N 
ATOM      2  N   UNL     1      34.167 -19.830 -21.480  0.00  0.00    -0.203 NA
ATOM      3  N   UNL     1      36.178 -18.718 -20.753  0.00  0.00    -0.180 NA
ATOM      4  C   UNL     1      35.709 -22.569 -17.498  0.00  0.00    -0.018 C 
ATOM      5  C   UNL     1      34.318 -22.155 -17.987  0.00  0.00    +0.020 C 
ATOM      6  C   UNL     1      36.682 -21.399 -17.676  0.00  0.00    +0.020 C 
ATOM      7  C   UNL     1      34.354 -21.661 -19.433  0.00  0.00    +0.101 C 
ATOM      8  C   UNL     1      36.713 -20.913 -19.123  0.00  0.00    +0.101 C 
ATOM      9  C   UNL     1      35.230 -19.686 -20.644  0.00  0.00    +0.090 C 
ATOM     10  C   UNL     1      34.076 -18.930 -22.481  0.00  0.00    +0.170 C 
ATOM     11  C   UNL     1      36.025 -17.853 -21.776  0.00  0.00    +0.113 C 
ATOM     12  C   UNL     1      34.984 -17.911 -22.680  0.00  0.00    +0.078 C 
ENDROOT
BRANCH  12  15
ATOM     13  O   UNL     1      35.480 -15.884 -23.757  0.00  0.00    -0.268 OA
ATOM     14  N   UNL     1      33.997 -17.300 -24.809  0.00  0.00    -0.194 N 
ATOM     15  C   UNL     1      34.853 -16.962 -23.769  0.00  0.00    +0.267 C 
ATOM     16  H   UNL     1      33.505 -18.153 -24.815  0.00  0.00    +0.183 HD
BRANCH  14  17
ATOM     17  O   UNL     1      33.866 -16.372 -25.853  0.00  0.00    -0.295 OA
ATOM     18  H   UNL     1      33.547 -15.528 -25.497  0.00  0.00    +0.241 HD
ENDBRANCH  14  17
ENDBRANCH  12  15
BRANCH   4  19
ATOM     19  C   UNL     1      35.661 -23.020 -16.040  0.00  0.00    -0.081 C 
BRANCH  19  20
ATOM     20  N   UNL     1      34.287 -23.194 -15.595  0.00  0.00    +0.386 N 
ATOM     21  H   UNL     1      33.664 -23.112 -16.399  0.00  0.00    -0.084 HD
ATOM     22  H   UNL     1      34.075 -22.474 -14.904  0.00  0.00    -0.084 HD
BRANCH  20  23
ATOM     23  C   UNL     1      34.099 -24.501 -14.978  0.00  0.00    -0.053 C 
BRANCH  23  25
ATOM     24  N   UNL     1      35.572 -24.519 -11.636  0.00  0.00    -0.284 N 
ATOM     25  C   UNL     1      34.935 -24.622 -13.733  0.00  0.00    -0.028 C 
ATOM     26  C   UNL     1      36.244 -25.134 -13.672  0.00  0.00    +0.009 C 
ATOM     27  C   UNL     1      34.534 -24.250 -12.487  0.00  0.00    +0.059 C 
ATOM     28  C   UNL     1      36.629 -25.059 -12.332  0.00  0.00    +0.051 C 
ATOM     29  C   UNL     1      37.154 -25.657 -14.611  0.00  0.00    +0.001 C 
ATOM     30  C   UNL     1      37.885 -25.483 -11.882  0.00  0.00    +0.015 C 
ATOM     31  C   UNL     1      35.544 -24.266 -10.211  0.00  0.00    +0.117 C 
ATOM     32  C   UNL     1      38.415 -26.085 -14.177  0.00  0.00    +0.000 C 
ATOM     33  C   UNL     1      38.772 -25.999 -12.832  0.00  0.00    +0.001 C 
ENDBRANCH  23  25
ENDBRANCH  20  23
ENDBRANCH  19  20
ENDBRANCH   4  19
TORSDOF 6
ENDMDL
