MODEL 1
REMARK VINA RESULT:     -11.3      0.000      0.000
REMARK  Name = 657131
REMARK  7 active torsions:
REMARK  status: ('A' for Active; 'I' for Inactive)
REMARK    1  A    between atoms: C_1  and  CA_2
REMARK    2  A    between atoms: C_1  and  C_3
REMARK    3  A    between atoms: CA_2  and  C_28
REMARK    4  A    between atoms: C_4  and  O_9
REMARK    5  A    between atoms: O_9  and  C_11
REMARK    6  A    between atoms: C_19  and  C_21
REMARK    7  A    between atoms: C_28  and  O_29
REMARK                            x       y       z     vdW  Elec       q    Type
REMARK                         _______ _______ _______ _____ _____    ______ ____
ROOT
ATOM      1  C   UNL     1      31.541 -11.842 -21.201  0.00  0.00    +0.074 C 
ENDROOT
BRANCH   1   2
ATOM      2  C   UNL     1      32.537 -12.825 -21.593  0.00  0.00    -0.016 C 
ATOM      3  C   UNL     1      34.447 -14.712 -22.349  0.00  0.00    +0.145 C 
ATOM      4  C   UNL     1      33.085 -13.683 -20.640  0.00  0.00    -0.001 C 
ATOM      5  C   UNL     1      32.944 -12.911 -22.925  0.00  0.00    -0.001 C 
ATOM      6  C   UNL     1      34.040 -14.627 -21.017  0.00  0.00    +0.037 C 
ATOM      7  C   UNL     1      33.899 -13.855 -23.302  0.00  0.00    +0.037 C 
BRANCH   3   8
ATOM      8  O   UNL     1      35.378 -15.634 -22.717  0.00  0.00    -0.453 OA
BRANCH   8  10
ATOM      9 BR   UNL     1      33.951 -17.027 -25.119  0.00  0.00    -0.046 Br
ATOM     10  C   UNL     1      35.095 -16.968 -22.478  0.00  0.00    +0.151 C 
ATOM     11  C   UNL     1      34.462 -17.739 -23.438  0.00  0.00    +0.069 C 
ATOM     12  C   UNL     1      35.464 -17.496 -21.253  0.00  0.00    +0.038 C 
ATOM     13  C   UNL     1      34.191 -19.080 -23.165  0.00  0.00    +0.010 C 
ATOM     14  C   UNL     1      35.193 -18.838 -20.980  0.00  0.00    +0.003 C 
ATOM     15  C   UNL     1      34.557 -19.629 -21.936  0.00  0.00    +0.001 C 
ENDBRANCH   8  10
ENDBRANCH   3   8
ENDBRANCH   1   2
BRANCH   1  16
ATOM     16  CA  UNL     1      31.780 -10.555 -20.854  0.00  0.00    +0.108 C 
ATOM     17  O   UNL     1      32.323  -7.819 -20.250  0.00  0.00    -0.270 OA
ATOM     18  N   UNL     1      32.259  -9.616 -21.724  0.00  0.00    -0.278 N 
ATOM     19  C   UNL     1      32.502  -8.299 -21.367  0.00  0.00    +0.249 C 
ATOM     20  H   UNL     1      32.439  -9.890 -22.652  0.00  0.00    +0.155 HD
BRANCH  19  21
ATOM     21  C   UNL     1      33.044  -7.432 -22.445  0.00  0.00    +0.054 C 
ATOM     22  C   UNL     1      34.401  -7.443 -22.689  0.00  0.00    +0.005 C 
ATOM     23  C   UNL     1      32.172  -6.646 -23.168  0.00  0.00    +0.005 C 
ATOM     24  C   UNL     1      34.910  -6.630 -23.701  0.00  0.00    +0.000 C 
ATOM     25  C   UNL     1      32.681  -5.833 -24.181  0.00  0.00    +0.000 C 
ATOM     26  C   UNL     1      34.050  -5.825 -24.447  0.00  0.00    +0.000 C 
ENDBRANCH  19  21
BRANCH  16  28
ATOM     27  OXT UNL     1      30.423  -9.932 -18.961  0.00  0.00    -0.244 OA
ATOM     28  C   UNL     1      31.523 -10.147 -19.447  0.00  0.00    +0.348 C 
BRANCH  28  29
ATOM     29  O   UNL     1      32.683 -10.039 -18.755  0.00  0.00    -0.476 OA
ATOM     30  H   UNL     1      32.715  -9.526 -17.972  0.00  0.00    +0.295 HD
ENDBRANCH  28  29
ENDBRANCH  16  28
ENDBRANCH   1  16
TORSDOF 7
ENDMDL
MODEL 2
REMARK VINA RESULT:     -11.2      2.972      9.833
REMARK  Name = 657131
REMARK  7 active torsions:
REMARK  status: ('A' for Active; 'I' for Inactive)
REMARK    1  A    between atoms: C_1  and  CA_2
REMARK    2  A    between atoms: C_1  and  C_3
REMARK    3  A    between atoms: CA_2  and  C_28
REMARK    4  A    between atoms: C_4  and  O_9
REMARK    5  A    between atoms: O_9  and  C_11
REMARK    6  A    between atoms: C_19  and  C_21
REMARK    7  A    between atoms: C_28  and  O_29
REMARK                            x       y       z     vdW  Elec       q    Type
REMARK                         _______ _______ _______ _____ _____    ______ ____
ROOT
ATOM      1  C   UNL     1      34.912 -14.830 -22.899  0.00  0.00    +0.074 C 
ENDROOT
BRANCH   1   2
ATOM      2  C   UNL     1      33.944 -13.792 -22.586  0.00  0.00    -0.016 C 
ATOM      3  C   UNL     1      32.087 -11.797 -21.988  0.00  0.00    +0.145 C 
ATOM      4  C   UNL     1      33.098 -13.932 -21.486  0.00  0.00    -0.001 C 
ATOM      5  C   UNL     1      33.861 -12.652 -23.388  0.00  0.00    -0.001 C 
ATOM      6  C   UNL     1      32.170 -12.935 -21.186  0.00  0.00    +0.037 C 
ATOM      7  C   UNL     1      32.933 -11.655 -23.088  0.00  0.00    +0.037 C 
BRANCH   3   8
ATOM      8  O   UNL     1      31.183 -10.824 -21.695  0.00  0.00    -0.453 OA
BRANCH   8  10
ATOM      9 BR   UNL     1      31.827 -10.263 -18.692  0.00  0.00    -0.046 Br
ATOM     10  C   UNL     1      31.662  -9.543 -21.474  0.00  0.00    +0.151 C 
ATOM     11  C   UNL     1      31.998  -9.125 -20.198  0.00  0.00    +0.069 C 
ATOM     12  C   UNL     1      31.790  -8.706 -22.569  0.00  0.00    +0.038 C 
ATOM     13  C   UNL     1      32.478  -7.829 -20.011  0.00  0.00    +0.010 C 
ATOM     14  C   UNL     1      32.271  -7.409 -22.381  0.00  0.00    +0.003 C 
ATOM     15  C   UNL     1      32.614  -6.971 -21.102  0.00  0.00    +0.001 C 
ENDBRANCH   8  10
ENDBRANCH   3   8
ENDBRANCH   1   2
BRANCH   1  16
ATOM     16  CA  UNL     1      34.634 -16.126 -23.173  0.00  0.00    +0.108 C 
ATOM     17  O   UNL     1      34.085 -18.891 -23.622  0.00  0.00    -0.270 OA
ATOM     18  N   UNL     1      34.785 -17.138 -22.265  0.00  0.00    -0.278 N 
ATOM     19  C   UNL     1      34.500 -18.464 -22.547  0.00  0.00    +0.249 C 
ATOM     20  H   UNL     1      35.113 -16.911 -21.365  0.00  0.00    +0.155 HD
BRANCH  19  21
ATOM     21  C   UNL     1      34.749 -19.423 -21.439  0.00  0.00    +0.054 C 
ATOM     22  C   UNL     1      36.048 -19.646 -21.032  0.00  0.00    +0.005 C 
ATOM     23  C   UNL     1      33.674 -20.057 -20.853  0.00  0.00    +0.005 C 
ATOM     24  C   UNL     1      36.282 -20.545 -19.993  0.00  0.00    +0.000 C 
ATOM     25  C   UNL     1      33.909 -20.957 -19.813  0.00  0.00    +0.000 C 
ATOM     26  C   UNL     1      35.213 -21.201 -19.383  0.00  0.00    +0.000 C 
ENDBRANCH  19  21
BRANCH  16  28
ATOM     27  OXT UNL     1      34.867 -16.644 -25.516  0.00  0.00    -0.244 OA
ATOM     28  C   UNL     1      34.155 -16.470 -24.538  0.00  0.00    +0.348 C 
BRANCH  28  29
ATOM     29  O   UNL     1      32.804 -16.567 -24.566  0.00  0.00    -0.476 OA
ATOM     30  H   UNL     1      32.302 -16.328 -23.813  0.00  0.00    +0.295 HD
ENDBRANCH  28  29
ENDBRANCH  16  28
ENDBRANCH   1  16
TORSDOF 7
ENDMDL
MODEL 3
REMARK VINA RESULT:     -11.2      1.085      1.530
REMARK  Name = 657131
REMARK  7 active torsions:
REMARK  status: ('A' for Active; 'I' for Inactive)
REMARK    1  A    between atoms: C_1  and  CA_2
REMARK    2  A    between atoms: C_1  and  C_3
REMARK    3  A    between atoms: CA_2  and  C_28
REMARK    4  A    between atoms: C_4  and  O_9
REMARK    5  A    between atoms: O_9  and  C_11
REMARK    6  A    between atoms: C_19  and  C_21
REMARK    7  A    between atoms: C_28  and  O_29
REMARK                            x       y       z     vdW  Elec       q    Type
REMARK                         _______ _______ _______ _____ _____    ______ ____
ROOT
ATOM      1  C   UNL     1      31.578 -11.612 -21.180  0.00  0.00    +0.074 C 
ENDROOT
BRANCH   1   2
ATOM      2  C   UNL     1      32.541 -12.625 -21.582  0.00  0.00    -0.016 C 
ATOM      3  C   UNL     1      34.388 -14.567 -22.357  0.00  0.00    +0.145 C 
ATOM      4  C   UNL     1      32.894 -13.644 -20.698  0.00  0.00    -0.001 C 
ATOM      5  C   UNL     1      33.111 -12.577 -22.855  0.00  0.00    -0.001 C 
ATOM      6  C   UNL     1      33.817 -14.615 -21.085  0.00  0.00    +0.037 C 
ATOM      7  C   UNL     1      34.035 -13.549 -23.242  0.00  0.00    +0.037 C 
BRANCH   3   8
ATOM      8  O   UNL     1      35.288 -15.515 -22.734  0.00  0.00    -0.453 OA
BRANCH   8  10
ATOM      9 BR   UNL     1      35.896 -18.019 -20.971  0.00  0.00    -0.046 Br
ATOM     10  C   UNL     1      34.796 -16.691 -23.276  0.00  0.00    +0.151 C 
ATOM     11  C   UNL     1      34.977 -17.899 -22.624  0.00  0.00    +0.069 C 
ATOM     12  C   UNL     1      34.123 -16.613 -24.483  0.00  0.00    +0.038 C 
ATOM     13  C   UNL     1      34.468 -19.065 -23.197  0.00  0.00    +0.010 C 
ATOM     14  C   UNL     1      33.615 -17.779 -25.056  0.00  0.00    +0.003 C 
ATOM     15  C   UNL     1      33.788 -19.005 -24.413  0.00  0.00    +0.001 C 
ENDBRANCH   8  10
ENDBRANCH   3   8
ENDBRANCH   1   2
BRANCH   1  16
ATOM     16  CA  UNL     1      31.857 -10.330 -20.849  0.00  0.00    +0.108 C 
ATOM     17  O   UNL     1      32.478  -7.603 -20.279  0.00  0.00    -0.270 OA
ATOM     18  N   UNL     1      32.306  -9.400 -21.745  0.00  0.00    -0.278 N 
ATOM     19  C   UNL     1      32.590  -8.087 -21.403  0.00  0.00    +0.249 C 
ATOM     20  H   UNL     1      32.433  -9.678 -22.680  0.00  0.00    +0.155 HD
BRANCH  19  21
ATOM     21  C   UNL     1      33.090  -7.230 -22.510  0.00  0.00    +0.054 C 
ATOM     22  C   UNL     1      34.418  -7.319 -22.871  0.00  0.00    +0.005 C 
ATOM     23  C   UNL     1      32.209  -6.377 -23.141  0.00  0.00    +0.005 C 
ATOM     24  C   UNL     1      34.887  -6.516 -23.910  0.00  0.00    +0.000 C 
ATOM     25  C   UNL     1      32.679  -5.574 -24.180  0.00  0.00    +0.000 C 
ATOM     26  C   UNL     1      34.018  -5.643 -24.565  0.00  0.00    +0.000 C 
ENDBRANCH  19  21
BRANCH  16  28
ATOM     27  OXT UNL     1      30.610  -9.700 -18.884  0.00  0.00    -0.244 OA
ATOM     28  C   UNL     1      31.681  -9.916 -19.431  0.00  0.00    +0.348 C 
BRANCH  28  29
ATOM     29  O   UNL     1      32.878  -9.804 -18.808  0.00  0.00    -0.476 OA
ATOM     30  H   UNL     1      33.038 -10.270 -18.011  0.00  0.00    +0.295 HD
ENDBRANCH  28  29
ENDBRANCH  16  28
ENDBRANCH   1  16
TORSDOF 7
ENDMDL
MODEL 4
REMARK VINA RESULT:     -10.7      5.571      8.580
REMARK  Name = 657131
REMARK  7 active torsions:
REMARK  status: ('A' for Active; 'I' for Inactive)
REMARK    1  A    between atoms: C_1  and  CA_2
REMARK    2  A    between atoms: C_1  and  C_3
REMARK    3  A    between atoms: CA_2  and  C_28
REMARK    4  A    between atoms: C_4  and  O_9
REMARK    5  A    between atoms: O_9  and  C_11
REMARK    6  A    between atoms: C_19  and  C_21
REMARK    7  A    between atoms: C_28  and  O_29
REMARK                            x       y       z     vdW  Elec       q    Type
REMARK                         _______ _______ _______ _____ _____    ______ ____
ROOT
ATOM      1  C   UNL     1      35.300 -18.411 -21.286  0.00  0.00    +0.074 C 
ENDROOT
BRANCH   1   2
ATOM      2  C   UNL     1      35.106 -19.641 -20.536  0.00  0.00    -0.016 C 
ATOM      3  C   UNL     1      34.737 -22.002 -19.096  0.00  0.00    +0.145 C 
ATOM      4  C   UNL     1      33.817 -20.096 -20.260  0.00  0.00    -0.001 C 
ATOM      5  C   UNL     1      36.211 -20.367 -20.091  0.00  0.00    -0.001 C 
ATOM      6  C   UNL     1      33.632 -21.277 -19.541  0.00  0.00    +0.037 C 
ATOM      7  C   UNL     1      36.026 -21.548 -19.371  0.00  0.00    +0.037 C 
BRANCH   3   8
ATOM      8  O   UNL     1      34.557 -23.154 -18.395  0.00  0.00    -0.453 OA
BRANCH   8  10
ATOM      9 BR   UNL     1      36.456 -22.835 -15.938  0.00  0.00    -0.046 Br
ATOM     10  C   UNL     1      33.876 -23.077 -17.192  0.00  0.00    +0.151 C 
ATOM     11  C   UNL     1      34.564 -22.933 -15.999  0.00  0.00    +0.069 C 
ATOM     12  C   UNL     1      32.494 -23.147 -17.227  0.00  0.00    +0.038 C 
ATOM     13  C   UNL     1      33.847 -22.858 -14.805  0.00  0.00    +0.010 C 
ATOM     14  C   UNL     1      31.777 -23.071 -16.033  0.00  0.00    +0.003 C 
ATOM     15  C   UNL     1      32.454 -22.927 -14.822  0.00  0.00    +0.001 C 
ENDBRANCH   8  10
ENDBRANCH   3   8
ENDBRANCH   1   2
BRANCH   1  16
ATOM     16  CA  UNL     1      34.798 -18.134 -22.512  0.00  0.00    +0.108 C 
ATOM     17  O   UNL     1      33.749 -17.417 -25.068  0.00  0.00    -0.270 OA
ATOM     18  N   UNL     1      34.576 -16.864 -22.966  0.00  0.00    -0.278 N 
ATOM     19  C   UNL     1      34.063 -16.582 -24.222  0.00  0.00    +0.249 C 
ATOM     20  H   UNL     1      34.793 -16.111 -22.370  0.00  0.00    +0.155 HD
BRANCH  19  21
ATOM     21  C   UNL     1      33.870 -15.140 -24.528  0.00  0.00    +0.054 C 
ATOM     22  C   UNL     1      33.472 -14.777 -25.798  0.00  0.00    +0.005 C 
ATOM     23  C   UNL     1      34.093 -14.213 -23.532  0.00  0.00    +0.005 C 
ATOM     24  C   UNL     1      33.291 -13.424 -26.084  0.00  0.00    +0.000 C 
ATOM     25  C   UNL     1      33.911 -12.860 -23.819  0.00  0.00    +0.000 C 
ATOM     26  C   UNL     1      33.510 -12.466 -25.095  0.00  0.00    +0.000 C 
ENDBRANCH  19  21
BRANCH  16  28
ATOM     27  OXT UNL     1      35.258 -19.968 -24.007  0.00  0.00    -0.244 OA
ATOM     28  C   UNL     1      34.454 -19.272 -23.405  0.00  0.00    +0.348 C 
BRANCH  28  29
ATOM     29  O   UNL     1      33.113 -19.446 -23.472  0.00  0.00    -0.476 OA
ATOM     30  H   UNL     1      32.562 -18.742 -23.752  0.00  0.00    +0.295 HD
ENDBRANCH  28  29
ENDBRANCH  16  28
ENDBRANCH   1  16
TORSDOF 7
ENDMDL
MODEL 5
REMARK VINA RESULT:     -10.6      6.553     12.132
REMARK  Name = 657131
REMARK  7 active torsions:
REMARK  status: ('A' for Active; 'I' for Inactive)
REMARK    1  A    between atoms: C_1  and  CA_2
REMARK    2  A    between atoms: C_1  and  C_3
REMARK    3  A    between atoms: CA_2  and  C_28
REMARK    4  A    between atoms: C_4  and  O_9
REMARK    5  A    between atoms: O_9  and  C_11
REMARK    6  A    between atoms: C_19  and  C_21
REMARK    7  A    between atoms: C_28  and  O_29
REMARK                            x       y       z     vdW  Elec       q    Type
REMARK                         _______ _______ _______ _____ _____    ______ ____
ROOT
ATOM      1  C   UNL     1      35.638 -21.985 -19.242  0.00  0.00    +0.074 C 
ENDROOT
BRANCH   1   2
ATOM      2  C   UNL     1      35.624 -20.706 -19.933  0.00  0.00    -0.016 C 
ATOM      3  C   UNL     1      35.598 -18.250 -21.257  0.00  0.00    +0.145 C 
ATOM      4  C   UNL     1      34.413 -20.142 -20.335  0.00  0.00    -0.001 C 
ATOM      5  C   UNL     1      36.822 -20.040 -20.193  0.00  0.00    -0.001 C 
ATOM      6  C   UNL     1      34.399 -18.914 -20.997  0.00  0.00    +0.037 C 
ATOM      7  C   UNL     1      36.809 -18.813 -20.855  0.00  0.00    +0.037 C 
BRANCH   3   8
ATOM      8  O   UNL     1      35.585 -17.052 -21.902  0.00  0.00    -0.453 OA
BRANCH   8  10
ATOM      9 BR   UNL     1      34.383 -14.192 -22.247  0.00  0.00    -0.046 Br
ATOM     10  C   UNL     1      34.783 -16.934 -23.025  0.00  0.00    +0.151 C 
ATOM     11  C   UNL     1      34.168 -15.731 -23.331  0.00  0.00    +0.069 C 
ATOM     12  C   UNL     1      34.621 -18.054 -23.822  0.00  0.00    +0.038 C 
ATOM     13  C   UNL     1      33.367 -15.647 -24.470  0.00  0.00    +0.010 C 
ATOM     14  C   UNL     1      33.819 -17.968 -24.962  0.00  0.00    +0.003 C 
ATOM     15  C   UNL     1      33.193 -16.765 -25.285  0.00  0.00    +0.001 C 
ENDBRANCH   8  10
ENDBRANCH   3   8
ENDBRANCH   1   2
BRANCH   1  16
ATOM     16  CA  UNL     1      35.610 -22.171 -17.902  0.00  0.00    +0.108 C 
ATOM     17  O   UNL     1      35.424 -22.612 -15.088  0.00  0.00    -0.270 OA
ATOM     18  N   UNL     1      34.526 -22.666 -17.232  0.00  0.00    -0.278 N 
ATOM     19  C   UNL     1      34.500 -22.857 -15.860  0.00  0.00    +0.249 C 
ATOM     20  H   UNL     1      33.724 -22.900 -17.752  0.00  0.00    +0.155 HD
BRANCH  19  21
ATOM     21  C   UNL     1      33.223 -23.383 -15.310  0.00  0.00    +0.054 C 
ATOM     22  C   UNL     1      33.249 -24.081 -14.120  0.00  0.00    +0.005 C 
ATOM     23  C   UNL     1      32.055 -23.155 -16.005  0.00  0.00    +0.005 C 
ATOM     24  C   UNL     1      32.052 -24.574 -13.604  0.00  0.00    +0.000 C 
ATOM     25  C   UNL     1      30.857 -23.649 -15.488  0.00  0.00    +0.000 C 
ATOM     26  C   UNL     1      30.855 -24.359 -14.287  0.00  0.00    +0.000 C 
ENDBRANCH  19  21
BRANCH  16  28
ATOM     27  OXT UNL     1      37.138 -20.666 -16.800  0.00  0.00    -0.244 OA
ATOM     28  C   UNL     1      36.817 -21.802 -17.115  0.00  0.00    +0.348 C 
BRANCH  28  29
ATOM     29  O   UNL     1      37.534 -22.903 -16.786  0.00  0.00    -0.476 OA
ATOM     30  H   UNL     1      37.173 -23.756 -16.922  0.00  0.00    +0.295 HD
ENDBRANCH  28  29
ENDBRANCH  16  28
ENDBRANCH   1  16
TORSDOF 7
ENDMDL
MODEL 6
REMARK VINA RESULT:     -10.5      3.098      9.694
REMARK  Name = 657131
REMARK  7 active torsions:
REMARK  status: ('A' for Active; 'I' for Inactive)
REMARK    1  A    between atoms: C_1  and  CA_2
REMARK    2  A    between atoms: C_1  and  C_3
REMARK    3  A    between atoms: CA_2  and  C_28
REMARK    4  A    between atoms: C_4  and  O_9
REMARK    5  A    between atoms: O_9  and  C_11
REMARK    6  A    between atoms: C_19  and  C_21
REMARK    7  A    between atoms: C_28  and  O_29
REMARK                            x       y       z     vdW  Elec       q    Type
REMARK                         _______ _______ _______ _____ _____    ______ ____
ROOT
ATOM      1  C   UNL     1      34.861 -14.430 -23.036  0.00  0.00    +0.074 C 
ENDROOT
BRANCH   1   2
ATOM      2  C   UNL     1      33.886 -13.412 -22.680  0.00  0.00    -0.016 C 
ATOM      3  C   UNL     1      32.015 -11.460 -21.996  0.00  0.00    +0.145 C 
ATOM      4  C   UNL     1      33.864 -12.197 -23.364  0.00  0.00    -0.001 C 
ATOM      5  C   UNL     1      32.971 -13.651 -21.654  0.00  0.00    -0.001 C 
ATOM      6  C   UNL     1      32.928 -11.220 -23.022  0.00  0.00    +0.037 C 
ATOM      7  C   UNL     1      32.036 -12.675 -21.312  0.00  0.00    +0.037 C 
BRANCH   3   8
ATOM      8  O   UNL     1      31.101 -10.507 -21.663  0.00  0.00    -0.453 OA
BRANCH   8  10
ATOM      9 BR   UNL     1      31.031  -7.974 -23.486  0.00  0.00    -0.046 Br
ATOM     10  C   UNL     1      31.561  -9.368 -21.024  0.00  0.00    +0.151 C 
ATOM     11  C   UNL     1      31.599  -8.153 -21.687  0.00  0.00    +0.069 C 
ATOM     12  C   UNL     1      31.979  -9.490 -19.710  0.00  0.00    +0.038 C 
ATOM     13  C   UNL     1      32.068  -7.025 -21.014  0.00  0.00    +0.010 C 
ATOM     14  C   UNL     1      32.448  -8.361 -19.037  0.00  0.00    +0.003 C 
ATOM     15  C   UNL     1      32.493  -7.129 -19.690  0.00  0.00    +0.001 C 
ENDBRANCH   8  10
ENDBRANCH   3   8
ENDBRANCH   1   2
BRANCH   1  16
ATOM     16  CA  UNL     1      34.598 -15.731 -23.303  0.00  0.00    +0.108 C 
ATOM     17  O   UNL     1      34.093 -18.505 -23.745  0.00  0.00    -0.270 OA
ATOM     18  N   UNL     1      34.869 -16.749 -22.433  0.00  0.00    -0.278 N 
ATOM     19  C   UNL     1      34.598 -18.081 -22.708  0.00  0.00    +0.249 C 
ATOM     20  H   UNL     1      35.277 -16.525 -21.565  0.00  0.00    +0.155 HD
BRANCH  19  21
ATOM     21  C   UNL     1      34.985 -19.046 -21.647  0.00  0.00    +0.054 C 
ATOM     22  C   UNL     1      36.303 -19.100 -21.245  0.00  0.00    +0.005 C 
ATOM     23  C   UNL     1      34.013 -19.856 -21.098  0.00  0.00    +0.005 C 
ATOM     24  C   UNL     1      36.666 -20.005 -20.249  0.00  0.00    +0.000 C 
ATOM     25  C   UNL     1      34.377 -20.762 -20.101  0.00  0.00    +0.000 C 
ATOM     26  C   UNL     1      35.704 -20.837 -19.677  0.00  0.00    +0.000 C 
ENDBRANCH  19  21
BRANCH  16  28
ATOM     27  OXT UNL     1      32.806 -16.027 -24.889  0.00  0.00    -0.244 OA
ATOM     28  C   UNL     1      33.998 -16.070 -24.621  0.00  0.00    +0.348 C 
BRANCH  28  29
ATOM     29  O   UNL     1      34.953 -16.443 -25.506  0.00  0.00    -0.476 OA
ATOM     30  H   UNL     1      35.804 -16.690 -25.201  0.00  0.00    +0.295 HD
ENDBRANCH  28  29
ENDBRANCH  16  28
ENDBRANCH   1  16
TORSDOF 7
ENDMDL
MODEL 7
REMARK VINA RESULT:     -10.4      6.046     12.199
REMARK  Name = 657131
REMARK  7 active torsions:
REMARK  status: ('A' for Active; 'I' for Inactive)
REMARK    1  A    between atoms: C_1  and  CA_2
REMARK    2  A    between atoms: C_1  and  C_3
REMARK    3  A    between atoms: CA_2  and  C_28
REMARK    4  A    between atoms: C_4  and  O_9
REMARK    5  A    between atoms: O_9  and  C_11
REMARK    6  A    between atoms: C_19  and  C_21
REMARK    7  A    between atoms: C_28  and  O_29
REMARK                            x       y       z     vdW  Elec       q    Type
REMARK                         _______ _______ _______ _____ _____    ______ ____
ROOT
ATOM      1  C   UNL     1      36.115 -21.519 -19.092  0.00  0.00    +0.074 C 
ENDROOT
BRANCH   1   2
ATOM      2  C   UNL     1      35.904 -20.469 -20.075  0.00  0.00    -0.016 C 
ATOM      3  C   UNL     1      35.496 -18.456 -21.963  0.00  0.00    +0.145 C 
ATOM      4  C   UNL     1      36.940 -19.591 -20.394  0.00  0.00    -0.001 C 
ATOM      5  C   UNL     1      34.663 -20.340 -20.701  0.00  0.00    -0.001 C 
ATOM      6  C   UNL     1      36.736 -18.584 -21.338  0.00  0.00    +0.037 C 
ATOM      7  C   UNL     1      34.460 -19.333 -21.645  0.00  0.00    +0.037 C 
BRANCH   3   8
ATOM      8  O   UNL     1      35.298 -17.474 -22.884  0.00  0.00    -0.453 OA
BRANCH   8  10
ATOM      9 BR   UNL     1      34.010 -15.814 -25.193  0.00  0.00    -0.046 Br
ATOM     10  C   UNL     1      34.739 -16.284 -22.448  0.00  0.00    +0.151 C 
ATOM     11  C   UNL     1      34.124 -15.424 -23.342  0.00  0.00    +0.069 C 
ATOM     12  C   UNL     1      34.819 -15.992 -21.098  0.00  0.00    +0.038 C 
ATOM     13  C   UNL     1      33.571 -14.233 -22.869  0.00  0.00    +0.010 C 
ATOM     14  C   UNL     1      34.265 -14.801 -20.626  0.00  0.00    +0.003 C 
ATOM     15  C   UNL     1      33.642 -13.922 -21.511  0.00  0.00    +0.001 C 
ENDBRANCH   8  10
ENDBRANCH   3   8
ENDBRANCH   1   2
BRANCH   1  16
ATOM     16  CA  UNL     1      35.167 -22.081 -18.306  0.00  0.00    +0.108 C 
ATOM     17  O   UNL     1      33.259 -23.267 -16.545  0.00  0.00    -0.270 OA
ATOM     18  N   UNL     1      35.377 -22.420 -16.998  0.00  0.00    -0.278 N 
ATOM     19  C   UNL     1      34.405 -22.995 -16.194  0.00  0.00    +0.249 C 
ATOM     20  H   UNL     1      36.264 -22.246 -16.607  0.00  0.00    +0.155 HD
BRANCH  19  21
ATOM     21  C   UNL     1      34.828 -23.314 -14.806  0.00  0.00    +0.054 C 
ATOM     22  C   UNL     1      33.920 -23.911 -13.955  0.00  0.00    +0.005 C 
ATOM     23  C   UNL     1      36.113 -23.007 -14.414  0.00  0.00    +0.005 C 
ATOM     24  C   UNL     1      34.316 -24.211 -12.652  0.00  0.00    +0.000 C 
ATOM     25  C   UNL     1      36.510 -23.307 -13.110  0.00  0.00    +0.000 C 
ATOM     26  C   UNL     1      35.611 -23.909 -12.229  0.00  0.00    +0.000 C 
ENDBRANCH  19  21
BRANCH  16  28
ATOM     27  OXT UNL     1      32.890 -21.583 -18.921  0.00  0.00    -0.244 OA
ATOM     28  C   UNL     1      33.834 -22.359 -18.901  0.00  0.00    +0.348 C 
BRANCH  28  29
ATOM     29  O   UNL     1      33.791 -23.606 -19.430  0.00  0.00    -0.476 OA
ATOM     30  H   UNL     1      34.489 -23.907 -19.977  0.00  0.00    +0.295 HD
ENDBRANCH  28  29
ENDBRANCH  16  28
ENDBRANCH   1  16
TORSDOF 7
ENDMDL
MODEL 8
REMARK VINA RESULT:     -10.2      6.355     12.181
REMARK  Name = 657131
REMARK  7 active torsions:
REMARK  status: ('A' for Active; 'I' for Inactive)
REMARK    1  A    between atoms: C_1  and  CA_2
REMARK    2  A    between atoms: C_1  and  C_3
REMARK    3  A    between atoms: CA_2  and  C_28
REMARK    4  A    between atoms: C_4  and  O_9
REMARK    5  A    between atoms: O_9  and  C_11
REMARK    6  A    between atoms: C_19  and  C_21
REMARK    7  A    between atoms: C_28  and  O_29
REMARK                            x       y       z     vdW  Elec       q    Type
REMARK                         _______ _______ _______ _____ _____    ______ ____
ROOT
ATOM      1  C   UNL     1      35.872 -21.829 -19.463  0.00  0.00    +0.074 C 
ENDROOT
BRANCH   1   2
ATOM      2  C   UNL     1      35.771 -20.508 -20.061  0.00  0.00    -0.016 C 
ATOM      3  C   UNL     1      35.574 -17.973 -21.209  0.00  0.00    +0.145 C 
ATOM      4  C   UNL     1      36.915 -19.731 -20.237  0.00  0.00    -0.001 C 
ATOM      5  C   UNL     1      34.527 -20.018 -20.460  0.00  0.00    -0.001 C 
ATOM      6  C   UNL     1      36.817 -18.463 -20.811  0.00  0.00    +0.037 C 
ATOM      7  C   UNL     1      34.429 -18.750 -21.035  0.00  0.00    +0.037 C 
BRANCH   3   8
ATOM      8  O   UNL     1      35.478 -16.737 -21.770  0.00  0.00    -0.453 OA
BRANCH   8  10
ATOM      9 BR   UNL     1      34.238 -13.897 -22.148  0.00  0.00    -0.046 Br
ATOM     10  C   UNL     1      34.751 -16.616 -22.943  0.00  0.00    +0.151 C 
ATOM     11  C   UNL     1      34.132 -15.422 -23.269  0.00  0.00    +0.069 C 
ATOM     12  C   UNL     1      34.668 -17.725 -23.767  0.00  0.00    +0.038 C 
ATOM     13  C   UNL     1      33.407 -15.334 -24.458  0.00  0.00    +0.010 C 
ATOM     14  C   UNL     1      33.944 -17.636 -24.957  0.00  0.00    +0.003 C 
ATOM     15  C   UNL     1      33.313 -16.441 -25.301  0.00  0.00    +0.001 C 
ENDBRANCH   8  10
ENDBRANCH   3   8
ENDBRANCH   1   2
BRANCH   1  16
ATOM     16  CA  UNL     1      35.037 -22.354 -18.536  0.00  0.00    +0.108 C 
ATOM     17  O   UNL     1      33.376 -23.446 -16.488  0.00  0.00    -0.270 OA
ATOM     18  N   UNL     1      35.389 -22.549 -17.229  0.00  0.00    -0.278 N 
ATOM     19  C   UNL     1      34.532 -23.086 -16.281  0.00  0.00    +0.249 C 
ATOM     20  H   UNL     1      36.297 -22.294 -16.948  0.00  0.00    +0.155 HD
BRANCH  19  21
ATOM     21  C   UNL     1      35.102 -23.242 -14.917  0.00  0.00    +0.054 C 
ATOM     22  C   UNL     1      34.323 -23.813 -13.932  0.00  0.00    +0.005 C 
ATOM     23  C   UNL     1      36.391 -22.815 -14.682  0.00  0.00    +0.005 C 
ATOM     24  C   UNL     1      34.858 -23.961 -12.653  0.00  0.00    +0.000 C 
ATOM     25  C   UNL     1      36.926 -22.963 -13.402  0.00  0.00    +0.000 C 
ATOM     26  C   UNL     1      36.159 -23.536 -12.387  0.00  0.00    +0.000 C 
ENDBRANCH  19  21
BRANCH  16  28
ATOM     27  OXT UNL     1      32.687 -22.030 -18.966  0.00  0.00    -0.244 OA
ATOM     28  C   UNL     1      33.671 -22.754 -18.966  0.00  0.00    +0.348 C 
BRANCH  28  29
ATOM     29  O   UNL     1      33.650 -24.049 -19.364  0.00  0.00    -0.476 OA
ATOM     30  H   UNL     1      33.093 -24.664 -18.929  0.00  0.00    +0.295 HD
ENDBRANCH  28  29
ENDBRANCH  16  28
ENDBRANCH   1  16
TORSDOF 7
ENDMDL
MODEL 9
REMARK VINA RESULT:     -10.2      8.705     13.745
REMARK  Name = 657131
REMARK  7 active torsions:
REMARK  status: ('A' for Active; 'I' for Inactive)
REMARK    1  A    between atoms: C_1  and  CA_2
REMARK    2  A    between atoms: C_1  and  C_3
REMARK    3  A    between atoms: CA_2  and  C_28
REMARK    4  A    between atoms: C_4  and  O_9
REMARK    5  A    between atoms: O_9  and  C_11
REMARK    6  A    between atoms: C_19  and  C_21
REMARK    7  A    between atoms: C_28  and  O_29
REMARK                            x       y       z     vdW  Elec       q    Type
REMARK                         _______ _______ _______ _____ _____    ______ ____
ROOT
ATOM      1  C   UNL     1      35.772 -22.784 -14.534  0.00  0.00    +0.074 C 
ENDROOT
BRANCH   1   2
ATOM      2  C   UNL     1      35.742 -22.506 -15.960  0.00  0.00    -0.016 C 
ATOM      3  C   UNL     1      35.682 -21.976 -18.699  0.00  0.00    +0.145 C 
ATOM      4  C   UNL     1      36.846 -21.925 -16.583  0.00  0.00    -0.001 C 
ATOM      5  C   UNL     1      34.607 -22.823 -16.708  0.00  0.00    -0.001 C 
ATOM      6  C   UNL     1      36.817 -21.660 -17.953  0.00  0.00    +0.037 C 
ATOM      7  C   UNL     1      34.577 -22.558 -18.077  0.00  0.00    +0.037 C 
BRANCH   3   8
ATOM      8  O   UNL     1      35.653 -21.718 -20.035  0.00  0.00    -0.453 OA
BRANCH   8  10
ATOM      9 BR   UNL     1      32.811 -20.472 -20.375  0.00  0.00    -0.046 Br
ATOM     10  C   UNL     1      35.687 -20.393 -20.436  0.00  0.00    +0.151 C 
ATOM     11  C   UNL     1      34.515 -19.684 -20.635  0.00  0.00    +0.069 C 
ATOM     12  C   UNL     1      36.928 -19.810 -20.628  0.00  0.00    +0.038 C 
ATOM     13  C   UNL     1      34.586 -18.351 -21.039  0.00  0.00    +0.010 C 
ATOM     14  C   UNL     1      36.998 -18.476 -21.032  0.00  0.00    +0.003 C 
ATOM     15  C   UNL     1      35.827 -17.747 -21.238  0.00  0.00    +0.001 C 
ENDBRANCH   8  10
ENDBRANCH   3   8
ENDBRANCH   1   2
BRANCH   1  16
ATOM     16  CA  UNL     1      34.836 -23.463 -13.831  0.00  0.00    +0.108 C 
ATOM     17  O   UNL     1      32.770 -24.858 -12.440  0.00  0.00    -0.270 OA
ATOM     18  N   UNL     1      33.520 -23.530 -14.195  0.00  0.00    -0.278 N 
ATOM     19  C   UNL     1      32.564 -24.227 -13.474  0.00  0.00    +0.249 C 
ATOM     20  H   UNL     1      33.239 -23.059 -15.013  0.00  0.00    +0.155 HD
BRANCH  19  21
ATOM     21  C   UNL     1      31.181 -24.164 -14.016  0.00  0.00    +0.054 C 
ATOM     22  C   UNL     1      30.746 -22.990 -14.595  0.00  0.00    +0.005 C 
ATOM     23  C   UNL     1      30.379 -25.282 -13.924  0.00  0.00    +0.005 C 
ATOM     24  C   UNL     1      29.449 -22.931 -15.104  0.00  0.00    +0.000 C 
ATOM     25  C   UNL     1      29.082 -25.223 -14.433  0.00  0.00    +0.000 C 
ATOM     26  C   UNL     1      28.617 -24.047 -15.023  0.00  0.00    +0.000 C 
ENDBRANCH  19  21
BRANCH  16  28
ATOM     27  OXT UNL     1      35.348 -23.647 -11.482  0.00  0.00    -0.244 OA
ATOM     28  C   UNL     1      35.260 -24.160 -12.587  0.00  0.00    +0.348 C 
BRANCH  28  29
ATOM     29  O   UNL     1      35.544 -25.461 -12.835  0.00  0.00    -0.476 OA
ATOM     30  H   UNL     1      35.109 -26.136 -12.353  0.00  0.00    +0.295 HD
ENDBRANCH  28  29
ENDBRANCH  16  28
ENDBRANCH   1  16
TORSDOF 7
ENDMDL
