MODEL 1
REMARK VINA RESULT:     -11.3      0.000      0.000
REMARK  Name = 5287459
REMARK  5 active torsions:
REMARK  status: ('A' for Active; 'I' for Inactive)
REMARK    1  A    between atoms: C_1  and  C_7
REMARK    2  A    between atoms: C_4  and  C_21
REMARK    3  A    between atoms: C_5  and  C_25
REMARK    4  A    between atoms: C_8  and  C_13
REMARK    5  A    between atoms: C_25  and  O_26
REMARK                            x       y       z     vdW  Elec       q    Type
REMARK                         _______ _______ _______ _____ _____    ______ ____
ROOT
ATOM      1  C   UNL     1      37.191 -23.904 -14.751  0.00  0.00    +0.000 C 
ATOM      2  C   UNL     1      36.632 -23.845 -13.475  0.00  0.00    +0.005 C 
ATOM      3  C   UNL     1      38.368 -24.622 -14.964  0.00  0.00    +0.006 C 
ATOM      4  C   UNL     1      37.247 -24.506 -12.412  0.00  0.00    +0.053 C 
ATOM      5  C   UNL     1      38.985 -25.282 -13.901  0.00  0.00    +0.076 C 
ATOM      6  C   UNL     1      38.424 -25.224 -12.625  0.00  0.00    +0.011 C 
ENDROOT
BRANCH   1   7
ATOM      7  C   UNL     1      36.553 -23.219 -15.854  0.00  0.00    +0.000 C 
ATOM      8  C   UNL     1      35.320 -21.898 -17.980  0.00  0.00    +0.000 C 
ATOM      9  C   UNL     1      35.192 -23.407 -16.098  0.00  0.00    +0.000 C 
ATOM     10  C   UNL     1      37.297 -22.369 -16.672  0.00  0.00    +0.000 C 
ATOM     11  C   UNL     1      34.576 -22.747 -17.161  0.00  0.00    +0.000 C 
ATOM     12  C   UNL     1      36.681 -21.709 -17.736  0.00  0.00    +0.000 C 
BRANCH   8  13
ATOM     13  C   UNL     1      34.682 -21.213 -19.083  0.00  0.00    +0.000 C 
ATOM     14  C   UNL     1      33.293 -21.224 -19.202  0.00  0.00    +0.000 C 
ATOM     15  C   UNL     1      35.457 -20.542 -20.028  0.00  0.00    +0.000 C 
ATOM     16  C   UNL     1      32.678 -20.563 -20.265  0.00  0.00    +0.000 C 
ATOM     17  C   UNL     1      34.843 -19.882 -21.092  0.00  0.00    +0.000 C 
ATOM     18  C   UNL     1      33.454 -19.892 -21.212  0.00  0.00    +0.000 C 
ENDBRANCH   8  13
ENDBRANCH   1   7
BRANCH   4  21
ATOM     19  O   UNL     1      35.984 -25.384 -10.629  0.00  0.00    -0.270 OA
ATOM     20  N   UNL     1      36.903 -23.305 -10.320  0.00  0.00    -0.325 N 
ATOM     21  C   UNL     1      36.663 -24.445 -11.082  0.00  0.00    +0.243 C 
ATOM     22  H   UNL     1      36.523 -23.228  -9.415  0.00  0.00    +0.145 HD
ATOM     23  H   UNL     1      37.453 -22.575 -10.687  0.00  0.00    +0.145 HD
ENDBRANCH   4  21
BRANCH   5  25
ATOM     24  O   UNL     1      40.895 -26.562 -13.243  0.00  0.00    -0.245 OA
ATOM     25  C   UNL     1      40.211 -26.030 -14.123  0.00  0.00    +0.338 C 
BRANCH  25  26
ATOM     26  O   UNL     1      40.550 -26.095 -15.441  0.00  0.00    -0.477 OA
ATOM     27  H   UNL     1      41.354 -26.499 -15.699  0.00  0.00    +0.295 HD
ENDBRANCH  25  26
ENDBRANCH   5  25
TORSDOF 5
ENDMDL
MODEL 2
REMARK VINA RESULT:     -10.8      2.302      4.021
REMARK  Name = 5287459
REMARK  5 active torsions:
REMARK  status: ('A' for Active; 'I' for Inactive)
REMARK    1  A    between atoms: C_1  and  C_7
REMARK    2  A    between atoms: C_4  and  C_21
REMARK    3  A    between atoms: C_5  and  C_25
REMARK    4  A    between atoms: C_8  and  C_13
REMARK    5  A    between atoms: C_25  and  O_26
REMARK                            x       y       z     vdW  Elec       q    Type
REMARK                         _______ _______ _______ _____ _____    ______ ____
ROOT
ATOM      1  C   UNL     1      35.285 -23.303 -15.752  0.00  0.00    +0.000 C 
ATOM      2  C   UNL     1      36.438 -23.891 -15.232  0.00  0.00    +0.005 C 
ATOM      3  C   UNL     1      34.060 -23.485 -15.111  0.00  0.00    +0.006 C 
ATOM      4  C   UNL     1      36.366 -24.660 -14.071  0.00  0.00    +0.053 C 
ATOM      5  C   UNL     1      33.987 -24.255 -13.950  0.00  0.00    +0.076 C 
ATOM      6  C   UNL     1      35.141 -24.842 -13.430  0.00  0.00    +0.011 C 
ENDROOT
BRANCH   1   7
ATOM      7  C   UNL     1      35.360 -22.505 -16.956  0.00  0.00    +0.000 C 
ATOM      8  C   UNL     1      35.502 -20.967 -19.280  0.00  0.00    +0.000 C 
ATOM      9  C   UNL     1      34.245 -22.392 -17.788  0.00  0.00    +0.000 C 
ATOM     10  C   UNL     1      36.545 -21.848 -17.286  0.00  0.00    +0.000 C 
ATOM     11  C   UNL     1      34.317 -21.623 -18.950  0.00  0.00    +0.000 C 
ATOM     12  C   UNL     1      36.617 -21.080 -18.448  0.00  0.00    +0.000 C 
BRANCH   8  13
ATOM     13  C   UNL     1      35.577 -20.170 -20.485  0.00  0.00    +0.000 C 
ATOM     14  C   UNL     1      34.471 -20.074 -21.329  0.00  0.00    +0.000 C 
ATOM     15  C   UNL     1      36.757 -19.497 -20.803  0.00  0.00    +0.000 C 
ATOM     16  C   UNL     1      34.544 -19.305 -22.491  0.00  0.00    +0.000 C 
ATOM     17  C   UNL     1      36.831 -18.728 -21.964  0.00  0.00    +0.000 C 
ATOM     18  C   UNL     1      35.725 -18.632 -22.809  0.00  0.00    +0.000 C 
ENDBRANCH   8  13
ENDBRANCH   1   7
BRANCH   4  21
ATOM     19  O   UNL     1      38.551 -24.587 -13.193  0.00  0.00    -0.270 OA
ATOM     20  N   UNL     1      37.581 -26.657 -13.382  0.00  0.00    -0.325 N 
ATOM     21  C   UNL     1      37.568 -25.273 -13.529  0.00  0.00    +0.243 C 
ATOM     22  H   UNL     1      38.378 -27.107 -13.019  0.00  0.00    +0.145 HD
ATOM     23  H   UNL     1      36.792 -27.186 -13.640  0.00  0.00    +0.145 HD
ENDBRANCH   4  21
BRANCH   5  25
ATOM     24  O   UNL     1      32.106 -23.585 -12.632  0.00  0.00    -0.245 OA
ATOM     25  C   UNL     1      32.710 -24.445 -13.282  0.00  0.00    +0.338 C 
BRANCH  25  26
ATOM     26  O   UNL     1      32.220 -25.705 -13.446  0.00  0.00    -0.477 OA
ATOM     27  H   UNL     1      31.526 -25.863 -14.054  0.00  0.00    +0.295 HD
ENDBRANCH  25  26
ENDBRANCH   5  25
TORSDOF 5
ENDMDL
MODEL 3
REMARK VINA RESULT:     -10.7      2.988      4.356
REMARK  Name = 5287459
REMARK  5 active torsions:
REMARK  status: ('A' for Active; 'I' for Inactive)
REMARK    1  A    between atoms: C_1  and  C_7
REMARK    2  A    between atoms: C_4  and  C_21
REMARK    3  A    between atoms: C_5  and  C_25
REMARK    4  A    between atoms: C_8  and  C_13
REMARK    5  A    between atoms: C_25  and  O_26
REMARK                            x       y       z     vdW  Elec       q    Type
REMARK                         _______ _______ _______ _____ _____    ______ ____
ROOT
ATOM      1  C   UNL     1      33.845 -23.231 -16.387  0.00  0.00    +0.000 C 
ATOM      2  C   UNL     1      32.546 -23.288 -15.883  0.00  0.00    +0.005 C 
ATOM      3  C   UNL     1      34.862 -23.965 -15.780  0.00  0.00    +0.006 C 
ATOM      4  C   UNL     1      32.265 -24.083 -14.771  0.00  0.00    +0.053 C 
ATOM      5  C   UNL     1      34.582 -24.759 -14.668  0.00  0.00    +0.076 C 
ATOM      6  C   UNL     1      33.282 -24.818 -14.164  0.00  0.00    +0.011 C 
ENDROOT
BRANCH   1   7
ATOM      7  C   UNL     1      34.137 -22.407 -17.540  0.00  0.00    +0.000 C 
ATOM      8  C   UNL     1      34.703 -20.818 -19.763  0.00  0.00    +0.000 C 
ATOM      9  C   UNL     1      35.459 -22.077 -17.845  0.00  0.00    +0.000 C 
ATOM     10  C   UNL     1      33.099 -21.942 -18.347  0.00  0.00    +0.000 C 
ATOM     11  C   UNL     1      35.741 -21.282 -18.956  0.00  0.00    +0.000 C 
ATOM     12  C   UNL     1      33.381 -21.147 -19.458  0.00  0.00    +0.000 C 
BRANCH   8  13
ATOM     13  C   UNL     1      34.995 -19.992 -20.915  0.00  0.00    +0.000 C 
ATOM     14  C   UNL     1      34.020 -19.787 -21.891  0.00  0.00    +0.000 C 
ATOM     15  C   UNL     1      36.251 -19.402 -21.048  0.00  0.00    +0.000 C 
ATOM     16  C   UNL     1      34.302 -18.991 -23.001  0.00  0.00    +0.000 C 
ATOM     17  C   UNL     1      36.534 -18.606 -22.158  0.00  0.00    +0.000 C 
ATOM     18  C   UNL     1      35.560 -18.400 -23.135  0.00  0.00    +0.000 C 
ENDBRANCH   8  13
ENDBRANCH   1   7
BRANCH   4  21
ATOM     19  O   UNL     1      30.049 -23.309 -14.577  0.00  0.00    -0.270 OA
ATOM     20  N   UNL     1      30.600 -25.178 -13.368  0.00  0.00    -0.325 N 
ATOM     21  C   UNL     1      30.910 -24.143 -14.245  0.00  0.00    +0.243 C 
ATOM     22  H   UNL     1      29.693 -25.250 -12.991  0.00  0.00    +0.145 HD
ATOM     23  H   UNL     1      31.289 -25.838 -13.123  0.00  0.00    +0.145 HD
ENDBRANCH   4  21
BRANCH   5  25
ATOM     24  O   UNL     1      36.315 -25.155 -13.067  0.00  0.00    -0.245 OA
ATOM     25  C   UNL     1      35.643 -25.526 -14.034  0.00  0.00    +0.338 C 
BRANCH  25  26
ATOM     26  O   UNL     1      35.834 -26.737 -14.626  0.00  0.00    -0.477 OA
ATOM     27  H   UNL     1      35.396 -27.495 -14.295  0.00  0.00    +0.295 HD
ENDBRANCH  25  26
ENDBRANCH   5  25
TORSDOF 5
ENDMDL
MODEL 4
REMARK VINA RESULT:     -10.6      2.944      4.636
REMARK  Name = 5287459
REMARK  5 active torsions:
REMARK  status: ('A' for Active; 'I' for Inactive)
REMARK    1  A    between atoms: C_1  and  C_7
REMARK    2  A    between atoms: C_4  and  C_21
REMARK    3  A    between atoms: C_5  and  C_25
REMARK    4  A    between atoms: C_8  and  C_13
REMARK    5  A    between atoms: C_25  and  O_26
REMARK                            x       y       z     vdW  Elec       q    Type
REMARK                         _______ _______ _______ _____ _____    ______ ____
ROOT
ATOM      1  C   UNL     1      34.361 -22.381 -17.431  0.00  0.00    +0.000 C 
ATOM      2  C   UNL     1      33.136 -22.812 -16.924  0.00  0.00    +0.005 C 
ATOM      3  C   UNL     1      35.546 -22.744 -16.794  0.00  0.00    +0.006 C 
ATOM      4  C   UNL     1      33.096 -23.608 -15.779  0.00  0.00    +0.053 C 
ATOM      5  C   UNL     1      35.508 -23.540 -15.649  0.00  0.00    +0.076 C 
ATOM      6  C   UNL     1      34.282 -23.972 -15.142  0.00  0.00    +0.011 C 
ENDROOT
BRANCH   1   7
ATOM      7  C   UNL     1      34.402 -21.554 -18.618  0.00  0.00    +0.000 C 
ATOM      8  C   UNL     1      34.479 -19.961 -20.907  0.00  0.00    +0.000 C 
ATOM      9  C   UNL     1      33.213 -21.159 -19.234  0.00  0.00    +0.000 C 
ATOM     10  C   UNL     1      35.628 -21.152 -19.147  0.00  0.00    +0.000 C 
ATOM     11  C   UNL     1      33.252 -20.363 -20.379  0.00  0.00    +0.000 C 
ATOM     12  C   UNL     1      35.667 -20.356 -20.292  0.00  0.00    +0.000 C 
BRANCH   8  13
ATOM     13  C   UNL     1      34.520 -19.135 -22.095  0.00  0.00    +0.000 C 
ATOM     14  C   UNL     1      35.144 -17.889 -22.058  0.00  0.00    +0.000 C 
ATOM     15  C   UNL     1      33.935 -19.588 -23.278  0.00  0.00    +0.000 C 
ATOM     16  C   UNL     1      35.184 -17.094 -23.203  0.00  0.00    +0.000 C 
ATOM     17  C   UNL     1      33.975 -18.793 -24.423  0.00  0.00    +0.000 C 
ATOM     18  C   UNL     1      34.599 -17.546 -24.387  0.00  0.00    +0.000 C 
ENDBRANCH   8  13
ENDBRANCH   1   7
BRANCH   4  21
ATOM     19  O   UNL     1      30.758 -23.870 -15.872  0.00  0.00    -0.270 OA
ATOM     20  N   UNL     1      31.821 -24.723 -14.028  0.00  0.00    -0.325 N 
ATOM     21  C   UNL     1      31.819 -24.058 -15.250  0.00  0.00    +0.243 C 
ATOM     22  H   UNL     1      30.974 -25.041 -13.638  0.00  0.00    +0.145 HD
ATOM     23  H   UNL     1      32.669 -24.876 -13.552  0.00  0.00    +0.145 HD
ENDBRANCH   4  21
BRANCH   5  25
ATOM     24  O   UNL     1      37.474 -23.159 -14.340  0.00  0.00    -0.245 OA
ATOM     25  C   UNL     1      36.745 -23.919 -14.985  0.00  0.00    +0.338 C 
BRANCH  25  26
ATOM     26  O   UNL     1      37.036 -25.240 -15.144  0.00  0.00    -0.477 OA
ATOM     27  H   UNL     1      37.790 -25.608 -14.726  0.00  0.00    +0.295 HD
ENDBRANCH  25  26
ENDBRANCH   5  25
TORSDOF 5
ENDMDL
MODEL 5
REMARK VINA RESULT:     -10.6      3.121      5.562
REMARK  Name = 5287459
REMARK  5 active torsions:
REMARK  status: ('A' for Active; 'I' for Inactive)
REMARK    1  A    between atoms: C_1  and  C_7
REMARK    2  A    between atoms: C_4  and  C_21
REMARK    3  A    between atoms: C_5  and  C_25
REMARK    4  A    between atoms: C_8  and  C_13
REMARK    5  A    between atoms: C_25  and  O_26
REMARK                            x       y       z     vdW  Elec       q    Type
REMARK                         _______ _______ _______ _____ _____    ______ ____
ROOT
ATOM      1  C   UNL     1      33.630 -22.674 -17.281  0.00  0.00    +0.000 C 
ATOM      2  C   UNL     1      34.717 -23.210 -16.592  0.00  0.00    +0.005 C 
ATOM      3  C   UNL     1      32.330 -22.968 -16.869  0.00  0.00    +0.006 C 
ATOM      4  C   UNL     1      34.505 -24.039 -15.490  0.00  0.00    +0.053 C 
ATOM      5  C   UNL     1      32.117 -23.798 -15.768  0.00  0.00    +0.076 C 
ATOM      6  C   UNL     1      33.206 -24.333 -15.079  0.00  0.00    +0.011 C 
ENDROOT
BRANCH   1   7
ATOM      7  C   UNL     1      33.849 -21.815 -18.424  0.00  0.00    +0.000 C 
ATOM      8  C   UNL     1      34.271 -20.157 -20.628  0.00  0.00    +0.000 C 
ATOM      9  C   UNL     1      32.761 -21.251 -19.092  0.00  0.00    +0.000 C 
ATOM     10  C   UNL     1      35.148 -21.548 -18.857  0.00  0.00    +0.000 C 
ATOM     11  C   UNL     1      32.973 -20.423 -20.194  0.00  0.00    +0.000 C 
ATOM     12  C   UNL     1      35.359 -20.720 -19.960  0.00  0.00    +0.000 C 
BRANCH   8  13
ATOM     13  C   UNL     1      34.491 -19.298 -21.772  0.00  0.00    +0.000 C 
ATOM     14  C   UNL     1      35.267 -18.147 -21.641  0.00  0.00    +0.000 C 
ATOM     15  C   UNL     1      33.928 -19.624 -23.005  0.00  0.00    +0.000 C 
ATOM     16  C   UNL     1      35.479 -17.320 -22.744  0.00  0.00    +0.000 C 
ATOM     17  C   UNL     1      34.139 -18.797 -24.108  0.00  0.00    +0.000 C 
ATOM     18  C   UNL     1      34.915 -17.645 -23.979  0.00  0.00    +0.000 C 
ENDBRANCH   8  13
ENDBRANCH   1   7
BRANCH   4  21
ATOM     19  O   UNL     1      36.806 -24.425 -15.169  0.00  0.00    -0.270 OA
ATOM     20  N   UNL     1      35.381 -25.321 -13.612  0.00  0.00    -0.325 N 
ATOM     21  C   UNL     1      35.640 -24.598 -14.772  0.00  0.00    +0.243 C 
ATOM     22  H   UNL     1      36.124 -25.715 -13.100  0.00  0.00    +0.145 HD
ATOM     23  H   UNL     1      34.453 -25.439 -13.303  0.00  0.00    +0.145 HD
ENDBRANCH   4  21
BRANCH   5  25
ATOM     24  O   UNL     1      29.733 -23.609 -15.808  0.00  0.00    -0.245 OA
ATOM     25  C   UNL     1      30.762 -24.104 -15.339  0.00  0.00    +0.338 C 
BRANCH  25  26
ATOM     26  O   UNL     1      30.730 -25.023 -14.335  0.00  0.00    -0.477 OA
ATOM     27  H   UNL     1      30.631 -25.933 -14.534  0.00  0.00    +0.295 HD
ENDBRANCH  25  26
ENDBRANCH   5  25
TORSDOF 5
ENDMDL
MODEL 6
REMARK VINA RESULT:     -10.4      2.336      3.157
REMARK  Name = 5287459
REMARK  5 active torsions:
REMARK  status: ('A' for Active; 'I' for Inactive)
REMARK    1  A    between atoms: C_1  and  C_7
REMARK    2  A    between atoms: C_4  and  C_21
REMARK    3  A    between atoms: C_5  and  C_25
REMARK    4  A    between atoms: C_8  and  C_13
REMARK    5  A    between atoms: C_25  and  O_26
REMARK                            x       y       z     vdW  Elec       q    Type
REMARK                         _______ _______ _______ _____ _____    ______ ____
ROOT
ATOM      1  C   UNL     1      35.256 -23.252 -15.741  0.00  0.00    +0.000 C 
ATOM      2  C   UNL     1      34.033 -23.400 -15.088  0.00  0.00    +0.005 C 
ATOM      3  C   UNL     1      36.400 -23.857 -15.224  0.00  0.00    +0.006 C 
ATOM      4  C   UNL     1      33.953 -24.157 -13.919  0.00  0.00    +0.053 C 
ATOM      5  C   UNL     1      36.322 -24.613 -14.055  0.00  0.00    +0.076 C 
ATOM      6  C   UNL     1      35.098 -24.763 -13.402  0.00  0.00    +0.011 C 
ENDROOT
BRANCH   1   7
ATOM      7  C   UNL     1      35.338 -22.467 -16.954  0.00  0.00    +0.000 C 
ATOM      8  C   UNL     1      35.495 -20.954 -19.293  0.00  0.00    +0.000 C 
ATOM      9  C   UNL     1      34.225 -22.355 -17.789  0.00  0.00    +0.000 C 
ATOM     10  C   UNL     1      36.528 -21.822 -17.288  0.00  0.00    +0.000 C 
ATOM     11  C   UNL     1      34.304 -21.599 -18.959  0.00  0.00    +0.000 C 
ATOM     12  C   UNL     1      36.607 -21.066 -18.458  0.00  0.00    +0.000 C 
BRANCH   8  13
ATOM     13  C   UNL     1      35.578 -20.170 -20.507  0.00  0.00    +0.000 C 
ATOM     14  C   UNL     1      36.758 -19.501 -20.826  0.00  0.00    +0.000 C 
ATOM     15  C   UNL     1      34.476 -20.085 -21.357  0.00  0.00    +0.000 C 
ATOM     16  C   UNL     1      36.838 -18.746 -21.997  0.00  0.00    +0.000 C 
ATOM     17  C   UNL     1      34.554 -19.330 -22.527  0.00  0.00    +0.000 C 
ATOM     18  C   UNL     1      35.735 -18.660 -22.848  0.00  0.00    +0.000 C 
ENDBRANCH   8  13
ENDBRANCH   1   7
BRANCH   4  21
ATOM     19  O   UNL     1      32.228 -23.421 -12.495  0.00  0.00    -0.270 OA
ATOM     20  N   UNL     1      31.963 -25.486 -13.458  0.00  0.00    -0.325 N 
ATOM     21  C   UNL     1      32.678 -24.312 -13.238  0.00  0.00    +0.243 C 
ATOM     22  H   UNL     1      31.096 -25.626 -13.013  0.00  0.00    +0.145 HD
ATOM     23  H   UNL     1      32.326 -26.177 -14.059  0.00  0.00    +0.145 HD
ENDBRANCH   4  21
BRANCH   5  25
ATOM     24  O   UNL     1      37.548 -26.329 -12.924  0.00  0.00    -0.245 OA
ATOM     25  C   UNL     1      37.516 -25.245 -13.515  0.00  0.00    +0.338 C 
BRANCH  25  26
ATOM     26  O   UNL     1      38.638 -24.506 -13.732  0.00  0.00    -0.477 OA
ATOM     27  H   UNL     1      38.572 -23.581 -13.866  0.00  0.00    +0.295 HD
ENDBRANCH  25  26
ENDBRANCH   5  25
TORSDOF 5
ENDMDL
MODEL 7
REMARK VINA RESULT:      -9.8      2.834      5.164
REMARK  Name = 5287459
REMARK  5 active torsions:
REMARK  status: ('A' for Active; 'I' for Inactive)
REMARK    1  A    between atoms: C_1  and  C_7
REMARK    2  A    between atoms: C_4  and  C_21
REMARK    3  A    between atoms: C_5  and  C_25
REMARK    4  A    between atoms: C_8  and  C_13
REMARK    5  A    between atoms: C_25  and  O_26
REMARK                            x       y       z     vdW  Elec       q    Type
REMARK                         _______ _______ _______ _____ _____    ______ ____
ROOT
ATOM      1  C   UNL     1      34.825 -22.178 -17.617  0.00  0.00    +0.000 C 
ATOM      2  C   UNL     1      36.044 -22.476 -17.010  0.00  0.00    +0.005 C 
ATOM      3  C   UNL     1      33.639 -22.677 -17.083  0.00  0.00    +0.006 C 
ATOM      4  C   UNL     1      36.077 -23.273 -15.866  0.00  0.00    +0.053 C 
ATOM      5  C   UNL     1      33.671 -23.475 -15.939  0.00  0.00    +0.076 C 
ATOM      6  C   UNL     1      34.890 -23.773 -15.331  0.00  0.00    +0.011 C 
ENDROOT
BRANCH   1   7
ATOM      7  C   UNL     1      34.792 -21.351 -18.804  0.00  0.00    +0.000 C 
ATOM      8  C   UNL     1      34.725 -19.756 -21.093  0.00  0.00    +0.000 C 
ATOM      9  C   UNL     1      33.569 -20.923 -19.322  0.00  0.00    +0.000 C 
ATOM     10  C   UNL     1      35.982 -20.980 -19.431  0.00  0.00    +0.000 C 
ATOM     11  C   UNL     1      33.536 -20.127 -20.467  0.00  0.00    +0.000 C 
ATOM     12  C   UNL     1      35.949 -20.183 -20.575  0.00  0.00    +0.000 C 
BRANCH   8  13
ATOM     13  C   UNL     1      34.692 -18.930 -22.281  0.00  0.00    +0.000 C 
ATOM     14  C   UNL     1      34.019 -19.372 -23.419  0.00  0.00    +0.000 C 
ATOM     15  C   UNL     1      35.333 -17.692 -22.286  0.00  0.00    +0.000 C 
ATOM     16  C   UNL     1      33.986 -18.575 -24.564  0.00  0.00    +0.000 C 
ATOM     17  C   UNL     1      35.302 -16.895 -23.430  0.00  0.00    +0.000 C 
ATOM     18  C   UNL     1      34.629 -17.336 -24.569  0.00  0.00    +0.000 C 
ENDBRANCH   8  13
ENDBRANCH   1   7
BRANCH   4  21
ATOM     19  O   UNL     1      38.384 -22.953 -15.513  0.00  0.00    -0.270 OA
ATOM     20  N   UNL     1      37.369 -24.604 -14.285  0.00  0.00    -0.325 N 
ATOM     21  C   UNL     1      37.348 -23.585 -15.232  0.00  0.00    +0.243 C 
ATOM     22  H   UNL     1      38.212 -24.843 -13.836  0.00  0.00    +0.145 HD
ATOM     23  H   UNL     1      36.540 -25.087 -14.064  0.00  0.00    +0.145 HD
ENDBRANCH   4  21
BRANCH   5  25
ATOM     24  O   UNL     1      32.342 -24.687 -14.361  0.00  0.00    -0.245 OA
ATOM     25  C   UNL     1      32.433 -23.997 -15.381  0.00  0.00    +0.338 C 
BRANCH  25  26
ATOM     26  O   UNL     1      31.342 -23.640 -16.113  0.00  0.00    -0.477 OA
ATOM     27  H   UNL     1      30.571 -23.327 -15.683  0.00  0.00    +0.295 HD
ENDBRANCH  25  26
ENDBRANCH   5  25
TORSDOF 5
ENDMDL
MODEL 8
REMARK VINA RESULT:      -9.4      4.181      5.233
REMARK  Name = 5287459
REMARK  5 active torsions:
REMARK  status: ('A' for Active; 'I' for Inactive)
REMARK    1  A    between atoms: C_1  and  C_7
REMARK    2  A    between atoms: C_4  and  C_21
REMARK    3  A    between atoms: C_5  and  C_25
REMARK    4  A    between atoms: C_8  and  C_13
REMARK    5  A    between atoms: C_25  and  O_26
REMARK                            x       y       z     vdW  Elec       q    Type
REMARK                         _______ _______ _______ _____ _____    ______ ____
ROOT
ATOM      1  C   UNL     1      34.364 -23.577 -14.168  0.00  0.00    +0.000 C 
ATOM      2  C   UNL     1      34.679 -24.179 -12.950  0.00  0.00    +0.005 C 
ATOM      3  C   UNL     1      35.382 -23.179 -15.033  0.00  0.00    +0.006 C 
ATOM      4  C   UNL     1      36.013 -24.384 -12.598  0.00  0.00    +0.053 C 
ATOM      5  C   UNL     1      36.717 -23.383 -14.681  0.00  0.00    +0.076 C 
ATOM      6  C   UNL     1      37.032 -23.986 -13.463  0.00  0.00    +0.011 C 
ENDROOT
BRANCH   1   7
ATOM      7  C   UNL     1      32.980 -23.365 -14.533  0.00  0.00    +0.000 C 
ATOM      8  C   UNL     1      30.312 -22.955 -15.236  0.00  0.00    +0.000 C 
ATOM      9  C   UNL     1      31.998 -23.315 -13.544  0.00  0.00    +0.000 C 
ATOM     10  C   UNL     1      32.629 -23.209 -15.874  0.00  0.00    +0.000 C 
ATOM     11  C   UNL     1      30.663 -23.111 -13.896  0.00  0.00    +0.000 C 
ATOM     12  C   UNL     1      31.294 -23.005 -16.226  0.00  0.00    +0.000 C 
BRANCH   8  13
ATOM     13  C   UNL     1      28.928 -22.744 -15.602  0.00  0.00    +0.000 C 
ATOM     14  C   UNL     1      28.522 -22.911 -16.926  0.00  0.00    +0.000 C 
ATOM     15  C   UNL     1      27.999 -22.373 -14.630  0.00  0.00    +0.000 C 
ATOM     16  C   UNL     1      27.188 -22.708 -17.278  0.00  0.00    +0.000 C 
ATOM     17  C   UNL     1      26.665 -22.170 -14.981  0.00  0.00    +0.000 C 
ATOM     18  C   UNL     1      26.258 -22.337 -16.305  0.00  0.00    +0.000 C 
ENDBRANCH   8  13
ENDBRANCH   1   7
BRANCH   4  21
ATOM     19  O   UNL     1      36.734 -26.190 -11.269  0.00  0.00    -0.270 OA
ATOM     20  N   UNL     1      36.220 -24.242 -10.173  0.00  0.00    -0.325 N 
ATOM     21  C   UNL     1      36.342 -25.011 -11.327  0.00  0.00    +0.243 C 
ATOM     22  H   UNL     1      36.433 -24.634  -9.296  0.00  0.00    +0.145 HD
ATOM     23  H   UNL     1      35.920 -23.306 -10.235  0.00  0.00    +0.145 HD
ENDBRANCH   4  21
BRANCH   5  25
ATOM     24  O   UNL     1      37.693 -22.067 -16.425  0.00  0.00    -0.245 OA
ATOM     25  C   UNL     1      37.779 -22.968 -15.583  0.00  0.00    +0.338 C 
BRANCH  25  26
ATOM     26  O   UNL     1      38.921 -23.689 -15.409  0.00  0.00    -0.477 OA
ATOM     27  H   UNL     1      39.527 -23.785 -16.116  0.00  0.00    +0.295 HD
ENDBRANCH  25  26
ENDBRANCH   5  25
TORSDOF 5
ENDMDL
MODEL 9
REMARK VINA RESULT:      -9.2     10.553     14.258
REMARK  Name = 5287459
REMARK  5 active torsions:
REMARK  status: ('A' for Active; 'I' for Inactive)
REMARK    1  A    between atoms: C_1  and  C_7
REMARK    2  A    between atoms: C_4  and  C_21
REMARK    3  A    between atoms: C_5  and  C_25
REMARK    4  A    between atoms: C_8  and  C_13
REMARK    5  A    between atoms: C_25  and  O_26
REMARK                            x       y       z     vdW  Elec       q    Type
REMARK                         _______ _______ _______ _____ _____    ______ ____
ROOT
ATOM      1  C   UNL     1      33.482 -13.372 -22.726  0.00  0.00    +0.000 C 
ATOM      2  C   UNL     1      33.895 -14.132 -21.633  0.00  0.00    +0.005 C 
ATOM      3  C   UNL     1      33.508 -13.922 -24.007  0.00  0.00    +0.006 C 
ATOM      4  C   UNL     1      34.332 -15.444 -21.820  0.00  0.00    +0.053 C 
ATOM      5  C   UNL     1      33.947 -15.233 -24.196  0.00  0.00    +0.076 C 
ATOM      6  C   UNL     1      34.359 -15.993 -23.101  0.00  0.00    +0.011 C 
ENDROOT
BRANCH   1   7
ATOM      7  C   UNL     1      33.028 -12.012 -22.532  0.00  0.00    +0.000 C 
ATOM      8  C   UNL     1      32.153  -9.389 -22.159  0.00  0.00    +0.000 C 
ATOM      9  C   UNL     1      33.558 -10.982 -23.311  0.00  0.00    +0.000 C 
ATOM     10  C   UNL     1      32.061 -11.731 -21.568  0.00  0.00    +0.000 C 
ATOM     11  C   UNL     1      33.121  -9.671 -23.123  0.00  0.00    +0.000 C 
ATOM     12  C   UNL     1      31.624 -10.419 -21.380  0.00  0.00    +0.000 C 
BRANCH   8  13
ATOM     13  C   UNL     1      31.700  -8.029 -21.963  0.00  0.00    +0.000 C 
ATOM     14  C   UNL     1      30.889  -7.420 -22.920  0.00  0.00    +0.000 C 
ATOM     15  C   UNL     1      32.075  -7.328 -20.818  0.00  0.00    +0.000 C 
ATOM     16  C   UNL     1      30.451  -6.109 -22.731  0.00  0.00    +0.000 C 
ATOM     17  C   UNL     1      31.638  -6.017 -20.628  0.00  0.00    +0.000 C 
ATOM     18  C   UNL     1      30.827  -5.407 -21.584  0.00  0.00    +0.000 C 
ENDBRANCH   8  13
ENDBRANCH   1   7
BRANCH   4  21
ATOM     19  O   UNL     1      34.596 -15.836 -19.512  0.00  0.00    -0.270 OA
ATOM     20  N   UNL     1      35.355 -17.470 -20.932  0.00  0.00    -0.325 N 
ATOM     21  C   UNL     1      34.763 -16.236 -20.679  0.00  0.00    +0.243 C 
ATOM     22  H   UNL     1      35.659 -18.034 -20.185  0.00  0.00    +0.145 HD
ATOM     23  H   UNL     1      35.469 -17.779 -21.860  0.00  0.00    +0.145 HD
ENDBRANCH   4  21
BRANCH   5  25
ATOM     24  O   UNL     1      33.690 -15.208 -26.574  0.00  0.00    -0.245 OA
ATOM     25  C   UNL     1      33.975 -15.806 -25.532  0.00  0.00    +0.338 C 
BRANCH  25  26
ATOM     26  O   UNL     1      34.358 -17.113 -25.529  0.00  0.00    -0.477 OA
ATOM     27  H   UNL     1      34.208 -17.647 -26.283  0.00  0.00    +0.295 HD
ENDBRANCH  25  26
ENDBRANCH   5  25
TORSDOF 5
ENDMDL
