MODEL 1
REMARK VINA RESULT:     -12.2      0.000      0.000
REMARK  Name = 9826451
REMARK  9 active torsions:
REMARK  status: ('A' for Active; 'I' for Inactive)
REMARK    1  A    between atoms: C_1  and  N_2
REMARK    2  A    between atoms: C_1  and  C_19
REMARK    3  A    between atoms: C_8  and  O_10
REMARK    4  A    between atoms: O_10  and  C_11
REMARK    5  A    between atoms: C_14  and  O_17
REMARK    6  A    between atoms: C_19  and  O_20
REMARK    7  A    between atoms: O_20  and  C_24
REMARK    8  A    between atoms: C_21  and  C_27
REMARK    9  A    between atoms: C_27  and  C_32
REMARK                            x       y       z     vdW  Elec       q    Type
REMARK                         _______ _______ _______ _____ _____    ______ ____
ROOT
ATOM      1  C   UNL     1      36.067 -21.993 -17.371  0.00  0.00    +0.139 C 
ENDROOT
BRANCH   1   2
ATOM      2  N   UNL     1      34.905 -22.652 -16.822  0.00  0.00    -0.291 N 
ATOM      3  C   UNL     1      33.731 -22.827 -17.678  0.00  0.00    +0.113 C 
ATOM      4  N   UNL     1      35.978 -22.936 -14.730  0.00  0.00    -0.233 NA
ATOM      5  N   UNL     1      34.802 -24.012 -12.923  0.00  0.00    -0.214 NA
ATOM      6  C   UNL     1      34.882 -23.109 -15.498  0.00  0.00    +0.115 C 
ATOM      7  C   UNL     1      33.724 -23.716 -15.055  0.00  0.00    +0.146 C 
ATOM      8  C   UNL     1      33.742 -24.152 -13.745  0.00  0.00    +0.210 C 
ATOM      9  C   UNL     1      35.870 -23.404 -13.472  0.00  0.00    +0.254 C 
BRANCH   8  10
ATOM     10  O   UNL     1      32.630 -24.766 -13.231  0.00  0.00    -0.440 OA
BRANCH  10  11
ATOM     11  C   UNL     1      31.409 -24.428 -13.778  0.00  0.00    +0.147 C 
ATOM     12  C   UNL     1      30.504 -25.427 -14.138  0.00  0.00    +0.041 C 
ATOM     13  C   UNL     1      31.078 -23.086 -13.971  0.00  0.00    +0.041 C 
ATOM     14  C   UNL     1      28.940 -23.744 -14.883  0.00  0.00    +0.139 C 
ATOM     15  C   UNL     1      29.270 -25.085 -14.690  0.00  0.00    +0.040 C 
ATOM     16  C   UNL     1      29.844 -22.744 -14.522  0.00  0.00    +0.040 C 
BRANCH  14  17
ATOM     17  O   UNL     1      27.735 -23.410 -15.421  0.00  0.00    -0.471 OA
ATOM     18  C   UNL     1      27.737 -22.902 -16.754  0.00  0.00    +0.252 C 
ENDBRANCH  14  17
ENDBRANCH  10  11
ENDBRANCH   8  10
ENDBRANCH   1   2
BRANCH   1  19
ATOM     19  C   UNL     1      35.885 -21.773 -18.863  0.00  0.00    +0.227 C 
BRANCH  19  20
ATOM     20  O   UNL     1      36.468 -20.526 -19.234  0.00  0.00    -0.474 OA
BRANCH  20  24
ATOM     21  C   UNL     1      34.914 -18.629 -22.582  0.00  0.00    -0.021 C 
ATOM     22  C   UNL     1      34.087 -19.415 -21.780  0.00  0.00    -0.001 C 
ATOM     23  C   UNL     1      36.263 -18.479 -22.259  0.00  0.00    -0.001 C 
ATOM     24  C   UNL     1      35.958 -19.904 -20.332  0.00  0.00    +0.139 C 
ATOM     25  C   UNL     1      34.609 -20.054 -20.655  0.00  0.00    +0.037 C 
ATOM     26  C   UNL     1      36.785 -19.118 -21.135  0.00  0.00    +0.037 C 
BRANCH  21  27
ATOM     27  C   UNL     1      34.349 -17.939 -23.797  0.00  0.00    +0.047 C 
BRANCH  27  32
ATOM     28  S   UNL     1      34.601 -15.662 -22.268  0.00  0.00    -0.048 S 
ATOM     29  O   UNL     1      33.770 -16.009 -26.021  0.00  0.00    -0.274 OA
ATOM     30  O   UNL     1      33.117 -13.494 -22.204  0.00  0.00    -0.263 OA
ATOM     31  N   UNL     1      33.337 -14.617 -24.225  0.00  0.00    -0.246 N 
ATOM     32  C   UNL     1      34.784 -16.487 -23.879  0.00  0.00    +0.137 C 
ATOM     33  C   UNL     1      33.919 -15.704 -24.842  0.00  0.00    +0.239 C 
ATOM     34  C   UNL     1      33.559 -14.402 -22.891  0.00  0.00    +0.279 C 
ATOM     35  H   UNL     1      32.765 -14.002 -24.739  0.00  0.00    +0.158 HD
ENDBRANCH  27  32
ENDBRANCH  21  27
ENDBRANCH  20  24
ENDBRANCH  19  20
ENDBRANCH   1  19
TORSDOF 9
ENDMDL
MODEL 2
REMARK VINA RESULT:     -12.1      5.527      9.965
REMARK  Name = 9826451
REMARK  9 active torsions:
REMARK  status: ('A' for Active; 'I' for Inactive)
REMARK    1  A    between atoms: C_1  and  N_2
REMARK    2  A    between atoms: C_1  and  C_19
REMARK    3  A    between atoms: C_8  and  O_10
REMARK    4  A    between atoms: O_10  and  C_11
REMARK    5  A    between atoms: C_14  and  O_17
REMARK    6  A    between atoms: C_19  and  O_20
REMARK    7  A    between atoms: O_20  and  C_24
REMARK    8  A    between atoms: C_21  and  C_27
REMARK    9  A    between atoms: C_27  and  C_32
REMARK                            x       y       z     vdW  Elec       q    Type
REMARK                         _______ _______ _______ _____ _____    ______ ____
ROOT
ATOM      1  C   UNL     1      33.579 -14.364 -23.834  0.00  0.00    +0.139 C 
ENDROOT
BRANCH   1   2
ATOM      2  N   UNL     1      34.204 -15.184 -22.823  0.00  0.00    -0.291 N 
ATOM      3  C   UNL     1      34.581 -14.563 -21.553  0.00  0.00    +0.113 C 
ATOM      4  N   UNL     1      34.104 -17.092 -24.223  0.00  0.00    -0.233 NA
ATOM      5  N   UNL     1      34.980 -19.195 -23.437  0.00  0.00    -0.214 NA
ATOM      6  C   UNL     1      34.462 -16.543 -23.043  0.00  0.00    +0.115 C 
ATOM      7  C   UNL     1      35.075 -17.247 -22.026  0.00  0.00    +0.146 C 
ATOM      8  C   UNL     1      35.311 -18.583 -22.282  0.00  0.00    +0.210 C 
ATOM      9  C   UNL     1      34.389 -18.402 -24.351  0.00  0.00    +0.254 C 
BRANCH   8  10
ATOM     10  O   UNL     1      35.916 -19.350 -21.321  0.00  0.00    -0.440 OA
BRANCH  10  11
ATOM     11  C   UNL     1      35.104 -20.154 -20.547  0.00  0.00    +0.147 C 
ATOM     12  C   UNL     1      35.668 -21.088 -19.679  0.00  0.00    +0.041 C 
ATOM     13  C   UNL     1      33.716 -20.031 -20.632  0.00  0.00    +0.041 C 
ATOM     14  C   UNL     1      33.461 -21.777 -18.982  0.00  0.00    +0.139 C 
ATOM     15  C   UNL     1      34.847 -21.899 -18.897  0.00  0.00    +0.040 C 
ATOM     16  C   UNL     1      32.895 -20.842 -19.850  0.00  0.00    +0.040 C 
BRANCH  14  17
ATOM     17  O   UNL     1      32.659 -22.568 -18.218  0.00  0.00    -0.471 OA
ATOM     18  C   UNL     1      33.242 -23.156 -17.057  0.00  0.00    +0.252 C 
ENDBRANCH  14  17
ENDBRANCH  10  11
ENDBRANCH   8  10
ENDBRANCH   1   2
BRANCH   1  19
ATOM     19  C   UNL     1      33.360 -12.958 -23.301  0.00  0.00    +0.227 C 
BRANCH  19  20
ATOM     20  O   UNL     1      34.175 -12.042 -24.028  0.00  0.00    -0.474 OA
BRANCH  20  24
ATOM     21  C   UNL     1      33.808  -8.018 -23.079  0.00  0.00    -0.021 C 
ATOM     22  C   UNL     1      34.925  -8.469 -23.783  0.00  0.00    -0.001 C 
ATOM     23  C   UNL     1      32.815  -8.919 -22.694  0.00  0.00    -0.001 C 
ATOM     24  C   UNL     1      34.055 -10.722 -23.717  0.00  0.00    +0.139 C 
ATOM     25  C   UNL     1      35.049  -9.821 -24.102  0.00  0.00    +0.037 C 
ATOM     26  C   UNL     1      32.939 -10.271 -23.013  0.00  0.00    +0.037 C 
BRANCH  21  27
ATOM     27  C   UNL     1      33.675  -6.557 -22.735  0.00  0.00    +0.047 C 
BRANCH  27  32
ATOM     28  S   UNL     1      32.558  -4.684 -24.417  0.00  0.00    -0.048 S 
ATOM     29  O   UNL     1      31.328  -5.923 -20.976  0.00  0.00    -0.274 OA
ATOM     30  O   UNL     1      31.509  -2.335 -23.877  0.00  0.00    -0.263 OA
ATOM     31  N   UNL     1      31.303  -4.023 -22.294  0.00  0.00    -0.246 N 
ATOM     32  C   UNL     1      32.336  -5.991 -23.171  0.00  0.00    +0.137 C 
ATOM     33  C   UNL     1      31.608  -5.339 -22.017  0.00  0.00    +0.239 C 
ATOM     34  C   UNL     1      31.698  -3.477 -23.486  0.00  0.00    +0.279 C 
ATOM     35  H   UNL     1      30.806  -3.480 -21.639  0.00  0.00    +0.158 HD
ENDBRANCH  27  32
ENDBRANCH  21  27
ENDBRANCH  20  24
ENDBRANCH  19  20
ENDBRANCH   1  19
TORSDOF 9
ENDMDL
MODEL 3
REMARK VINA RESULT:     -11.7      2.470      4.986
REMARK  Name = 9826451
REMARK  9 active torsions:
REMARK  status: ('A' for Active; 'I' for Inactive)
REMARK    1  A    between atoms: C_1  and  N_2
REMARK    2  A    between atoms: C_1  and  C_19
REMARK    3  A    between atoms: C_8  and  O_10
REMARK    4  A    between atoms: O_10  and  C_11
REMARK    5  A    between atoms: C_14  and  O_17
REMARK    6  A    between atoms: C_19  and  O_20
REMARK    7  A    between atoms: O_20  and  C_24
REMARK    8  A    between atoms: C_21  and  C_27
REMARK    9  A    between atoms: C_27  and  C_32
REMARK                            x       y       z     vdW  Elec       q    Type
REMARK                         _______ _______ _______ _____ _____    ______ ____
ROOT
ATOM      1  C   UNL     1      33.435 -21.998 -19.450  0.00  0.00    +0.139 C 
ENDROOT
BRANCH   1   2
ATOM      2  N   UNL     1      34.187 -22.293 -18.253  0.00  0.00    -0.291 N 
ATOM      3  C   UNL     1      35.633 -22.065 -18.262  0.00  0.00    +0.113 C 
ATOM      4  N   UNL     1      32.229 -22.998 -17.123  0.00  0.00    -0.233 NA
ATOM      5  N   UNL     1      32.381 -23.782 -14.850  0.00  0.00    -0.214 NA
ATOM      6  C   UNL     1      33.564 -22.798 -17.105  0.00  0.00    +0.115 C 
ATOM      7  C   UNL     1      34.363 -23.063 -16.012  0.00  0.00    +0.146 C 
ATOM      8  C   UNL     1      33.711 -23.559 -14.901  0.00  0.00    +0.210 C 
ATOM      9  C   UNL     1      31.712 -23.485 -15.979  0.00  0.00    +0.254 C 
BRANCH   8  10
ATOM     10  O   UNL     1      34.435 -23.847 -13.774  0.00  0.00    -0.440 OA
BRANCH  10  11
ATOM     11  C   UNL     1      35.612 -24.549 -13.939  0.00  0.00    +0.147 C 
ATOM     12  C   UNL     1      36.812 -24.024 -13.459  0.00  0.00    +0.041 C 
ATOM     13  C   UNL     1      35.601 -25.786 -14.586  0.00  0.00    +0.041 C 
ATOM     14  C   UNL     1      37.989 -25.970 -14.273  0.00  0.00    +0.139 C 
ATOM     15  C   UNL     1      38.000 -24.734 -13.626  0.00  0.00    +0.040 C 
ATOM     16  C   UNL     1      36.789 -26.496 -14.752  0.00  0.00    +0.040 C 
BRANCH  14  17
ATOM     17  O   UNL     1      39.149 -26.664 -14.434  0.00  0.00    -0.471 OA
ATOM     18  C   UNL     1      40.362 -25.989 -14.103  0.00  0.00    +0.252 C 
ENDBRANCH  14  17
ENDBRANCH  10  11
ENDBRANCH   8  10
ENDBRANCH   1   2
BRANCH   1  19
ATOM     19  C   UNL     1      33.676 -20.560 -19.876  0.00  0.00    +0.227 C 
BRANCH  19  20
ATOM     20  O   UNL     1      34.711 -20.522 -20.857  0.00  0.00    -0.474 OA
BRANCH  20  24
ATOM     21  C   UNL     1      35.024 -17.075 -23.147  0.00  0.00    -0.021 C 
ATOM     22  C   UNL     1      35.356 -17.044 -21.793  0.00  0.00    -0.001 C 
ATOM     23  C   UNL     1      34.588 -18.264 -23.732  0.00  0.00    -0.001 C 
ATOM     24  C   UNL     1      34.814 -19.391 -21.607  0.00  0.00    +0.139 C 
ATOM     25  C   UNL     1      35.250 -18.202 -21.022  0.00  0.00    +0.037 C 
ATOM     26  C   UNL     1      34.482 -19.421 -22.962  0.00  0.00    +0.037 C 
BRANCH  21  27
ATOM     27  C   UNL     1      35.139 -15.823 -23.978  0.00  0.00    +0.047 C 
BRANCH  27  32
ATOM     28  S   UNL     1      33.277 -15.054 -25.857  0.00  0.00    -0.048 S 
ATOM     29  O   UNL     1      34.271 -13.330 -22.551  0.00  0.00    -0.274 OA
ATOM     30  O   UNL     1      32.777 -12.682 -26.872  0.00  0.00    -0.263 OA
ATOM     31  N   UNL     1      33.509 -12.805 -24.671  0.00  0.00    -0.246 N 
ATOM     32  C   UNL     1      33.805 -15.111 -24.117  0.00  0.00    +0.137 C 
ATOM     33  C   UNL     1      33.898 -13.669 -23.669  0.00  0.00    +0.239 C 
ATOM     34  C   UNL     1      33.141 -13.310 -25.890  0.00  0.00    +0.279 C 
ATOM     35  H   UNL     1      33.496 -11.833 -24.511  0.00  0.00    +0.158 HD
ENDBRANCH  27  32
ENDBRANCH  21  27
ENDBRANCH  20  24
ENDBRANCH  19  20
ENDBRANCH   1  19
TORSDOF 9
ENDMDL
MODEL 4
REMARK VINA RESULT:     -11.6      5.096     13.565
REMARK  Name = 9826451
REMARK  9 active torsions:
REMARK  status: ('A' for Active; 'I' for Inactive)
REMARK    1  A    between atoms: C_1  and  N_2
REMARK    2  A    between atoms: C_1  and  C_19
REMARK    3  A    between atoms: C_8  and  O_10
REMARK    4  A    between atoms: O_10  and  C_11
REMARK    5  A    between atoms: C_14  and  O_17
REMARK    6  A    between atoms: C_19  and  O_20
REMARK    7  A    between atoms: O_20  and  C_24
REMARK    8  A    between atoms: C_21  and  C_27
REMARK    9  A    between atoms: C_27  and  C_32
REMARK                            x       y       z     vdW  Elec       q    Type
REMARK                         _______ _______ _______ _____ _____    ______ ____
ROOT
ATOM      1  C   UNL     1      33.115 -13.480 -23.467  0.00  0.00    +0.139 C 
ENDROOT
BRANCH   1   2
ATOM      2  N   UNL     1      33.264 -12.046 -23.402  0.00  0.00    -0.291 N 
ATOM      3  C   UNL     1      34.166 -11.392 -24.352  0.00  0.00    +0.113 C 
ATOM      4  N   UNL     1      31.751 -11.909 -21.585  0.00  0.00    -0.233 NA
ATOM      5  N   UNL     1      31.255  -9.765 -20.604  0.00  0.00    -0.214 NA
ATOM      6  C   UNL     1      32.577 -11.282 -22.449  0.00  0.00    +0.115 C 
ATOM      7  C   UNL     1      32.791  -9.919 -22.452  0.00  0.00    +0.146 C 
ATOM      8  C   UNL     1      32.096  -9.203 -21.497  0.00  0.00    +0.210 C 
ATOM      9  C   UNL     1      31.132 -11.101 -20.703  0.00  0.00    +0.254 C 
BRANCH   8  10
ATOM     10  O   UNL     1      32.254  -7.844 -21.436  0.00  0.00    -0.440 OA
BRANCH  10  11
ATOM     11  C   UNL     1      32.960  -7.240 -22.457  0.00  0.00    +0.147 C 
ATOM     12  C   UNL     1      34.350  -7.349 -22.504  0.00  0.00    +0.041 C 
ATOM     13  C   UNL     1      32.283  -6.521 -23.443  0.00  0.00    +0.041 C 
ATOM     14  C   UNL     1      34.386  -6.021 -24.521  0.00  0.00    +0.139 C 
ATOM     15  C   UNL     1      35.063  -6.740 -23.536  0.00  0.00    +0.040 C 
ATOM     16  C   UNL     1      32.996  -5.913 -24.475  0.00  0.00    +0.040 C 
BRANCH  14  17
ATOM     17  O   UNL     1      35.082  -5.427 -25.530  0.00  0.00    -0.471 OA
ATOM     18  C   UNL     1      34.363  -4.528 -26.374  0.00  0.00    +0.252 C 
ENDBRANCH  14  17
ENDBRANCH  10  11
ENDBRANCH   8  10
ENDBRANCH   1   2
BRANCH   1  19
ATOM     19  C   UNL     1      34.276 -14.157 -22.759  0.00  0.00    +0.227 C 
BRANCH  19  20
ATOM     20  O   UNL     1      34.807 -15.184 -23.594  0.00  0.00    -0.474 OA
BRANCH  20  24
ATOM     21  C   UNL     1      34.925 -19.025 -22.027  0.00  0.00    -0.021 C 
ATOM     22  C   UNL     1      34.550 -18.825 -23.355  0.00  0.00    -0.001 C 
ATOM     23  C   UNL     1      35.260 -17.934 -21.225  0.00  0.00    -0.001 C 
ATOM     24  C   UNL     1      34.845 -16.444 -23.081  0.00  0.00    +0.139 C 
ATOM     25  C   UNL     1      34.510 -17.535 -23.883  0.00  0.00    +0.037 C 
ATOM     26  C   UNL     1      35.219 -16.644 -21.752  0.00  0.00    +0.037 C 
BRANCH  21  27
ATOM     27  C   UNL     1      34.968 -20.420 -21.459  0.00  0.00    +0.047 C 
BRANCH  27  32
ATOM     28  S   UNL     1      35.324 -21.733 -19.063  0.00  0.00    -0.048 S 
ATOM     29  O   UNL     1      32.103 -20.244 -20.581  0.00  0.00    -0.274 OA
ATOM     30  O   UNL     1      33.852 -23.581 -17.911  0.00  0.00    -0.263 OA
ATOM     31  N   UNL     1      32.785 -21.975 -19.208  0.00  0.00    -0.246 N 
ATOM     32  C   UNL     1      34.446 -20.468 -20.033  0.00  0.00    +0.137 C 
ATOM     33  C   UNL     1      32.985 -20.858 -19.991  0.00  0.00    +0.239 C 
ATOM     34  C   UNL     1      33.862 -22.590 -18.624  0.00  0.00    +0.279 C 
ATOM     35  H   UNL     1      31.877 -22.328 -19.070  0.00  0.00    +0.158 HD
ENDBRANCH  27  32
ENDBRANCH  21  27
ENDBRANCH  20  24
ENDBRANCH  19  20
ENDBRANCH   1  19
TORSDOF 9
ENDMDL
MODEL 5
REMARK VINA RESULT:     -11.5      3.812     11.345
REMARK  Name = 9826451
REMARK  9 active torsions:
REMARK  status: ('A' for Active; 'I' for Inactive)
REMARK    1  A    between atoms: C_1  and  N_2
REMARK    2  A    between atoms: C_1  and  C_19
REMARK    3  A    between atoms: C_8  and  O_10
REMARK    4  A    between atoms: O_10  and  C_11
REMARK    5  A    between atoms: C_14  and  O_17
REMARK    6  A    between atoms: C_19  and  O_20
REMARK    7  A    between atoms: O_20  and  C_24
REMARK    8  A    between atoms: C_21  and  C_27
REMARK    9  A    between atoms: C_27  and  C_32
REMARK                            x       y       z     vdW  Elec       q    Type
REMARK                         _______ _______ _______ _____ _____    ______ ____
ROOT
ATOM      1  C   UNL     1      34.790 -21.539 -18.753  0.00  0.00    +0.139 C 
ENDROOT
BRANCH   1   2
ATOM      2  N   UNL     1      34.307 -20.778 -19.881  0.00  0.00    -0.291 N 
ATOM      3  C   UNL     1      32.895 -20.892 -20.248  0.00  0.00    +0.113 C 
ATOM      4  N   UNL     1      36.458 -19.865 -20.266  0.00  0.00    -0.233 NA
ATOM      5  N   UNL     1      36.796 -18.337 -22.097  0.00  0.00    -0.214 NA
ATOM      6  C   UNL     1      35.160 -19.954 -20.625  0.00  0.00    +0.115 C 
ATOM      7  C   UNL     1      34.614 -19.273 -21.695  0.00  0.00    +0.146 C 
ATOM      8  C   UNL     1      35.488 -18.472 -22.402  0.00  0.00    +0.210 C 
ATOM      9  C   UNL     1      37.207 -19.052 -21.033  0.00  0.00    +0.254 C 
BRANCH   8  10
ATOM     10  O   UNL     1      35.023 -17.763 -23.478  0.00  0.00    -0.440 OA
BRANCH  10  11
ATOM     11  C   UNL     1      34.566 -16.481 -23.243  0.00  0.00    +0.147 C 
ATOM     12  C   UNL     1      34.729 -15.900 -21.986  0.00  0.00    +0.041 C 
ATOM     13  C   UNL     1      33.940 -15.767 -24.266  0.00  0.00    +0.041 C 
ATOM     14  C   UNL     1      33.642 -13.892 -22.772  0.00  0.00    +0.139 C 
ATOM     15  C   UNL     1      34.268 -14.606 -21.750  0.00  0.00    +0.040 C 
ATOM     16  C   UNL     1      33.479 -14.472 -24.030  0.00  0.00    +0.040 C 
BRANCH  14  17
ATOM     17  O   UNL     1      33.192 -12.628 -22.542  0.00  0.00    -0.471 OA
ATOM     18  C   UNL     1      32.132 -12.476 -21.600  0.00  0.00    +0.252 C 
ENDBRANCH  14  17
ENDBRANCH  10  11
ENDBRANCH   8  10
ENDBRANCH   1   2
BRANCH   1  19
ATOM     19  C   UNL     1      33.626 -22.195 -18.030  0.00  0.00    +0.227 C 
BRANCH  19  20
ATOM     20  O   UNL     1      34.058 -23.425 -17.452  0.00  0.00    -0.474 OA
BRANCH  20  24
ATOM     21  C   UNL     1      35.977 -23.217 -13.777  0.00  0.00    -0.021 C 
ATOM     22  C   UNL     1      34.734 -23.841 -13.880  0.00  0.00    -0.001 C 
ATOM     23  C   UNL     1      36.575 -22.662 -14.909  0.00  0.00    -0.001 C 
ATOM     24  C   UNL     1      34.687 -23.356 -16.246  0.00  0.00    +0.139 C 
ATOM     25  C   UNL     1      34.088 -23.911 -15.114  0.00  0.00    +0.037 C 
ATOM     26  C   UNL     1      35.929 -22.731 -16.143  0.00  0.00    +0.037 C 
BRANCH  21  27
ATOM     27  C   UNL     1      36.673 -23.141 -12.443  0.00  0.00    +0.047 C 
BRANCH  27  32
ATOM     28  S   UNL     1      38.407 -24.907 -13.653  0.00  0.00    -0.048 S 
ATOM     29  O   UNL     1      35.842 -25.538 -10.839  0.00  0.00    -0.274 OA
ATOM     30  O   UNL     1      38.010 -27.369 -14.482  0.00  0.00    -0.263 OA
ATOM     31  N   UNL     1      36.834 -26.633 -12.619  0.00  0.00    -0.246 N 
ATOM     32  C   UNL     1      37.501 -24.383 -12.164  0.00  0.00    +0.137 C 
ATOM     33  C   UNL     1      36.627 -25.557 -11.782  0.00  0.00    +0.239 C 
ATOM     34  C   UNL     1      37.720 -26.516 -13.658  0.00  0.00    +0.279 C 
ATOM     35  H   UNL     1      36.348 -27.476 -12.473  0.00  0.00    +0.158 HD
ENDBRANCH  27  32
ENDBRANCH  21  27
ENDBRANCH  20  24
ENDBRANCH  19  20
ENDBRANCH   1  19
TORSDOF 9
ENDMDL
MODEL 6
REMARK VINA RESULT:     -11.5      6.288     11.426
REMARK  Name = 9826451
REMARK  9 active torsions:
REMARK  status: ('A' for Active; 'I' for Inactive)
REMARK    1  A    between atoms: C_1  and  N_2
REMARK    2  A    between atoms: C_1  and  C_19
REMARK    3  A    between atoms: C_8  and  O_10
REMARK    4  A    between atoms: O_10  and  C_11
REMARK    5  A    between atoms: C_14  and  O_17
REMARK    6  A    between atoms: C_19  and  O_20
REMARK    7  A    between atoms: O_20  and  C_24
REMARK    8  A    between atoms: C_21  and  C_27
REMARK    9  A    between atoms: C_27  and  C_32
REMARK                            x       y       z     vdW  Elec       q    Type
REMARK                         _______ _______ _______ _____ _____    ______ ____
ROOT
ATOM      1  C   UNL     1      32.611 -12.688 -21.923  0.00  0.00    +0.139 C 
ENDROOT
BRANCH   1   2
ATOM      2  N   UNL     1      33.418 -13.884 -21.883  0.00  0.00    -0.291 N 
ATOM      3  C   UNL     1      33.988 -14.302 -20.601  0.00  0.00    +0.113 C 
ATOM      4  N   UNL     1      33.133 -14.228 -24.209  0.00  0.00    -0.233 NA
ATOM      5  N   UNL     1      34.181 -16.117 -25.274  0.00  0.00    -0.214 NA
ATOM      6  C   UNL     1      33.670 -14.634 -23.040  0.00  0.00    +0.115 C 
ATOM      7  C   UNL     1      34.463 -15.756 -22.910  0.00  0.00    +0.146 C 
ATOM      8  C   UNL     1      34.687 -16.466 -24.073  0.00  0.00    +0.210 C 
ATOM      9  C   UNL     1      33.425 -15.004 -25.270  0.00  0.00    +0.254 C 
BRANCH   8  10
ATOM     10  O   UNL     1      35.464 -17.593 -24.027  0.00  0.00    -0.440 OA
BRANCH  10  11
ATOM     11  C   UNL     1      35.392 -18.368 -22.886  0.00  0.00    +0.147 C 
ATOM     12  C   UNL     1      36.473 -18.419 -22.007  0.00  0.00    +0.041 C 
ATOM     13  C   UNL     1      34.236 -19.101 -22.613  0.00  0.00    +0.041 C 
ATOM     14  C   UNL     1      35.244 -19.933 -20.582  0.00  0.00    +0.139 C 
ATOM     15  C   UNL     1      36.400 -19.201 -20.855  0.00  0.00    +0.040 C 
ATOM     16  C   UNL     1      34.162 -19.882 -21.461  0.00  0.00    +0.040 C 
BRANCH  14  17
ATOM     17  O   UNL     1      35.172 -20.696 -19.457  0.00  0.00    -0.471 OA
ATOM     18  C   UNL     1      36.305 -21.505 -19.146  0.00  0.00    +0.252 C 
ENDBRANCH  14  17
ENDBRANCH  10  11
ENDBRANCH   8  10
ENDBRANCH   1   2
BRANCH   1  19
ATOM     19  C   UNL     1      32.243 -12.261 -20.512  0.00  0.00    +0.227 C 
BRANCH  19  20
ATOM     20  O   UNL     1      31.139 -11.360 -20.561  0.00  0.00    -0.474 OA
BRANCH  20  24
ATOM     21  C   UNL     1      31.976  -7.389 -21.430  0.00  0.00    -0.021 C 
ATOM     22  C   UNL     1      32.177  -7.877 -20.140  0.00  0.00    -0.001 C 
ATOM     23  C   UNL     1      31.493  -8.235 -22.429  0.00  0.00    -0.001 C 
ATOM     24  C   UNL     1      31.413 -10.057 -20.845  0.00  0.00    +0.139 C 
ATOM     25  C   UNL     1      31.896  -9.211 -19.847  0.00  0.00    +0.037 C 
ATOM     26  C   UNL     1      31.211  -9.568 -22.136  0.00  0.00    +0.037 C 
BRANCH  21  27
ATOM     27  C   UNL     1      32.280  -5.947 -21.746  0.00  0.00    +0.047 C 
BRANCH  27  32
ATOM     28  S   UNL     1      32.734  -5.127 -24.336  0.00  0.00    -0.048 S 
ATOM     29  O   UNL     1      29.972  -4.033 -21.873  0.00  0.00    -0.274 OA
ATOM     30  O   UNL     1      32.665  -2.719 -25.386  0.00  0.00    -0.263 OA
ATOM     31  N   UNL     1      31.221  -3.195 -23.631  0.00  0.00    -0.246 N 
ATOM     32  C   UNL     1      31.555  -5.474 -22.994  0.00  0.00    +0.137 C 
ATOM     33  C   UNL     1      30.819  -4.176 -22.748  0.00  0.00    +0.239 C 
ATOM     34  C   UNL     1      32.201  -3.473 -24.545  0.00  0.00    +0.279 C 
ATOM     35  H   UNL     1      30.806  -2.302 -23.602  0.00  0.00    +0.158 HD
ENDBRANCH  27  32
ENDBRANCH  21  27
ENDBRANCH  20  24
ENDBRANCH  19  20
ENDBRANCH   1  19
TORSDOF 9
ENDMDL
MODEL 7
REMARK VINA RESULT:     -11.4      4.232     11.645
REMARK  Name = 9826451
REMARK  9 active torsions:
REMARK  status: ('A' for Active; 'I' for Inactive)
REMARK    1  A    between atoms: C_1  and  N_2
REMARK    2  A    between atoms: C_1  and  C_19
REMARK    3  A    between atoms: C_8  and  O_10
REMARK    4  A    between atoms: O_10  and  C_11
REMARK    5  A    between atoms: C_14  and  O_17
REMARK    6  A    between atoms: C_19  and  O_20
REMARK    7  A    between atoms: O_20  and  C_24
REMARK    8  A    between atoms: C_21  and  C_27
REMARK    9  A    between atoms: C_27  and  C_32
REMARK                            x       y       z     vdW  Elec       q    Type
REMARK                         _______ _______ _______ _____ _____    ______ ____
ROOT
ATOM      1  C   UNL     1      34.869 -19.783 -21.891  0.00  0.00    +0.139 C 
ENDROOT
BRANCH   1   2
ATOM      2  N   UNL     1      35.089 -18.361 -21.777  0.00  0.00    -0.291 N 
ATOM      3  C   UNL     1      35.769 -17.852 -20.585  0.00  0.00    +0.113 C 
ATOM      4  N   UNL     1      34.031 -17.967 -23.859  0.00  0.00    -0.233 NA
ATOM      5  N   UNL     1      33.825 -15.714 -24.685  0.00  0.00    -0.214 NA
ATOM      6  C   UNL     1      34.656 -17.473 -22.769  0.00  0.00    +0.115 C 
ATOM      7  C   UNL     1      34.897 -16.129 -22.569  0.00  0.00    +0.146 C 
ATOM      8  C   UNL     1      34.455 -15.287 -23.571  0.00  0.00    +0.210 C 
ATOM      9  C   UNL     1      33.648 -17.046 -24.763  0.00  0.00    +0.254 C 
BRANCH   8  10
ATOM     10  O   UNL     1      34.657 -13.938 -23.447  0.00  0.00    -0.440 OA
BRANCH  10  11
ATOM     11  C   UNL     1      33.722 -13.219 -22.728  0.00  0.00    +0.147 C 
ATOM     12  C   UNL     1      33.396 -11.919 -23.112  0.00  0.00    +0.041 C 
ATOM     13  C   UNL     1      33.103 -13.796 -21.618  0.00  0.00    +0.041 C 
ATOM     14  C   UNL     1      31.833 -11.770 -21.277  0.00  0.00    +0.139 C 
ATOM     15  C   UNL     1      32.452 -11.194 -22.386  0.00  0.00    +0.040 C 
ATOM     16  C   UNL     1      32.158 -13.071 -20.894  0.00  0.00    +0.040 C 
BRANCH  14  17
ATOM     17  O   UNL     1      30.910 -11.063 -20.568  0.00  0.00    -0.471 OA
ATOM     18  C   UNL     1      31.400 -10.052 -19.689  0.00  0.00    +0.252 C 
ENDBRANCH  14  17
ENDBRANCH  10  11
ENDBRANCH   8  10
ENDBRANCH   1   2
BRANCH   1  19
ATOM     19  C   UNL     1      34.449 -20.355 -20.548  0.00  0.00    +0.227 C 
BRANCH  19  20
ATOM     20  O   UNL     1      35.231 -21.513 -20.259  0.00  0.00    -0.474 OA
BRANCH  20  24
ATOM     21  C   UNL     1      35.784 -22.474 -16.259  0.00  0.00    -0.021 C 
ATOM     22  C   UNL     1      34.566 -22.750 -16.881  0.00  0.00    -0.001 C 
ATOM     23  C   UNL     1      36.816 -21.874 -16.982  0.00  0.00    -0.001 C 
ATOM     24  C   UNL     1      35.411 -21.828 -18.947  0.00  0.00    +0.139 C 
ATOM     25  C   UNL     1      34.380 -22.427 -18.225  0.00  0.00    +0.037 C 
ATOM     26  C   UNL     1      36.629 -21.550 -18.325  0.00  0.00    +0.037 C 
BRANCH  21  27
ATOM     27  C   UNL     1      35.984 -22.823 -14.807  0.00  0.00    +0.047 C 
BRANCH  27  32
ATOM     28  S   UNL     1      35.429 -25.048 -13.281  0.00  0.00    -0.048 S 
ATOM     29  O   UNL     1      38.765 -23.947 -14.878  0.00  0.00    -0.274 OA
ATOM     30  O   UNL     1      36.799 -26.142 -11.323  0.00  0.00    -0.263 OA
ATOM     31  N   UNL     1      37.970 -25.093 -13.033  0.00  0.00    -0.246 N 
ATOM     32  C   UNL     1      36.385 -24.276 -14.623  0.00  0.00    +0.137 C 
ATOM     33  C   UNL     1      37.837 -24.403 -14.220  0.00  0.00    +0.239 C 
ATOM     34  C   UNL     1      36.849 -25.525 -12.376  0.00  0.00    +0.279 C 
ATOM     35  H   UNL     1      38.864 -25.272 -12.661  0.00  0.00    +0.158 HD
ENDBRANCH  27  32
ENDBRANCH  21  27
ENDBRANCH  20  24
ENDBRANCH  19  20
ENDBRANCH   1  19
TORSDOF 9
ENDMDL
MODEL 8
REMARK VINA RESULT:     -11.1      5.718     14.469
REMARK  Name = 9826451
REMARK  9 active torsions:
REMARK  status: ('A' for Active; 'I' for Inactive)
REMARK    1  A    between atoms: C_1  and  N_2
REMARK    2  A    between atoms: C_1  and  C_19
REMARK    3  A    between atoms: C_8  and  O_10
REMARK    4  A    between atoms: O_10  and  C_11
REMARK    5  A    between atoms: C_14  and  O_17
REMARK    6  A    between atoms: C_19  and  O_20
REMARK    7  A    between atoms: O_20  and  C_24
REMARK    8  A    between atoms: C_21  and  C_27
REMARK    9  A    between atoms: C_27  and  C_32
REMARK                            x       y       z     vdW  Elec       q    Type
REMARK                         _______ _______ _______ _____ _____    ______ ____
ROOT
ATOM      1  C   UNL     1      33.136 -12.655 -24.047  0.00  0.00    +0.139 C 
ENDROOT
BRANCH   1   2
ATOM      2  N   UNL     1      33.686 -11.320 -24.042  0.00  0.00    -0.291 N 
ATOM      3  C   UNL     1      34.773 -11.008 -24.970  0.00  0.00    +0.113 C 
ATOM      4  N   UNL     1      32.204 -10.650 -22.320  0.00  0.00    -0.233 NA
ATOM      5  N   UNL     1      32.302  -8.398 -21.471  0.00  0.00    -0.214 NA
ATOM      6  C   UNL     1      33.208 -10.337 -23.166  0.00  0.00    +0.115 C 
ATOM      7  C   UNL     1      33.802  -9.093 -23.222  0.00  0.00    +0.146 C 
ATOM      8  C   UNL     1      33.302  -8.153 -22.342  0.00  0.00    +0.210 C 
ATOM      9  C   UNL     1      31.807  -9.649 -21.513  0.00  0.00    +0.254 C 
BRANCH   8  10
ATOM     10  O   UNL     1      33.839  -6.892 -22.337  0.00  0.00    -0.440 OA
BRANCH  10  11
ATOM     11  C   UNL     1      33.868  -6.210 -23.537  0.00  0.00    +0.147 C 
ATOM     12  C   UNL     1      35.045  -6.161 -24.284  0.00  0.00    +0.041 C 
ATOM     13  C   UNL     1      32.719  -5.568 -24.002  0.00  0.00    +0.041 C 
ATOM     14  C   UNL     1      33.925  -4.831 -25.961  0.00  0.00    +0.139 C 
ATOM     15  C   UNL     1      35.073  -5.472 -25.496  0.00  0.00    +0.040 C 
ATOM     16  C   UNL     1      32.748  -4.880 -25.214  0.00  0.00    +0.040 C 
BRANCH  14  17
ATOM     17  O   UNL     1      33.953  -4.160 -27.145  0.00  0.00    -0.471 OA
ATOM     18  C   UNL     1      33.042  -3.071 -27.296  0.00  0.00    +0.252 C 
ENDBRANCH  14  17
ENDBRANCH  10  11
ENDBRANCH   8  10
ENDBRANCH   1   2
BRANCH   1  19
ATOM     19  C   UNL     1      34.234 -13.671 -23.780  0.00  0.00    +0.227 C 
BRANCH  19  20
ATOM     20  O   UNL     1      34.008 -14.834 -24.575  0.00  0.00    -0.474 OA
BRANCH  20  24
ATOM     21  C   UNL     1      34.774 -18.511 -22.809  0.00  0.00    -0.021 C 
ATOM     22  C   UNL     1      35.125 -17.334 -22.148  0.00  0.00    -0.001 C 
ATOM     23  C   UNL     1      34.167 -18.453 -24.064  0.00  0.00    -0.001 C 
ATOM     24  C   UNL     1      34.260 -16.040 -23.996  0.00  0.00    +0.139 C 
ATOM     25  C   UNL     1      34.868 -16.098 -22.741  0.00  0.00    +0.037 C 
ATOM     26  C   UNL     1      33.911 -17.217 -24.657  0.00  0.00    +0.037 C 
BRANCH  21  27
ATOM     27  C   UNL     1      35.053 -19.846 -22.168  0.00  0.00    +0.047 C 
BRANCH  27  32
ATOM     28  S   UNL     1      35.996 -20.826 -19.772  0.00  0.00    -0.048 S 
ATOM     29  O   UNL     1      32.370 -20.043 -20.837  0.00  0.00    -0.274 OA
ATOM     30  O   UNL     1      35.067 -22.755 -18.249  0.00  0.00    -0.263 OA
ATOM     31  N   UNL     1      33.549 -21.488 -19.468  0.00  0.00    -0.246 N 
ATOM     32  C   UNL     1      34.772 -19.828 -20.676  0.00  0.00    +0.137 C 
ATOM     33  C   UNL     1      33.427 -20.441 -20.358  0.00  0.00    +0.239 C 
ATOM     34  C   UNL     1      34.793 -21.856 -19.029  0.00  0.00    +0.279 C 
ATOM     35  H   UNL     1      32.748 -21.967 -19.152  0.00  0.00    +0.158 HD
ENDBRANCH  27  32
ENDBRANCH  21  27
ENDBRANCH  20  24
ENDBRANCH  19  20
ENDBRANCH   1  19
TORSDOF 9
ENDMDL
MODEL 9
REMARK VINA RESULT:     -11.1      3.771     10.975
REMARK  Name = 9826451
REMARK  9 active torsions:
REMARK  status: ('A' for Active; 'I' for Inactive)
REMARK    1  A    between atoms: C_1  and  N_2
REMARK    2  A    between atoms: C_1  and  C_19
REMARK    3  A    between atoms: C_8  and  O_10
REMARK    4  A    between atoms: O_10  and  C_11
REMARK    5  A    between atoms: C_14  and  O_17
REMARK    6  A    between atoms: C_19  and  O_20
REMARK    7  A    between atoms: O_20  and  C_24
REMARK    8  A    between atoms: C_21  and  C_27
REMARK    9  A    between atoms: C_27  and  C_32
REMARK                            x       y       z     vdW  Elec       q    Type
REMARK                         _______ _______ _______ _____ _____    ______ ____
ROOT
ATOM      1  C   UNL     1      33.687 -22.504 -19.084  0.00  0.00    +0.139 C 
ENDROOT
BRANCH   1   2
ATOM      2  N   UNL     1      33.689 -21.224 -19.752  0.00  0.00    -0.291 N 
ATOM      3  C   UNL     1      32.409 -20.653 -20.174  0.00  0.00    +0.113 C 
ATOM      4  N   UNL     1      36.049 -21.084 -19.610  0.00  0.00    -0.233 NA
ATOM      5  N   UNL     1      37.188 -19.170 -20.528  0.00  0.00    -0.214 NA
ATOM      6  C   UNL     1      34.882 -20.537 -20.010  0.00  0.00    +0.115 C 
ATOM      7  C   UNL     1      34.789 -19.326 -20.665  0.00  0.00    +0.146 C 
ATOM      8  C   UNL     1      35.987 -18.680 -20.900  0.00  0.00    +0.210 C 
ATOM      9  C   UNL     1      37.146 -20.358 -19.898  0.00  0.00    +0.254 C 
BRANCH   8  10
ATOM     10  O   UNL     1      35.979 -17.472 -21.546  0.00  0.00    -0.440 OA
BRANCH  10  11
ATOM     11  C   UNL     1      35.147 -17.343 -22.640  0.00  0.00    +0.147 C 
ATOM     12  C   UNL     1      34.699 -18.478 -23.315  0.00  0.00    +0.041 C 
ATOM     13  C   UNL     1      34.752 -16.075 -23.069  0.00  0.00    +0.041 C 
ATOM     14  C   UNL     1      33.464 -17.080 -24.848  0.00  0.00    +0.139 C 
ATOM     15  C   UNL     1      33.858 -18.347 -24.419  0.00  0.00    +0.040 C 
ATOM     16  C   UNL     1      33.910 -15.944 -24.172  0.00  0.00    +0.040 C 
BRANCH  14  17
ATOM     17  O   UNL     1      32.641 -16.951 -25.926  0.00  0.00    -0.471 OA
ATOM     18  C   UNL     1      31.473 -17.770 -25.953  0.00  0.00    +0.252 C 
ENDBRANCH  14  17
ENDBRANCH  10  11
ENDBRANCH   8  10
ENDBRANCH   1   2
BRANCH   1  19
ATOM     19  C   UNL     1      32.963 -22.395 -17.753  0.00  0.00    +0.227 C 
BRANCH  19  20
ATOM     20  O   UNL     1      33.185 -23.582 -16.993  0.00  0.00    -0.474 OA
BRANCH  20  24
ATOM     21  C   UNL     1      35.703 -23.281 -13.707  0.00  0.00    -0.021 C 
ATOM     22  C   UNL     1      36.049 -22.663 -14.909  0.00  0.00    -0.001 C 
ATOM     23  C   UNL     1      34.511 -23.999 -13.609  0.00  0.00    -0.001 C 
ATOM     24  C   UNL     1      34.011 -23.483 -15.916  0.00  0.00    +0.139 C 
ATOM     25  C   UNL     1      35.203 -22.764 -16.014  0.00  0.00    +0.037 C 
ATOM     26  C   UNL     1      33.666 -24.101 -14.714  0.00  0.00    +0.037 C 
BRANCH  21  27
ATOM     27  C   UNL     1      36.617 -23.171 -12.514  0.00  0.00    +0.047 C 
BRANCH  27  32
ATOM     28  S   UNL     1      38.223 -24.855 -13.988  0.00  0.00    -0.048 S 
ATOM     29  O   UNL     1      36.108 -25.616 -10.851  0.00  0.00    -0.274 OA
ATOM     30  O   UNL     1      37.799 -27.320 -14.796  0.00  0.00    -0.263 OA
ATOM     31  N   UNL     1      36.874 -26.651 -12.773  0.00  0.00    -0.246 N 
ATOM     32  C   UNL     1      37.520 -24.384 -12.378  0.00  0.00    +0.137 C 
ATOM     33  C   UNL     1      36.751 -25.594 -11.895  0.00  0.00    +0.239 C 
ATOM     34  C   UNL     1      37.598 -26.489 -13.924  0.00  0.00    +0.279 C 
ATOM     35  H   UNL     1      36.444 -27.514 -12.573  0.00  0.00    +0.158 HD
ENDBRANCH  27  32
ENDBRANCH  21  27
ENDBRANCH  20  24
ENDBRANCH  19  20
ENDBRANCH   1  19
TORSDOF 9
ENDMDL
