MODEL 1
REMARK VINA RESULT:     -11.8      0.000      0.000
REMARK  Name = 10224181
REMARK  7 active torsions:
REMARK  status: ('A' for Active; 'I' for Inactive)
REMARK    1  A    between atoms: N_3  and  C_23
REMARK    2  A    between atoms: C_12  and  C_14
REMARK    3  A    between atoms: C_15  and  C_16
REMARK    4  A    between atoms: C_16  and  C_17
REMARK    5  A    between atoms: C_23  and  C_24
REMARK    6  A    between atoms: C_29  and  C_31
REMARK    7  A    between atoms: C_31  and  O_32
REMARK                            x       y       z     vdW  Elec       q    Type
REMARK                         _______ _______ _______ _____ _____    ______ ____
ROOT
ATOM      1  O   UNL     1      36.510 -22.832 -15.064  0.00  0.00    -0.267 OA
ATOM      2  O   UNL     1      32.602 -24.769 -13.459  0.00  0.00    -0.246 OA
ATOM      3  N   UNL     1      34.563 -23.813 -14.233  0.00  0.00    -0.244 N 
ATOM      4  N   UNL     1      32.562 -23.738 -15.533  0.00  0.00    -0.279 N 
ATOM      5  C   UNL     1      33.250 -23.024 -16.558  0.00  0.00    +0.069 A 
ATOM      6  C   UNL     1      34.602 -22.712 -16.403  0.00  0.00    +0.073 A 
ATOM      7  C   UNL     1      35.320 -23.117 -15.183  0.00  0.00    +0.266 A 
ATOM      8  C   UNL     1      33.195 -24.150 -14.349  0.00  0.00    +0.334 A 
ATOM      9  C   UNL     1      35.298 -22.011 -17.401  0.00  0.00    +0.014 C 
ATOM     10  C   UNL     1      32.608 -22.616 -17.742  0.00  0.00    +0.018 C 
ATOM     11  C   UNL     1      31.146 -24.051 -15.722  0.00  0.00    +0.135 C 
ATOM     12  C   UNL     1      34.644 -21.615 -18.564  0.00  0.00    +0.042 C 
ATOM     13  C   UNL     1      33.300 -21.918 -18.735  0.00  0.00    +0.010 C 
ENDROOT
BRANCH  12  14
ATOM     14  C   UNL     1      35.354 -20.902 -19.579  0.00  0.00    -0.064 C 
ATOM     15  C   UNL     1      35.952 -20.297 -20.432  0.00  0.00    -0.082 C 
BRANCH  15  16
ATOM     16  C   UNL     1      36.679 -19.557 -21.470  0.00  0.00    +0.103 C 
BRANCH  16  17
ATOM     17  C   UNL     1      35.744 -18.853 -22.420  0.00  0.00    -0.009 C 
ATOM     18  C   UNL     1      35.736 -17.467 -22.468  0.00  0.00    -0.003 C 
ATOM     19  C   UNL     1      34.907 -19.603 -23.233  0.00  0.00    -0.003 C 
ATOM     20  C   UNL     1      34.872 -16.816 -23.348  0.00  0.00    -0.000 C 
ATOM     21  C   UNL     1      34.042 -18.953 -24.113  0.00  0.00    -0.000 C 
ATOM     22  C   UNL     1      34.025 -17.560 -24.170  0.00  0.00    -0.000 C 
ENDBRANCH  16  17
ENDBRANCH  15  16
ENDBRANCH  12  14
BRANCH   3  23
ATOM     23  C   UNL     1      35.248 -24.229 -13.012  0.00  0.00    +0.140 C 
BRANCH  23  24
ATOM     24  C   UNL     1      36.607 -24.807 -13.300  0.00  0.00    +0.001 C 
ATOM     25  C   UNL     1      36.725 -25.865 -14.191  0.00  0.00    -0.002 C 
ATOM     26  C   UNL     1      37.724 -24.273 -12.673  0.00  0.00    -0.002 C 
ATOM     27  C   UNL     1      37.984 -26.401 -14.459  0.00  0.00    +0.006 C 
ATOM     28  C   UNL     1      38.984 -24.809 -12.941  0.00  0.00    +0.006 C 
ATOM     29  C   UNL     1      39.114 -25.873 -13.834  0.00  0.00    +0.075 C 
BRANCH  29  31
ATOM     30  O   UNL     1      41.181 -26.942 -13.278  0.00  0.00    -0.245 OA
ATOM     31  C   UNL     1      40.428 -26.431 -14.114  0.00  0.00    +0.338 C 
BRANCH  31  32
ATOM     32  O   UNL     1      40.766 -26.334 -15.428  0.00  0.00    -0.477 OA
ATOM     33  H   UNL     1      40.101 -26.379 -16.087  0.00  0.00    +0.295 HD
ENDBRANCH  31  32
ENDBRANCH  29  31
ENDBRANCH  23  24
ENDBRANCH   3  23
TORSDOF 7
ENDMDL
MODEL 2
REMARK VINA RESULT:     -11.8      2.546      6.293
REMARK  Name = 10224181
REMARK  7 active torsions:
REMARK  status: ('A' for Active; 'I' for Inactive)
REMARK    1  A    between atoms: N_3  and  C_23
REMARK    2  A    between atoms: C_12  and  C_14
REMARK    3  A    between atoms: C_15  and  C_16
REMARK    4  A    between atoms: C_16  and  C_17
REMARK    5  A    between atoms: C_23  and  C_24
REMARK    6  A    between atoms: C_29  and  C_31
REMARK    7  A    between atoms: C_31  and  O_32
REMARK                            x       y       z     vdW  Elec       q    Type
REMARK                         _______ _______ _______ _____ _____    ______ ____
ROOT
ATOM      1  O   UNL     1      32.128 -23.645 -16.819  0.00  0.00    -0.267 OA
ATOM      2  O   UNL     1      34.578 -24.538 -12.971  0.00  0.00    -0.246 OA
ATOM      3  N   UNL     1      33.334 -24.108 -14.875  0.00  0.00    -0.244 N 
ATOM      4  N   UNL     1      35.591 -23.354 -14.685  0.00  0.00    -0.279 N 
ATOM      5  C   UNL     1      35.511 -22.772 -15.985  0.00  0.00    +0.069 A 
ATOM      6  C   UNL     1      34.327 -22.869 -16.719  0.00  0.00    +0.073 A 
ATOM      7  C   UNL     1      33.161 -23.569 -16.157  0.00  0.00    +0.266 A 
ATOM      8  C   UNL     1      34.512 -24.033 -14.098  0.00  0.00    +0.334 A 
ATOM      9  C   UNL     1      34.228 -22.303 -18.001  0.00  0.00    +0.014 C 
ATOM     10  C   UNL     1      36.597 -22.093 -16.566  0.00  0.00    +0.018 C 
ATOM     11  C   UNL     1      36.844 -23.239 -13.938  0.00  0.00    +0.135 C 
ATOM     12  C   UNL     1      35.314 -21.635 -18.558  0.00  0.00    +0.042 C 
ATOM     13  C   UNL     1      36.498 -21.530 -17.841  0.00  0.00    +0.010 C 
ENDROOT
BRANCH  12  14
ATOM     14  C   UNL     1      35.210 -21.059 -19.862  0.00  0.00    -0.064 C 
ATOM     15  C   UNL     1      35.127 -20.574 -20.961  0.00  0.00    -0.082 C 
BRANCH  15  16
ATOM     16  C   UNL     1      35.028 -19.982 -22.300  0.00  0.00    +0.103 C 
BRANCH  16  17
ATOM     17  C   UNL     1      34.936 -18.478 -22.246  0.00  0.00    -0.009 C 
ATOM     18  C   UNL     1      34.974 -17.836 -21.017  0.00  0.00    -0.003 C 
ATOM     19  C   UNL     1      34.814 -17.760 -23.427  0.00  0.00    -0.003 C 
ATOM     20  C   UNL     1      34.890 -16.445 -20.968  0.00  0.00    -0.000 C 
ATOM     21  C   UNL     1      34.728 -16.369 -23.377  0.00  0.00    -0.000 C 
ATOM     22  C   UNL     1      34.766 -15.711 -22.148  0.00  0.00    -0.000 C 
ENDBRANCH  16  17
ENDBRANCH  15  16
ENDBRANCH  12  14
BRANCH   3  23
ATOM     23  C   UNL     1      32.194 -24.808 -14.289  0.00  0.00    +0.140 C 
BRANCH  23  24
ATOM     24  C   UNL     1      30.886 -24.168 -14.669  0.00  0.00    +0.001 C 
ATOM     25  C   UNL     1      29.946 -24.903 -15.378  0.00  0.00    -0.002 C 
ATOM     26  C   UNL     1      30.638 -22.852 -14.303  0.00  0.00    -0.002 C 
ATOM     27  C   UNL     1      28.733 -24.309 -15.729  0.00  0.00    +0.006 C 
ATOM     28  C   UNL     1      29.425 -22.258 -14.655  0.00  0.00    +0.006 C 
ATOM     29  C   UNL     1      28.473 -22.987 -15.368  0.00  0.00    +0.075 C 
BRANCH  29  31
ATOM     30  O   UNL     1      26.166 -22.427 -15.074  0.00  0.00    -0.245 OA
ATOM     31  C   UNL     1      27.208 -22.368 -15.734  0.00  0.00    +0.338 C 
BRANCH  31  32
ATOM     32  O   UNL     1      27.281 -21.694 -16.915  0.00  0.00    -0.477 OA
ATOM     33  H   UNL     1      28.104 -21.608 -17.354  0.00  0.00    +0.295 HD
ENDBRANCH  31  32
ENDBRANCH  29  31
ENDBRANCH  23  24
ENDBRANCH   3  23
TORSDOF 7
ENDMDL
MODEL 3
REMARK VINA RESULT:     -11.7      6.065      9.863
REMARK  Name = 10224181
REMARK  7 active torsions:
REMARK  status: ('A' for Active; 'I' for Inactive)
REMARK    1  A    between atoms: N_3  and  C_23
REMARK    2  A    between atoms: C_12  and  C_14
REMARK    3  A    between atoms: C_15  and  C_16
REMARK    4  A    between atoms: C_16  and  C_17
REMARK    5  A    between atoms: C_23  and  C_24
REMARK    6  A    between atoms: C_29  and  C_31
REMARK    7  A    between atoms: C_31  and  O_32
REMARK                            x       y       z     vdW  Elec       q    Type
REMARK                         _______ _______ _______ _____ _____    ______ ____
ROOT
ATOM      1  O   UNL     1      35.345 -16.648 -19.851  0.00  0.00    -0.267 OA
ATOM      2  O   UNL     1      35.831 -18.930 -23.870  0.00  0.00    -0.246 OA
ATOM      3  N   UNL     1      35.605 -17.815 -21.854  0.00  0.00    -0.244 N 
ATOM      4  N   UNL     1      34.606 -16.964 -23.849  0.00  0.00    -0.279 N 
ATOM      5  C   UNL     1      34.084 -15.855 -23.119  0.00  0.00    +0.069 A 
ATOM      6  C   UNL     1      34.334 -15.743 -21.750  0.00  0.00    +0.073 A 
ATOM      7  C   UNL     1      35.136 -16.764 -21.056  0.00  0.00    +0.266 A 
ATOM      8  C   UNL     1      35.377 -17.968 -23.241  0.00  0.00    +0.334 A 
ATOM      9  C   UNL     1      33.830 -14.658 -21.014  0.00  0.00    +0.014 C 
ATOM     10  C   UNL     1      33.313 -14.854 -23.736  0.00  0.00    +0.018 C 
ATOM     11  C   UNL     1      34.328 -17.058 -25.281  0.00  0.00    +0.135 C 
ATOM     12  C   UNL     1      33.069 -13.677 -21.643  0.00  0.00    +0.042 C 
ATOM     13  C   UNL     1      32.811 -13.775 -23.004  0.00  0.00    +0.010 C 
ENDROOT
BRANCH  12  14
ATOM     14  C   UNL     1      32.557 -12.575 -20.892  0.00  0.00    -0.064 C 
ATOM     15  C   UNL     1      32.123 -11.644 -20.262  0.00  0.00    -0.082 C 
BRANCH  15  16
ATOM     16  C   UNL     1      31.593 -10.509 -19.498  0.00  0.00    +0.103 C 
BRANCH  16  17
ATOM     17  C   UNL     1      31.762  -9.205 -20.234  0.00  0.00    -0.009 C 
ATOM     18  C   UNL     1      31.537  -9.160 -21.603  0.00  0.00    -0.003 C 
ATOM     19  C   UNL     1      32.138  -8.069 -19.533  0.00  0.00    -0.003 C 
ATOM     20  C   UNL     1      31.693  -7.954 -22.284  0.00  0.00    -0.000 C 
ATOM     21  C   UNL     1      32.295  -6.863 -20.214  0.00  0.00    -0.000 C 
ATOM     22  C   UNL     1      32.072  -6.804 -21.589  0.00  0.00    -0.000 C 
ENDBRANCH  16  17
ENDBRANCH  15  16
ENDBRANCH  12  14
BRANCH   3  23
ATOM     23  C   UNL     1      36.405 -18.844 -21.195  0.00  0.00    +0.140 C 
BRANCH  23  24
ATOM     24  C   UNL     1      35.545 -19.841 -20.465  0.00  0.00    +0.001 C 
ATOM     25  C   UNL     1      36.137 -20.749 -19.598  0.00  0.00    -0.002 C 
ATOM     26  C   UNL     1      34.172 -19.838 -20.668  0.00  0.00    -0.002 C 
ATOM     27  C   UNL     1      35.340 -21.673 -18.922  0.00  0.00    +0.006 C 
ATOM     28  C   UNL     1      33.375 -20.761 -19.992  0.00  0.00    +0.006 C 
ATOM     29  C   UNL     1      33.959 -21.679 -19.119  0.00  0.00    +0.075 C 
BRANCH  29  31
ATOM     30  O   UNL     1      32.091 -22.375 -17.796  0.00  0.00    -0.245 OA
ATOM     31  C   UNL     1      33.127 -22.642 -18.413  0.00  0.00    +0.338 C 
BRANCH  31  32
ATOM     32  O   UNL     1      33.614 -23.910 -18.496  0.00  0.00    -0.477 OA
ATOM     33  H   UNL     1      33.040 -24.618 -18.710  0.00  0.00    +0.295 HD
ENDBRANCH  31  32
ENDBRANCH  29  31
ENDBRANCH  23  24
ENDBRANCH   3  23
TORSDOF 7
ENDMDL
MODEL 4
REMARK VINA RESULT:     -11.2      1.206      2.170
REMARK  Name = 10224181
REMARK  7 active torsions:
REMARK  status: ('A' for Active; 'I' for Inactive)
REMARK    1  A    between atoms: N_3  and  C_23
REMARK    2  A    between atoms: C_12  and  C_14
REMARK    3  A    between atoms: C_15  and  C_16
REMARK    4  A    between atoms: C_16  and  C_17
REMARK    5  A    between atoms: C_23  and  C_24
REMARK    6  A    between atoms: C_29  and  C_31
REMARK    7  A    between atoms: C_31  and  O_32
REMARK                            x       y       z     vdW  Elec       q    Type
REMARK                         _______ _______ _______ _____ _____    ______ ____
ROOT
ATOM      1  O   UNL     1      35.925 -22.589 -14.552  0.00  0.00    -0.267 OA
ATOM      2  O   UNL     1      33.387 -25.182 -11.647  0.00  0.00    -0.246 OA
ATOM      3  N   UNL     1      34.674 -23.892 -13.074  0.00  0.00    -0.244 N 
ATOM      4  N   UNL     1      32.446 -24.520 -13.657  0.00  0.00    -0.279 N 
ATOM      5  C   UNL     1      32.568 -23.819 -14.894  0.00  0.00    +0.069 A 
ATOM      6  C   UNL     1      33.757 -23.157 -15.205  0.00  0.00    +0.073 A 
ATOM      7  C   UNL     1      34.887 -23.179 -14.261  0.00  0.00    +0.266 A 
ATOM      8  C   UNL     1      33.489 -24.576 -12.719  0.00  0.00    +0.334 A 
ATOM      9  C   UNL     1      33.897 -22.462 -16.417  0.00  0.00    +0.014 C 
ATOM     10  C   UNL     1      31.518 -23.769 -15.829  0.00  0.00    +0.018 C 
ATOM     11  C   UNL     1      31.189 -25.204 -13.357  0.00  0.00    +0.135 C 
ATOM     12  C   UNL     1      32.847 -22.424 -17.329  0.00  0.00    +0.042 C 
ATOM     13  C   UNL     1      31.657 -23.078 -17.035  0.00  0.00    +0.010 C 
ENDROOT
BRANCH  12  14
ATOM     14  C   UNL     1      32.992 -21.716 -18.562  0.00  0.00    -0.064 C 
ATOM     15  C   UNL     1      33.111 -21.117 -19.600  0.00  0.00    -0.082 C 
BRANCH  15  16
ATOM     16  C   UNL     1      33.254 -20.386 -20.864  0.00  0.00    +0.103 C 
BRANCH  16  17
ATOM     17  C   UNL     1      34.633 -19.797 -21.022  0.00  0.00    -0.009 C 
ATOM     18  C   UNL     1      35.664 -20.248 -20.211  0.00  0.00    -0.003 C 
ATOM     19  C   UNL     1      34.849 -18.814 -21.976  0.00  0.00    -0.003 C 
ATOM     20  C   UNL     1      36.940 -19.704 -20.358  0.00  0.00    -0.000 C 
ATOM     21  C   UNL     1      36.125 -18.270 -22.123  0.00  0.00    -0.000 C 
ATOM     22  C   UNL     1      37.170 -18.715 -21.314  0.00  0.00    -0.000 C 
ENDBRANCH  16  17
ENDBRANCH  15  16
ENDBRANCH  12  14
BRANCH   3  23
ATOM     23  C   UNL     1      35.777 -23.933 -12.117  0.00  0.00    +0.140 C 
BRANCH  23  24
ATOM     24  C   UNL     1      37.005 -24.576 -12.703  0.00  0.00    +0.001 C 
ATOM     25  C   UNL     1      36.865 -25.661 -13.559  0.00  0.00    -0.002 C 
ATOM     26  C   UNL     1      38.259 -24.077 -12.381  0.00  0.00    -0.002 C 
ATOM     27  C   UNL     1      38.003 -26.257 -14.102  0.00  0.00    +0.006 C 
ATOM     28  C   UNL     1      39.396 -24.673 -12.924  0.00  0.00    +0.006 C 
ATOM     29  C   UNL     1      39.268 -25.764 -13.785  0.00  0.00    +0.075 C 
BRANCH  29  31
ATOM     30  O   UNL     1      41.286 -27.048 -13.722  0.00  0.00    -0.245 OA
ATOM     31  C   UNL     1      40.455 -26.385 -14.352  0.00  0.00    +0.338 C 
BRANCH  31  32
ATOM     32  O   UNL     1      40.572 -26.160 -15.689  0.00  0.00    -0.477 OA
ATOM     33  H   UNL     1      40.325 -25.331 -16.047  0.00  0.00    +0.295 HD
ENDBRANCH  31  32
ENDBRANCH  29  31
ENDBRANCH  23  24
ENDBRANCH   3  23
TORSDOF 7
ENDMDL
MODEL 5
REMARK VINA RESULT:     -10.8     11.079     17.176
REMARK  Name = 10224181
REMARK  7 active torsions:
REMARK  status: ('A' for Active; 'I' for Inactive)
REMARK    1  A    between atoms: N_3  and  C_23
REMARK    2  A    between atoms: C_12  and  C_14
REMARK    3  A    between atoms: C_15  and  C_16
REMARK    4  A    between atoms: C_16  and  C_17
REMARK    5  A    between atoms: C_23  and  C_24
REMARK    6  A    between atoms: C_29  and  C_31
REMARK    7  A    between atoms: C_31  and  O_32
REMARK                            x       y       z     vdW  Elec       q    Type
REMARK                         _______ _______ _______ _____ _____    ______ ____
ROOT
ATOM      1  O   UNL     1      35.558  -9.314 -24.421  0.00  0.00    -0.267 OA
ATOM      2  O   UNL     1      33.268  -6.503 -21.513  0.00  0.00    -0.246 OA
ATOM      3  N   UNL     1      34.427  -7.880 -22.969  0.00  0.00    -0.244 N 
ATOM      4  N   UNL     1      32.588  -8.710 -21.692  0.00  0.00    -0.279 N 
ATOM      5  C   UNL     1      32.759 -10.000 -22.278  0.00  0.00    +0.069 A 
ATOM      6  C   UNL     1      33.774 -10.211 -23.212  0.00  0.00    +0.073 A 
ATOM      7  C   UNL     1      34.671  -9.108 -23.596  0.00  0.00    +0.266 A 
ATOM      8  C   UNL     1      33.413  -7.622 -22.019  0.00  0.00    +0.334 A 
ATOM      9  C   UNL     1      33.959 -11.473 -23.800  0.00  0.00    +0.014 C 
ATOM     10  C   UNL     1      31.929 -11.085 -21.944  0.00  0.00    +0.018 C 
ATOM     11  C   UNL     1      31.516  -8.516 -20.716  0.00  0.00    +0.135 C 
ATOM     12  C   UNL     1      33.127 -12.535 -23.457  0.00  0.00    +0.042 C 
ATOM     13  C   UNL     1      32.113 -12.341 -22.528  0.00  0.00    +0.010 C 
ENDROOT
BRANCH  12  14
ATOM     14  C   UNL     1      33.317 -13.818 -24.056  0.00  0.00    -0.064 C 
ATOM     15  C   UNL     1      33.478 -14.902 -24.557  0.00  0.00    -0.082 C 
BRANCH  15  16
ATOM     16  C   UNL     1      33.675 -16.223 -25.165  0.00  0.00    +0.103 C 
BRANCH  16  17
ATOM     17  C   UNL     1      34.264 -17.209 -24.189  0.00  0.00    -0.009 C 
ATOM     18  C   UNL     1      33.986 -18.561 -24.334  0.00  0.00    -0.003 C 
ATOM     19  C   UNL     1      35.076 -16.751 -23.162  0.00  0.00    -0.003 C 
ATOM     20  C   UNL     1      34.532 -19.473 -23.432  0.00  0.00    -0.000 C 
ATOM     21  C   UNL     1      35.621 -17.664 -22.260  0.00  0.00    -0.000 C 
ATOM     22  C   UNL     1      35.349 -19.024 -22.394  0.00  0.00    -0.000 C 
ENDBRANCH  16  17
ENDBRANCH  15  16
ENDBRANCH  12  14
BRANCH   3  23
ATOM     23  C   UNL     1      35.300  -6.765 -23.328  0.00  0.00    +0.140 C 
BRANCH  23  24
ATOM     24  C   UNL     1      34.718  -5.931 -24.437  0.00  0.00    +0.001 C 
ATOM     25  C   UNL     1      33.377  -5.573 -24.391  0.00  0.00    -0.002 C 
ATOM     26  C   UNL     1      35.529  -5.529 -25.489  0.00  0.00    -0.002 C 
ATOM     27  C   UNL     1      32.837  -4.799 -25.418  0.00  0.00    +0.006 C 
ATOM     28  C   UNL     1      34.989  -4.756 -26.516  0.00  0.00    +0.006 C 
ATOM     29  C   UNL     1      33.643  -4.391 -26.481  0.00  0.00    +0.075 C 
BRANCH  29  31
ATOM     30  O   UNL     1      33.446  -3.605 -28.732  0.00  0.00    -0.245 OA
ATOM     31  C   UNL     1      33.080  -3.583 -27.553  0.00  0.00    +0.338 C 
BRANCH  31  32
ATOM     32  O   UNL     1      32.077  -2.770 -27.120  0.00  0.00    -0.477 OA
ATOM     33  H   UNL     1      32.183  -2.276 -26.332  0.00  0.00    +0.295 HD
ENDBRANCH  31  32
ENDBRANCH  29  31
ENDBRANCH  23  24
ENDBRANCH   3  23
TORSDOF 7
ENDMDL
MODEL 6
REMARK VINA RESULT:     -10.7      4.497     10.868
REMARK  Name = 10224181
REMARK  7 active torsions:
REMARK  status: ('A' for Active; 'I' for Inactive)
REMARK    1  A    between atoms: N_3  and  C_23
REMARK    2  A    between atoms: C_12  and  C_14
REMARK    3  A    between atoms: C_15  and  C_16
REMARK    4  A    between atoms: C_16  and  C_17
REMARK    5  A    between atoms: C_23  and  C_24
REMARK    6  A    between atoms: C_29  and  C_31
REMARK    7  A    between atoms: C_31  and  O_32
REMARK                            x       y       z     vdW  Elec       q    Type
REMARK                         _______ _______ _______ _____ _____    ______ ____
ROOT
ATOM      1  O   UNL     1      37.570 -19.522 -20.454  0.00  0.00    -0.267 OA
ATOM      2  O   UNL     1      33.461 -19.082 -22.581  0.00  0.00    -0.246 OA
ATOM      3  N   UNL     1      35.520 -19.282 -21.542  0.00  0.00    -0.244 N 
ATOM      4  N   UNL     1      33.600 -20.421 -20.696  0.00  0.00    -0.279 N 
ATOM      5  C   UNL     1      34.388 -20.975 -19.644  0.00  0.00    +0.069 A 
ATOM      6  C   UNL     1      35.747 -20.671 -19.557  0.00  0.00    +0.073 A 
ATOM      7  C   UNL     1      36.372 -19.778 -20.547  0.00  0.00    +0.266 A 
ATOM      8  C   UNL     1      34.140 -19.564 -21.668  0.00  0.00    +0.334 A 
ATOM      9  C   UNL     1      36.540 -21.205 -18.528  0.00  0.00    +0.014 C 
ATOM     10  C   UNL     1      33.838 -21.832 -18.673  0.00  0.00    +0.018 C 
ATOM     11  C   UNL     1      32.178 -20.758 -20.764  0.00  0.00    +0.135 C 
ATOM     12  C   UNL     1      35.977 -22.052 -17.577  0.00  0.00    +0.042 C 
ATOM     13  C   UNL     1      34.626 -22.365 -17.650  0.00  0.00    +0.010 C 
ENDROOT
BRANCH  12  14
ATOM     14  C   UNL     1      36.785 -22.595 -16.532  0.00  0.00    -0.064 C 
ATOM     15  C   UNL     1      37.465 -23.056 -15.651  0.00  0.00    -0.082 C 
BRANCH  15  16
ATOM     16  C   UNL     1      38.291 -23.621 -14.578  0.00  0.00    +0.103 C 
BRANCH  16  17
ATOM     17  C   UNL     1      37.457 -24.102 -13.418  0.00  0.00    -0.009 C 
ATOM     18  C   UNL     1      37.629 -25.394 -12.943  0.00  0.00    -0.003 C 
ATOM     19  C   UNL     1      36.531 -23.244 -12.843  0.00  0.00    -0.003 C 
ATOM     20  C   UNL     1      36.858 -25.837 -11.868  0.00  0.00    -0.000 C 
ATOM     21  C   UNL     1      35.760 -23.688 -11.769  0.00  0.00    -0.000 C 
ATOM     22  C   UNL     1      35.923 -24.984 -11.282  0.00  0.00    -0.000 C 
ENDBRANCH  16  17
ENDBRANCH  15  16
ENDBRANCH  12  14
BRANCH   3  23
ATOM     23  C   UNL     1      36.110 -18.393 -22.540  0.00  0.00    +0.140 C 
BRANCH  23  24
ATOM     24  C   UNL     1      35.418 -17.057 -22.579  0.00  0.00    +0.001 C 
ATOM     25  C   UNL     1      35.092 -16.492 -23.805  0.00  0.00    -0.002 C 
ATOM     26  C   UNL     1      35.115 -16.409 -21.390  0.00  0.00    -0.002 C 
ATOM     27  C   UNL     1      34.451 -15.254 -23.842  0.00  0.00    +0.006 C 
ATOM     28  C   UNL     1      34.474 -15.171 -21.427  0.00  0.00    +0.006 C 
ATOM     29  C   UNL     1      34.142 -14.593 -22.653  0.00  0.00    +0.075 C 
BRANCH  29  31
ATOM     30  O   UNL     1      32.367 -13.054 -22.198  0.00  0.00    -0.245 OA
ATOM     31  C   UNL     1      33.472 -13.302 -22.691  0.00  0.00    +0.338 C 
BRANCH  31  32
ATOM     32  O   UNL     1      34.201 -12.357 -23.345  0.00  0.00    -0.477 OA
ATOM     33  H   UNL     1      35.137 -12.370 -23.295  0.00  0.00    +0.295 HD
ENDBRANCH  31  32
ENDBRANCH  29  31
ENDBRANCH  23  24
ENDBRANCH   3  23
TORSDOF 7
ENDMDL
MODEL 7
REMARK VINA RESULT:     -10.5      5.508      9.615
REMARK  Name = 10224181
REMARK  7 active torsions:
REMARK  status: ('A' for Active; 'I' for Inactive)
REMARK    1  A    between atoms: N_3  and  C_23
REMARK    2  A    between atoms: C_12  and  C_14
REMARK    3  A    between atoms: C_15  and  C_16
REMARK    4  A    between atoms: C_16  and  C_17
REMARK    5  A    between atoms: C_23  and  C_24
REMARK    6  A    between atoms: C_29  and  C_31
REMARK    7  A    between atoms: C_31  and  O_32
REMARK                            x       y       z     vdW  Elec       q    Type
REMARK                         _______ _______ _______ _____ _____    ______ ____
ROOT
ATOM      1  O   UNL     1      35.873 -16.326 -21.175  0.00  0.00    -0.267 OA
ATOM      2  O   UNL     1      34.939 -20.245 -23.493  0.00  0.00    -0.246 OA
ATOM      3  N   UNL     1      35.421 -18.309 -22.319  0.00  0.00    -0.244 N 
ATOM      4  N   UNL     1      34.045 -18.254 -24.269  0.00  0.00    -0.279 N 
ATOM      5  C   UNL     1      33.897 -16.842 -24.129  0.00  0.00    +0.069 A 
ATOM      6  C   UNL     1      34.520 -16.178 -23.072  0.00  0.00    +0.073 A 
ATOM      7  C   UNL     1      35.332 -16.929 -22.100  0.00  0.00    +0.266 A 
ATOM      8  C   UNL     1      34.808 -19.021 -23.374  0.00  0.00    +0.334 A 
ATOM      9  C   UNL     1      34.386 -14.788 -22.916  0.00  0.00    +0.014 C 
ATOM     10  C   UNL     1      33.132 -16.080 -25.031  0.00  0.00    +0.018 C 
ATOM     11  C   UNL     1      33.381 -18.925 -25.386  0.00  0.00    +0.135 C 
ATOM     12  C   UNL     1      33.624 -14.052 -23.819  0.00  0.00    +0.042 C 
ATOM     13  C   UNL     1      32.998 -14.699 -24.877  0.00  0.00    +0.010 C 
ENDROOT
BRANCH  12  14
ATOM     14  C   UNL     1      33.489 -12.639 -23.660  0.00  0.00    -0.064 C 
ATOM     15  C   UNL     1      33.376 -11.447 -23.521  0.00  0.00    -0.082 C 
BRANCH  15  16
ATOM     16  C   UNL     1      33.238  -9.997 -23.349  0.00  0.00    +0.103 C 
BRANCH  16  17
ATOM     17  C   UNL     1      32.646  -9.643 -22.009  0.00  0.00    -0.009 C 
ATOM     18  C   UNL     1      32.854  -8.375 -21.485  0.00  0.00    -0.003 C 
ATOM     19  C   UNL     1      31.902 -10.589 -21.320  0.00  0.00    -0.003 C 
ATOM     20  C   UNL     1      32.305  -8.047 -20.245  0.00  0.00    -0.000 C 
ATOM     21  C   UNL     1      31.354 -10.262 -20.080  0.00  0.00    -0.000 C 
ATOM     22  C   UNL     1      31.555  -8.991 -19.543  0.00  0.00    -0.000 C 
ENDBRANCH  16  17
ENDBRANCH  15  16
ENDBRANCH  12  14
BRANCH   3  23
ATOM     23  C   UNL     1      36.221 -19.082 -21.372  0.00  0.00    +0.140 C 
BRANCH  23  24
ATOM     24  C   UNL     1      35.370 -20.003 -20.540  0.00  0.00    +0.001 C 
ATOM     25  C   UNL     1      35.980 -20.957 -19.736  0.00  0.00    -0.002 C 
ATOM     26  C   UNL     1      33.988 -19.886 -20.586  0.00  0.00    -0.002 C 
ATOM     27  C   UNL     1      35.191 -21.811 -18.965  0.00  0.00    +0.006 C 
ATOM     28  C   UNL     1      33.199 -20.740 -19.815  0.00  0.00    +0.006 C 
ATOM     29  C   UNL     1      33.801 -21.703 -19.004  0.00  0.00    +0.075 C 
BRANCH  29  31
ATOM     30  O   UNL     1      31.907 -22.289 -17.666  0.00  0.00    -0.245 OA
ATOM     31  C   UNL     1      32.979 -22.593 -18.199  0.00  0.00    +0.338 C 
BRANCH  31  32
ATOM     32  O   UNL     1      33.519 -23.836 -18.082  0.00  0.00    -0.477 OA
ATOM     33  H   UNL     1      33.087 -24.572 -18.469  0.00  0.00    +0.295 HD
ENDBRANCH  31  32
ENDBRANCH  29  31
ENDBRANCH  23  24
ENDBRANCH   3  23
TORSDOF 7
ENDMDL
MODEL 8
REMARK VINA RESULT:     -10.5      2.308      3.415
REMARK  Name = 10224181
REMARK  7 active torsions:
REMARK  status: ('A' for Active; 'I' for Inactive)
REMARK    1  A    between atoms: N_3  and  C_23
REMARK    2  A    between atoms: C_12  and  C_14
REMARK    3  A    between atoms: C_15  and  C_16
REMARK    4  A    between atoms: C_16  and  C_17
REMARK    5  A    between atoms: C_23  and  C_24
REMARK    6  A    between atoms: C_29  and  C_31
REMARK    7  A    between atoms: C_31  and  O_32
REMARK                            x       y       z     vdW  Elec       q    Type
REMARK                         _______ _______ _______ _____ _____    ______ ____
ROOT
ATOM      1  O   UNL     1      37.590 -22.014 -17.555  0.00  0.00    -0.267 OA
ATOM      2  O   UNL     1      34.707 -24.402 -14.799  0.00  0.00    -0.246 OA
ATOM      3  N   UNL     1      36.167 -23.222 -16.155  0.00  0.00    -0.244 N 
ATOM      4  N   UNL     1      33.818 -23.224 -16.585  0.00  0.00    -0.279 N 
ATOM      5  C   UNL     1      34.021 -22.377 -17.715  0.00  0.00    +0.069 A 
ATOM      6  C   UNL     1      35.310 -21.960 -18.051  0.00  0.00    +0.073 A 
ATOM      7  C   UNL     1      36.463 -22.392 -17.243  0.00  0.00    +0.266 A 
ATOM      8  C   UNL     1      34.879 -23.668 -15.779  0.00  0.00    +0.334 A 
ATOM      9  C   UNL     1      35.530 -21.127 -19.159  0.00  0.00    +0.014 C 
ATOM     10  C   UNL     1      32.952 -21.938 -18.517  0.00  0.00    +0.018 C 
ATOM     11  C   UNL     1      32.457 -23.645 -16.255  0.00  0.00    +0.135 C 
ATOM     12  C   UNL     1      34.459 -20.702 -19.941  0.00  0.00    +0.042 C 
ATOM     13  C   UNL     1      33.171 -21.109 -19.620  0.00  0.00    +0.010 C 
ENDROOT
BRANCH  12  14
ATOM     14  C   UNL     1      34.686 -19.855 -21.068  0.00  0.00    -0.064 C 
ATOM     15  C   UNL     1      34.876 -19.137 -22.017  0.00  0.00    -0.082 C 
BRANCH  15  16
ATOM     16  C   UNL     1      35.105 -18.260 -23.171  0.00  0.00    +0.103 C 
BRANCH  16  17
ATOM     17  C   UNL     1      34.749 -16.826 -22.869  0.00  0.00    -0.009 C 
ATOM     18  C   UNL     1      34.332 -15.995 -23.898  0.00  0.00    -0.003 C 
ATOM     19  C   UNL     1      34.842 -16.361 -21.565  0.00  0.00    -0.003 C 
ATOM     20  C   UNL     1      34.001 -14.670 -23.619  0.00  0.00    -0.000 C 
ATOM     21  C   UNL     1      34.512 -15.035 -21.286  0.00  0.00    -0.000 C 
ATOM     22  C   UNL     1      34.091 -14.190 -22.312  0.00  0.00    -0.000 C 
ENDBRANCH  16  17
ENDBRANCH  15  16
ENDBRANCH  12  14
BRANCH   3  23
ATOM     23  C   UNL     1      37.290 -23.668 -15.334  0.00  0.00    +0.140 C 
BRANCH  23  24
ATOM     24  C   UNL     1      36.877 -23.926 -13.910  0.00  0.00    +0.001 C 
ATOM     25  C   UNL     1      36.557 -22.855 -13.087  0.00  0.00    -0.002 C 
ATOM     26  C   UNL     1      36.820 -25.231 -13.440  0.00  0.00    -0.002 C 
ATOM     27  C   UNL     1      36.174 -23.094 -11.767  0.00  0.00    +0.006 C 
ATOM     28  C   UNL     1      36.437 -25.470 -12.121  0.00  0.00    +0.006 C 
ATOM     29  C   UNL     1      36.114 -24.401 -11.284  0.00  0.00    +0.075 C 
BRANCH  29  31
ATOM     30  O   UNL     1      34.889 -25.496  -9.544  0.00  0.00    -0.245 OA
ATOM     31  C   UNL     1      35.714 -24.651  -9.907  0.00  0.00    +0.338 C 
BRANCH  31  32
ATOM     32  O   UNL     1      36.354 -23.838  -9.023  0.00  0.00    -0.477 OA
ATOM     33  H   UNL     1      35.999 -22.994  -8.822  0.00  0.00    +0.295 HD
ENDBRANCH  31  32
ENDBRANCH  29  31
ENDBRANCH  23  24
ENDBRANCH   3  23
TORSDOF 7
ENDMDL
MODEL 9
REMARK VINA RESULT:     -10.4      2.988      6.318
REMARK  Name = 10224181
REMARK  7 active torsions:
REMARK  status: ('A' for Active; 'I' for Inactive)
REMARK    1  A    between atoms: N_3  and  C_23
REMARK    2  A    between atoms: C_12  and  C_14
REMARK    3  A    between atoms: C_15  and  C_16
REMARK    4  A    between atoms: C_16  and  C_17
REMARK    5  A    between atoms: C_23  and  C_24
REMARK    6  A    between atoms: C_29  and  C_31
REMARK    7  A    between atoms: C_31  and  O_32
REMARK                            x       y       z     vdW  Elec       q    Type
REMARK                         _______ _______ _______ _____ _____    ______ ____
ROOT
ATOM      1  O   UNL     1      32.821 -24.062 -16.308  0.00  0.00    -0.267 OA
ATOM      2  O   UNL     1      33.817 -24.890 -11.845  0.00  0.00    -0.246 OA
ATOM      3  N   UNL     1      33.295 -24.494 -14.065  0.00  0.00    -0.244 N 
ATOM      4  N   UNL     1      35.301 -23.629 -13.100  0.00  0.00    -0.279 N 
ATOM      5  C   UNL     1      35.648 -23.032 -14.348  0.00  0.00    +0.069 A 
ATOM      6  C   UNL     1      34.802 -23.177 -15.449  0.00  0.00    +0.073 A 
ATOM      7  C   UNL     1      33.552 -23.945 -15.327  0.00  0.00    +0.266 A 
ATOM      8  C   UNL     1      34.122 -24.371 -12.925  0.00  0.00    +0.334 A 
ATOM      9  C   UNL     1      35.126 -22.596 -16.686  0.00  0.00    +0.014 C 
ATOM     10  C   UNL     1      36.830 -22.289 -14.515  0.00  0.00    +0.018 C 
ATOM     11  C   UNL     1      36.205 -23.462 -11.963  0.00  0.00    +0.135 C 
ATOM     12  C   UNL     1      36.301 -21.865 -16.831  0.00  0.00    +0.042 C 
ATOM     13  C   UNL     1      37.153 -21.711 -15.745  0.00  0.00    +0.010 C 
ENDROOT
BRANCH  12  14
ATOM     14  C   UNL     1      36.628 -21.275 -18.090  0.00  0.00    -0.064 C 
ATOM     15  C   UNL     1      36.908 -20.775 -19.151  0.00  0.00    -0.082 C 
BRANCH  15  16
ATOM     16  C   UNL     1      37.250 -20.166 -20.440  0.00  0.00    +0.103 C 
BRANCH  16  17
ATOM     17  C   UNL     1      36.023 -19.758 -21.215  0.00  0.00    -0.009 C 
ATOM     18  C   UNL     1      36.166 -19.038 -22.392  0.00  0.00    -0.003 C 
ATOM     19  C   UNL     1      34.768 -20.110 -20.739  0.00  0.00    -0.003 C 
ATOM     20  C   UNL     1      35.031 -18.662 -23.108  0.00  0.00    -0.000 C 
ATOM     21  C   UNL     1      33.633 -19.733 -21.455  0.00  0.00    -0.000 C 
ATOM     22  C   UNL     1      33.763 -19.010 -22.639  0.00  0.00    -0.000 C 
ENDBRANCH  16  17
ENDBRANCH  15  16
ENDBRANCH  12  14
BRANCH   3  23
ATOM     23  C   UNL     1      32.062 -25.261 -13.912  0.00  0.00    +0.140 C 
BRANCH  23  24
ATOM     24  C   UNL     1      30.863 -24.503 -14.415  0.00  0.00    +0.001 C 
ATOM     25  C   UNL     1      29.951 -25.139 -15.245  0.00  0.00    -0.002 C 
ATOM     26  C   UNL     1      30.686 -23.178 -14.041  0.00  0.00    -0.002 C 
ATOM     27  C   UNL     1      28.840 -24.437 -15.711  0.00  0.00    +0.006 C 
ATOM     28  C   UNL     1      29.575 -22.475 -14.507  0.00  0.00    +0.006 C 
ATOM     29  C   UNL     1      28.652 -23.105 -15.343  0.00  0.00    +0.075 C 
BRANCH  29  31
ATOM     30  O   UNL     1      27.445 -21.722 -16.878  0.00  0.00    -0.245 OA
ATOM     31  C   UNL     1      27.492 -22.371 -15.828  0.00  0.00    +0.338 C 
BRANCH  31  32
ATOM     32  O   UNL     1      26.426 -22.469 -14.989  0.00  0.00    -0.477 OA
ATOM     33  H   UNL     1      25.848 -21.740 -14.879  0.00  0.00    +0.295 HD
ENDBRANCH  31  32
ENDBRANCH  29  31
ENDBRANCH  23  24
ENDBRANCH   3  23
TORSDOF 7
ENDMDL
