MODEL 1
REMARK VINA RESULT:     -11.7      0.000      0.000
REMARK  Name = 23635314
REMARK  9 active torsions:
REMARK  status: ('A' for Active; 'I' for Inactive)
REMARK    1  A    between atoms: C_2  and  C_8
REMARK    2  A    between atoms: C_3  and  C_23
REMARK    3  A    between atoms: C_7  and  O_13
REMARK    4  A    between atoms: O_13  and  C_14
REMARK    5  A    between atoms: C_14  and  C_15
REMARK    6  A    between atoms: C_15  and  N_17
REMARK    7  A    between atoms: C_23  and  C_26
REMARK    8  A    between atoms: N_25  and  C_28
REMARK    9  A    between atoms: C_28  and  C_29
REMARK                            x       y       z     vdW  Elec       q    Type
REMARK                         _______ _______ _______ _____ _____    ______ ____
ROOT
ATOM      1  N   UNL     1      34.023 -23.870 -16.233  0.00  0.00    -0.248 NA
ATOM      2  C   UNL     1      34.891 -22.208 -17.756  0.00  0.00    +0.019 C 
ATOM      3  C   UNL     1      35.169 -23.751 -15.526  0.00  0.00    +0.068 C 
ATOM      4  C   UNL     1      36.056 -22.113 -17.005  0.00  0.00    +0.003 C 
ATOM      5  C   UNL     1      33.913 -23.093 -17.333  0.00  0.00    +0.098 C 
ATOM      6  C   UNL     1      36.205 -22.897 -15.866  0.00  0.00    +0.015 C 
ENDROOT
BRANCH   2   8
ATOM      7  C   UNL     1      34.346 -19.866 -21.233  0.00  0.00    +0.138 C 
ATOM      8  C   UNL     1      34.705 -21.407 -18.946  0.00  0.00    +0.002 C 
ATOM      9  C   UNL     1      35.632 -20.115 -20.765  0.00  0.00    +0.037 C 
ATOM     10  C   UNL     1      33.238 -20.378 -20.567  0.00  0.00    +0.037 C 
ATOM     11  C   UNL     1      35.812 -20.889 -19.619  0.00  0.00    +0.003 C 
ATOM     12  C   UNL     1      33.418 -21.151 -19.420  0.00  0.00    +0.003 C 
BRANCH   7  13
ATOM     13  O   UNL     1      34.170 -19.105 -22.359  0.00  0.00    -0.478 OA
BRANCH  13  14
ATOM     14  C   UNL     1      34.975 -17.940 -22.478  0.00  0.00    +0.183 C 
BRANCH  14  15
ATOM     15  C   UNL     1      34.878 -17.422 -23.904  0.00  0.00    -0.029 C 
BRANCH  15  17
ATOM     16  O   UNL     1      33.154 -13.635 -23.359  0.00  0.00    -0.358 OA
ATOM     17  N   UNL     1      34.675 -15.975 -23.916  0.00  0.00    +0.393 N 
ATOM     18  C   UNL     1      33.492 -15.620 -24.712  0.00  0.00    -0.044 C 
ATOM     19  C   UNL     1      34.536 -15.456 -22.548  0.00  0.00    -0.044 C 
ATOM     20  C   UNL     1      33.294 -14.108 -24.700  0.00  0.00    +0.119 C 
ATOM     21  C   UNL     1      34.314 -13.947 -22.587  0.00  0.00    +0.119 C 
ATOM     22  H   UNL     1      35.496 -15.548 -24.345  0.00  0.00    -0.079 HD
ENDBRANCH  15  17
ENDBRANCH  14  15
ENDBRANCH  13  14
ENDBRANCH   7  13
ENDBRANCH   2   8
BRANCH   3  23
ATOM     23  C   UNL     1      35.296 -24.607 -14.310  0.00  0.00    +0.131 C 
BRANCH  23  26
ATOM     24  O   UNL     1      34.197 -23.912 -12.267  0.00  0.00    -0.275 OA
ATOM     25  N   UNL     1      32.981 -25.104 -13.845  0.00  0.00    -0.300 N 
ATOM     26  C   UNL     1      34.122 -24.487 -13.350  0.00  0.00    +0.229 C 
ATOM     27  H   UNL     1      33.025 -25.539 -14.728  0.00  0.00    +0.150 HD
BRANCH  25  28
ATOM     28  C   UNL     1      31.733 -25.132 -13.118  0.00  0.00    +0.116 C 
BRANCH  28  29
ATOM     29  C   UNL     1      30.609 -24.529 -13.910  0.00  0.00    -0.003 C 
ATOM     30  C   UNL     1      29.695 -25.360 -14.547  0.00  0.00    -0.003 C 
ATOM     31  C   UNL     1      30.494 -23.147 -13.998  0.00  0.00    -0.003 C 
ATOM     32  C   UNL     1      28.650 -24.800 -15.283  0.00  0.00    -0.000 C 
ATOM     33  C   UNL     1      29.449 -22.587 -14.734  0.00  0.00    -0.000 C 
ATOM     34  C   UNL     1      28.528 -23.414 -15.377  0.00  0.00    -0.000 C 
ENDBRANCH  28  29
ENDBRANCH  25  28
ENDBRANCH  23  26
ENDBRANCH   3  23
TORSDOF 9
ENDMDL
MODEL 2
REMARK VINA RESULT:     -11.6      2.177     11.082
REMARK  Name = 23635314
REMARK  9 active torsions:
REMARK  status: ('A' for Active; 'I' for Inactive)
REMARK    1  A    between atoms: C_2  and  C_8
REMARK    2  A    between atoms: C_3  and  C_23
REMARK    3  A    between atoms: C_7  and  O_13
REMARK    4  A    between atoms: O_13  and  C_14
REMARK    5  A    between atoms: C_14  and  C_15
REMARK    6  A    between atoms: C_15  and  N_17
REMARK    7  A    between atoms: C_23  and  C_26
REMARK    8  A    between atoms: N_25  and  C_28
REMARK    9  A    between atoms: C_28  and  C_29
REMARK                            x       y       z     vdW  Elec       q    Type
REMARK                         _______ _______ _______ _____ _____    ______ ____
ROOT
ATOM      1  N   UNL     1      34.257 -18.515 -23.889  0.00  0.00    -0.248 NA
ATOM      2  C   UNL     1      34.724 -19.161 -21.609  0.00  0.00    +0.019 C 
ATOM      3  C   UNL     1      34.857 -17.333 -23.626  0.00  0.00    +0.068 C 
ATOM      4  C   UNL     1      35.333 -17.934 -21.375  0.00  0.00    +0.003 C 
ATOM      5  C   UNL     1      34.206 -19.402 -22.870  0.00  0.00    +0.098 C 
ATOM      6  C   UNL     1      35.404 -16.996 -22.399  0.00  0.00    +0.015 C 
ENDROOT
BRANCH   2   8
ATOM      7  C   UNL     1      34.460 -22.075 -18.557  0.00  0.00    +0.138 C 
ATOM      8  C   UNL     1      34.633 -20.158 -20.565  0.00  0.00    +0.002 C 
ATOM      9  C   UNL     1      33.298 -21.538 -19.099  0.00  0.00    +0.037 C 
ATOM     10  C   UNL     1      35.709 -21.662 -19.009  0.00  0.00    +0.037 C 
ATOM     11  C   UNL     1      33.384 -20.577 -20.106  0.00  0.00    +0.003 C 
ATOM     12  C   UNL     1      35.795 -20.701 -20.016  0.00  0.00    +0.003 C 
BRANCH   7  13
ATOM     13  O   UNL     1      34.375 -23.018 -17.567  0.00  0.00    -0.478 OA
BRANCH  13  14
ATOM     14  C   UNL     1      33.115 -23.161 -16.924  0.00  0.00    +0.183 C 
BRANCH  14  15
ATOM     15  C   UNL     1      33.346 -23.372 -15.437  0.00  0.00    -0.029 C 
BRANCH  15  17
ATOM     16  O   UNL     1      29.587 -24.644 -14.070  0.00  0.00    -0.358 OA
ATOM     17  N   UNL     1      32.075 -23.422 -14.718  0.00  0.00    +0.393 N 
ATOM     18  C   UNL     1      30.944 -23.407 -15.656  0.00  0.00    -0.044 C 
ATOM     19  C   UNL     1      32.004 -24.615 -13.863  0.00  0.00    -0.044 C 
ATOM     20  C   UNL     1      29.630 -23.471 -14.884  0.00  0.00    +0.119 C 
ATOM     21  C   UNL     1      30.665 -24.651 -13.133  0.00  0.00    +0.119 C 
ATOM     22  H   UNL     1      32.018 -22.593 -14.127  0.00  0.00    -0.079 HD
ENDBRANCH  15  17
ENDBRANCH  14  15
ENDBRANCH  13  14
ENDBRANCH   7  13
ENDBRANCH   2   8
BRANCH   3  23
ATOM     23  C   UNL     1      34.915 -16.349 -24.747  0.00  0.00    +0.131 C 
BRANCH  23  26
ATOM     24  O   UNL     1      32.723 -15.400 -25.145  0.00  0.00    -0.275 OA
ATOM     25  N   UNL     1      34.305 -14.133 -24.012  0.00  0.00    -0.300 N 
ATOM     26  C   UNL     1      33.848 -15.267 -24.670  0.00  0.00    +0.229 C 
ATOM     27  H   UNL     1      35.227 -14.126 -23.667  0.00  0.00    +0.150 HD
BRANCH  25  28
ATOM     28  C   UNL     1      33.480 -12.964 -23.812  0.00  0.00    +0.116 C 
BRANCH  28  29
ATOM     29  C   UNL     1      32.912 -12.908 -22.424  0.00  0.00    -0.003 C 
ATOM     30  C   UNL     1      32.117 -11.832 -22.049  0.00  0.00    -0.003 C 
ATOM     31  C   UNL     1      33.188 -13.934 -21.527  0.00  0.00    -0.003 C 
ATOM     32  C   UNL     1      31.589 -11.780 -20.759  0.00  0.00    -0.000 C 
ATOM     33  C   UNL     1      32.660 -13.882 -20.236  0.00  0.00    -0.000 C 
ATOM     34  C   UNL     1      31.861 -12.804 -19.852  0.00  0.00    -0.000 C 
ENDBRANCH  28  29
ENDBRANCH  25  28
ENDBRANCH  23  26
ENDBRANCH   3  23
TORSDOF 9
ENDMDL
MODEL 3
REMARK VINA RESULT:     -11.6      3.192     11.381
REMARK  Name = 23635314
REMARK  9 active torsions:
REMARK  status: ('A' for Active; 'I' for Inactive)
REMARK    1  A    between atoms: C_2  and  C_8
REMARK    2  A    between atoms: C_3  and  C_23
REMARK    3  A    between atoms: C_7  and  O_13
REMARK    4  A    between atoms: O_13  and  C_14
REMARK    5  A    between atoms: C_14  and  C_15
REMARK    6  A    between atoms: C_15  and  N_17
REMARK    7  A    between atoms: C_23  and  C_26
REMARK    8  A    between atoms: N_25  and  C_28
REMARK    9  A    between atoms: C_28  and  C_29
REMARK                            x       y       z     vdW  Elec       q    Type
REMARK                         _______ _______ _______ _____ _____    ______ ____
ROOT
ATOM      1  N   UNL     1      35.323 -17.112 -22.475  0.00  0.00    -0.248 NA
ATOM      2  C   UNL     1      34.754 -19.300 -21.622  0.00  0.00    +0.019 C 
ATOM      3  C   UNL     1      34.831 -17.503 -23.671  0.00  0.00    +0.068 C 
ATOM      4  C   UNL     1      34.258 -19.667 -22.867  0.00  0.00    +0.003 C 
ATOM      5  C   UNL     1      35.272 -18.023 -21.477  0.00  0.00    +0.098 C 
ATOM      6  C   UNL     1      34.294 -18.756 -23.917  0.00  0.00    +0.015 C 
ENDROOT
BRANCH   2   8
ATOM      7  C   UNL     1      34.689 -22.000 -18.371  0.00  0.00    +0.138 C 
ATOM      8  C   UNL     1      34.732 -20.224 -20.510  0.00  0.00    +0.002 C 
ATOM      9  C   UNL     1      33.494 -21.596 -18.954  0.00  0.00    +0.037 C 
ATOM     10  C   UNL     1      35.907 -21.523 -18.846  0.00  0.00    +0.037 C 
ATOM     11  C   UNL     1      33.515 -20.705 -20.027  0.00  0.00    +0.003 C 
ATOM     12  C   UNL     1      35.927 -20.633 -19.919  0.00  0.00    +0.003 C 
BRANCH   7  13
ATOM     13  O   UNL     1      34.669 -22.874 -17.316  0.00  0.00    -0.478 OA
BRANCH  13  14
ATOM     14  C   UNL     1      35.677 -22.710 -16.327  0.00  0.00    +0.183 C 
BRANCH  14  15
ATOM     15  C   UNL     1      35.349 -23.601 -15.141  0.00  0.00    -0.029 C 
BRANCH  15  17
ATOM     16  O   UNL     1      37.745 -26.514 -13.300  0.00  0.00    -0.358 OA
ATOM     17  N   UNL     1      36.445 -24.529 -14.872  0.00  0.00    +0.393 N 
ATOM     18  C   UNL     1      37.118 -24.191 -13.610  0.00  0.00    -0.044 C 
ATOM     19  C   UNL     1      35.958 -25.915 -14.828  0.00  0.00    -0.044 C 
ATOM     20  C   UNL     1      38.250 -25.179 -13.346  0.00  0.00    +0.119 C 
ATOM     21  C   UNL     1      37.117 -26.862 -14.535  0.00  0.00    +0.119 C 
ATOM     22  H   UNL     1      37.119 -24.444 -15.633  0.00  0.00    -0.079 HD
ENDBRANCH  15  17
ENDBRANCH  14  15
ENDBRANCH  13  14
ENDBRANCH   7  13
ENDBRANCH   2   8
BRANCH   3  23
ATOM     23  C   UNL     1      34.885 -16.501 -24.777  0.00  0.00    +0.131 C 
BRANCH  23  26
ATOM     24  O   UNL     1      32.753 -15.375 -25.001  0.00  0.00    -0.275 OA
ATOM     25  N   UNL     1      34.503 -14.266 -23.953  0.00  0.00    -0.300 N 
ATOM     26  C   UNL     1      33.915 -15.342 -24.602  0.00  0.00    +0.229 C 
ATOM     27  H   UNL     1      35.444 -14.340 -23.672  0.00  0.00    +0.150 HD
BRANCH  25  28
ATOM     28  C   UNL     1      33.789 -13.042 -23.671  0.00  0.00    +0.116 C 
BRANCH  28  29
ATOM     29  C   UNL     1      33.127 -13.076 -22.324  0.00  0.00    -0.003 C 
ATOM     30  C   UNL     1      32.186 -12.107 -21.996  0.00  0.00    -0.003 C 
ATOM     31  C   UNL     1      33.461 -14.077 -21.419  0.00  0.00    -0.003 C 
ATOM     32  C   UNL     1      31.570 -12.139 -20.745  0.00  0.00    -0.000 C 
ATOM     33  C   UNL     1      32.845 -14.108 -20.167  0.00  0.00    -0.000 C 
ATOM     34  C   UNL     1      31.900 -13.138 -19.830  0.00  0.00    -0.000 C 
ENDBRANCH  28  29
ENDBRANCH  25  28
ENDBRANCH  23  26
ENDBRANCH   3  23
TORSDOF 9
ENDMDL
MODEL 4
REMARK VINA RESULT:     -11.4      2.359     11.743
REMARK  Name = 23635314
REMARK  9 active torsions:
REMARK  status: ('A' for Active; 'I' for Inactive)
REMARK    1  A    between atoms: C_2  and  C_8
REMARK    2  A    between atoms: C_3  and  C_23
REMARK    3  A    between atoms: C_7  and  O_13
REMARK    4  A    between atoms: O_13  and  C_14
REMARK    5  A    between atoms: C_14  and  C_15
REMARK    6  A    between atoms: C_15  and  N_17
REMARK    7  A    between atoms: C_23  and  C_26
REMARK    8  A    between atoms: N_25  and  C_28
REMARK    9  A    between atoms: C_28  and  C_29
REMARK                            x       y       z     vdW  Elec       q    Type
REMARK                         _______ _______ _______ _____ _____    ______ ____
ROOT
ATOM      1  N   UNL     1      35.296 -16.867 -22.265  0.00  0.00    -0.248 NA
ATOM      2  C   UNL     1      34.712 -19.115 -21.599  0.00  0.00    +0.019 C 
ATOM      3  C   UNL     1      34.833 -17.165 -23.500  0.00  0.00    +0.068 C 
ATOM      4  C   UNL     1      34.246 -19.384 -22.880  0.00  0.00    +0.003 C 
ATOM      5  C   UNL     1      35.223 -17.853 -21.343  0.00  0.00    +0.098 C 
ATOM      6  C   UNL     1      34.305 -18.395 -23.855  0.00  0.00    +0.015 C 
ENDROOT
BRANCH   2   8
ATOM      7  C   UNL     1      34.574 -22.060 -18.570  0.00  0.00    +0.138 C 
ATOM      8  C   UNL     1      34.665 -20.122 -20.562  0.00  0.00    +0.002 C 
ATOM      9  C   UNL     1      35.804 -21.605 -19.033  0.00  0.00    +0.037 C 
ATOM     10  C   UNL     1      33.389 -21.555 -19.094  0.00  0.00    +0.037 C 
ATOM     11  C   UNL     1      35.850 -20.634 -20.032  0.00  0.00    +0.003 C 
ATOM     12  C   UNL     1      33.435 -20.584 -20.093  0.00  0.00    +0.003 C 
BRANCH   7  13
ATOM     13  O   UNL     1      34.529 -23.015 -17.588  0.00  0.00    -0.478 OA
BRANCH  13  14
ATOM     14  C   UNL     1      33.261 -23.269 -16.999  0.00  0.00    +0.183 C 
BRANCH  14  15
ATOM     15  C   UNL     1      33.436 -23.387 -15.494  0.00  0.00    -0.029 C 
BRANCH  15  17
ATOM     16  O   UNL     1      29.559 -24.393 -14.238  0.00  0.00    -0.358 OA
ATOM     17  N   UNL     1      32.141 -23.344 -14.818  0.00  0.00    +0.393 N 
ATOM     18  C   UNL     1      31.045 -23.271 -15.794  0.00  0.00    -0.044 C 
ATOM     19  C   UNL     1      31.965 -24.516 -13.950  0.00  0.00    -0.044 C 
ATOM     20  C   UNL     1      29.704 -23.238 -15.065  0.00  0.00    +0.119 C 
ATOM     21  C   UNL     1      30.603 -24.454 -13.265  0.00  0.00    +0.119 C 
ATOM     22  H   UNL     1      32.119 -22.504 -14.240  0.00  0.00    -0.079 HD
ENDBRANCH  15  17
ENDBRANCH  14  15
ENDBRANCH  13  14
ENDBRANCH   7  13
ENDBRANCH   2   8
BRANCH   3  23
ATOM     23  C   UNL     1      34.911 -16.080 -24.523  0.00  0.00    +0.131 C 
BRANCH  23  26
ATOM     24  O   UNL     1      32.942 -14.980 -25.405  0.00  0.00    -0.275 OA
ATOM     25  N   UNL     1      33.694 -14.404 -23.285  0.00  0.00    -0.300 N 
ATOM     26  C   UNL     1      33.739 -15.110 -24.479  0.00  0.00    +0.229 C 
ATOM     27  H   UNL     1      34.382 -14.583 -22.604  0.00  0.00    +0.150 HD
BRANCH  25  28
ATOM     28  C   UNL     1      32.676 -13.419 -23.002  0.00  0.00    +0.116 C 
BRANCH  28  29
ATOM     29  C   UNL     1      33.176 -12.019 -23.213  0.00  0.00    -0.003 C 
ATOM     30  C   UNL     1      32.608 -10.972 -22.498  0.00  0.00    -0.003 C 
ATOM     31  C   UNL     1      34.201 -11.786 -24.123  0.00  0.00    -0.003 C 
ATOM     32  C   UNL     1      33.072  -9.671 -22.695  0.00  0.00    -0.000 C 
ATOM     33  C   UNL     1      34.665 -10.485 -24.319  0.00  0.00    -0.000 C 
ATOM     34  C   UNL     1      34.100  -9.427 -23.605  0.00  0.00    -0.000 C 
ENDBRANCH  28  29
ENDBRANCH  25  28
ENDBRANCH  23  26
ENDBRANCH   3  23
TORSDOF 9
ENDMDL
MODEL 5
REMARK VINA RESULT:     -11.3      2.834     11.948
REMARK  Name = 23635314
REMARK  9 active torsions:
REMARK  status: ('A' for Active; 'I' for Inactive)
REMARK    1  A    between atoms: C_2  and  C_8
REMARK    2  A    between atoms: C_3  and  C_23
REMARK    3  A    between atoms: C_7  and  O_13
REMARK    4  A    between atoms: O_13  and  C_14
REMARK    5  A    between atoms: C_14  and  C_15
REMARK    6  A    between atoms: C_15  and  N_17
REMARK    7  A    between atoms: C_23  and  C_26
REMARK    8  A    between atoms: N_25  and  C_28
REMARK    9  A    between atoms: C_28  and  C_29
REMARK                            x       y       z     vdW  Elec       q    Type
REMARK                         _______ _______ _______ _____ _____    ______ ____
ROOT
ATOM      1  N   UNL     1      35.408 -16.955 -22.078  0.00  0.00    -0.248 NA
ATOM      2  C   UNL     1      34.744 -19.190 -21.447  0.00  0.00    +0.019 C 
ATOM      3  C   UNL     1      34.898 -17.201 -23.305  0.00  0.00    +0.068 C 
ATOM      4  C   UNL     1      34.231 -19.407 -22.720  0.00  0.00    +0.003 C 
ATOM      5  C   UNL     1      35.317 -17.959 -21.177  0.00  0.00    +0.098 C 
ATOM      6  C   UNL     1      34.306 -18.398 -23.673  0.00  0.00    +0.015 C 
ENDROOT
BRANCH   2   8
ATOM      7  C   UNL     1      34.563 -22.199 -18.484  0.00  0.00    +0.138 C 
ATOM      8  C   UNL     1      34.682 -20.220 -20.433  0.00  0.00    +0.002 C 
ATOM      9  C   UNL     1      33.386 -21.692 -19.023  0.00  0.00    +0.037 C 
ATOM     10  C   UNL     1      35.799 -21.725 -18.909  0.00  0.00    +0.037 C 
ATOM     11  C   UNL     1      33.446 -20.700 -20.001  0.00  0.00    +0.003 C 
ATOM     12  C   UNL     1      35.858 -20.733 -19.887  0.00  0.00    +0.003 C 
BRANCH   7  13
ATOM     13  O   UNL     1      34.504 -23.174 -17.522  0.00  0.00    -0.478 OA
BRANCH  13  14
ATOM     14  C   UNL     1      34.942 -22.815 -16.218  0.00  0.00    +0.183 C 
BRANCH  14  15
ATOM     15  C   UNL     1      34.443 -23.858 -15.231  0.00  0.00    -0.029 C 
BRANCH  15  17
ATOM     16  O   UNL     1      37.813 -24.722 -12.883  0.00  0.00    -0.358 OA
ATOM     17  N   UNL     1      35.564 -24.569 -14.621  0.00  0.00    +0.393 N 
ATOM     18  C   UNL     1      36.839 -23.920 -14.955  0.00  0.00    -0.044 C 
ATOM     19  C   UNL     1      35.404 -24.643 -13.162  0.00  0.00    -0.044 C 
ATOM     20  C   UNL     1      37.992 -24.674 -14.299  0.00  0.00    +0.119 C 
ATOM     21  C   UNL     1      36.590 -25.380 -12.547  0.00  0.00    +0.119 C 
ATOM     22  H   UNL     1      35.573 -25.518 -14.997  0.00  0.00    -0.079 HD
ENDBRANCH  15  17
ENDBRANCH  14  15
ENDBRANCH  13  14
ENDBRANCH   7  13
ENDBRANCH   2   8
BRANCH   3  23
ATOM     23  C   UNL     1      34.996 -16.096 -24.304  0.00  0.00    +0.131 C 
BRANCH  23  26
ATOM     24  O   UNL     1      33.000 -15.109 -25.256  0.00  0.00    -0.275 OA
ATOM     25  N   UNL     1      33.697 -14.420 -23.151  0.00  0.00    -0.300 N 
ATOM     26  C   UNL     1      33.787 -15.171 -24.315  0.00  0.00    +0.229 C 
ATOM     27  H   UNL     1      34.381 -14.545 -22.454  0.00  0.00    +0.150 HD
BRANCH  25  28
ATOM     28  C   UNL     1      32.639 -13.465 -22.922  0.00  0.00    +0.116 C 
BRANCH  28  29
ATOM     29  C   UNL     1      33.106 -12.052 -23.122  0.00  0.00    -0.003 C 
ATOM     30  C   UNL     1      34.147 -11.790 -24.003  0.00  0.00    -0.003 C 
ATOM     31  C   UNL     1      32.490 -11.019 -22.423  0.00  0.00    -0.003 C 
ATOM     32  C   UNL     1      34.581 -10.478 -24.189  0.00  0.00    -0.000 C 
ATOM     33  C   UNL     1      32.924  -9.707 -22.609  0.00  0.00    -0.000 C 
ATOM     34  C   UNL     1      33.971  -9.436 -23.492  0.00  0.00    -0.000 C 
ENDBRANCH  28  29
ENDBRANCH  25  28
ENDBRANCH  23  26
ENDBRANCH   3  23
TORSDOF 9
ENDMDL
MODEL 6
REMARK VINA RESULT:     -11.2      5.039     13.701
REMARK  Name = 23635314
REMARK  9 active torsions:
REMARK  status: ('A' for Active; 'I' for Inactive)
REMARK    1  A    between atoms: C_2  and  C_8
REMARK    2  A    between atoms: C_3  and  C_23
REMARK    3  A    between atoms: C_7  and  O_13
REMARK    4  A    between atoms: O_13  and  C_14
REMARK    5  A    between atoms: C_14  and  C_15
REMARK    6  A    between atoms: C_15  and  N_17
REMARK    7  A    between atoms: C_23  and  C_26
REMARK    8  A    between atoms: N_25  and  C_28
REMARK    9  A    between atoms: C_28  and  C_29
REMARK                            x       y       z     vdW  Elec       q    Type
REMARK                         _______ _______ _______ _____ _____    ______ ____
ROOT
ATOM      1  N   UNL     1      32.725 -11.111 -22.720  0.00  0.00    -0.248 NA
ATOM      2  C   UNL     1      33.204 -13.342 -21.928  0.00  0.00    +0.019 C 
ATOM      3  C   UNL     1      31.870 -10.978 -21.682  0.00  0.00    +0.068 C 
ATOM      4  C   UNL     1      32.316 -13.169 -20.874  0.00  0.00    +0.003 C 
ATOM      5  C   UNL     1      33.373 -12.293 -22.817  0.00  0.00    +0.098 C 
ATOM      6  C   UNL     1      31.632 -11.967 -20.741  0.00  0.00    +0.015 C 
ENDROOT
BRANCH   2   8
ATOM      7  C   UNL     1      35.329 -16.965 -22.411  0.00  0.00    +0.138 C 
ATOM      8  C   UNL     1      33.931 -14.581 -22.094  0.00  0.00    +0.002 C 
ATOM      9  C   UNL     1      34.959 -16.229 -23.531  0.00  0.00    +0.037 C 
ATOM     10  C   UNL     1      35.005 -16.521 -21.133  0.00  0.00    +0.037 C 
ATOM     11  C   UNL     1      34.259 -15.033 -23.372  0.00  0.00    +0.003 C 
ATOM     12  C   UNL     1      34.304 -15.326 -20.975  0.00  0.00    +0.003 C 
BRANCH   7  13
ATOM     13  O   UNL     1      36.017 -18.139 -22.567  0.00  0.00    -0.478 OA
BRANCH  13  14
ATOM     14  C   UNL     1      35.370 -19.325 -22.122  0.00  0.00    +0.183 C 
BRANCH  14  15
ATOM     15  C   UNL     1      36.028 -19.785 -20.832  0.00  0.00    -0.029 C 
BRANCH  15  17
ATOM     16  O   UNL     1      33.069 -22.275 -19.200  0.00  0.00    -0.358 OA
ATOM     17  N   UNL     1      35.035 -20.346 -19.918  0.00  0.00    +0.393 N 
ATOM     18  C   UNL     1      33.701 -20.350 -20.533  0.00  0.00    -0.044 C 
ATOM     19  C   UNL     1      35.407 -21.709 -19.515  0.00  0.00    -0.044 C 
ATOM     20  C   UNL     1      32.685 -20.949 -19.565  0.00  0.00    +0.119 C 
ATOM     21  C   UNL     1      34.352 -22.277 -18.571  0.00  0.00    +0.119 C 
ATOM     22  H   UNL     1      35.008 -19.756 -19.086  0.00  0.00    -0.079 HD
ENDBRANCH  15  17
ENDBRANCH  14  15
ENDBRANCH  13  14
ENDBRANCH   7  13
ENDBRANCH   2   8
BRANCH   3  23
ATOM     23  C   UNL     1      31.152  -9.674 -21.570  0.00  0.00    +0.131 C 
BRANCH  23  26
ATOM     24  O   UNL     1      32.019  -7.896 -20.173  0.00  0.00    -0.275 OA
ATOM     25  N   UNL     1      32.922  -8.200 -22.290  0.00  0.00    -0.300 N 
ATOM     26  C   UNL     1      32.061  -8.499 -21.243  0.00  0.00    +0.229 C 
ATOM     27  H   UNL     1      32.876  -8.745 -23.109  0.00  0.00    +0.150 HD
BRANCH  25  28
ATOM     28  C   UNL     1      33.881  -7.123 -22.226  0.00  0.00    +0.116 C 
BRANCH  28  29
ATOM     29  C   UNL     1      33.885  -6.299 -23.482  0.00  0.00    -0.003 C 
ATOM     30  C   UNL     1      32.761  -5.553 -23.817  0.00  0.00    -0.003 C 
ATOM     31  C   UNL     1      35.012  -6.291 -24.295  0.00  0.00    -0.003 C 
ATOM     32  C   UNL     1      32.764  -4.787 -24.983  0.00  0.00    -0.000 C 
ATOM     33  C   UNL     1      35.015  -5.525 -25.461  0.00  0.00    -0.000 C 
ATOM     34  C   UNL     1      33.890  -4.774 -25.806  0.00  0.00    -0.000 C 
ENDBRANCH  28  29
ENDBRANCH  25  28
ENDBRANCH  23  26
ENDBRANCH   3  23
TORSDOF 9
ENDMDL
MODEL 7
REMARK VINA RESULT:     -11.1      2.776      4.839
REMARK  Name = 23635314
REMARK  9 active torsions:
REMARK  status: ('A' for Active; 'I' for Inactive)
REMARK    1  A    between atoms: C_2  and  C_8
REMARK    2  A    between atoms: C_3  and  C_23
REMARK    3  A    between atoms: C_7  and  O_13
REMARK    4  A    between atoms: O_13  and  C_14
REMARK    5  A    between atoms: C_14  and  C_15
REMARK    6  A    between atoms: C_15  and  N_17
REMARK    7  A    between atoms: C_23  and  C_26
REMARK    8  A    between atoms: N_25  and  C_28
REMARK    9  A    between atoms: C_28  and  C_29
REMARK                            x       y       z     vdW  Elec       q    Type
REMARK                         _______ _______ _______ _____ _____    ______ ____
ROOT
ATOM      1  N   UNL     1      32.838 -21.824 -19.116  0.00  0.00    -0.248 NA
ATOM      2  C   UNL     1      34.366 -20.403 -20.332  0.00  0.00    +0.019 C 
ATOM      3  C   UNL     1      33.914 -22.442 -18.581  0.00  0.00    +0.068 C 
ATOM      4  C   UNL     1      35.448 -21.061 -19.762  0.00  0.00    +0.003 C 
ATOM      5  C   UNL     1      33.092 -20.817 -19.981  0.00  0.00    +0.098 C 
ATOM      6  C   UNL     1      35.226 -22.103 -18.868  0.00  0.00    +0.015 C 
ENDROOT
BRANCH   2   8
ATOM      7  C   UNL     1      34.945 -17.226 -23.060  0.00  0.00    +0.138 C 
ATOM      8  C   UNL     1      34.564 -19.316 -21.266  0.00  0.00    +0.002 C 
ATOM      9  C   UNL     1      34.281 -18.376 -23.473  0.00  0.00    +0.037 C 
ATOM     10  C   UNL     1      35.421 -17.111 -21.758  0.00  0.00    +0.037 C 
ATOM     11  C   UNL     1      34.090 -19.423 -22.573  0.00  0.00    +0.003 C 
ATOM     12  C   UNL     1      35.229 -18.160 -20.859  0.00  0.00    +0.003 C 
BRANCH   7  13
ATOM     13  O   UNL     1      35.134 -16.196 -23.944  0.00  0.00    -0.478 OA
BRANCH  13  14
ATOM     14  C   UNL     1      34.058 -15.279 -24.099  0.00  0.00    +0.183 C 
BRANCH  14  15
ATOM     15  C   UNL     1      34.349 -14.041 -23.266  0.00  0.00    -0.029 C 
BRANCH  15  17
ATOM     16  O   UNL     1      31.993 -12.317 -20.250  0.00  0.00    -0.358 OA
ATOM     17  N   UNL     1      33.210 -13.715 -22.410  0.00  0.00    +0.393 N 
ATOM     18  C   UNL     1      33.489 -14.068 -21.012  0.00  0.00    -0.044 C 
ATOM     19  C   UNL     1      32.871 -12.289 -22.512  0.00  0.00    -0.044 C 
ATOM     20  C   UNL     1      32.291 -13.709 -20.138  0.00  0.00    +0.119 C 
ATOM     21  C   UNL     1      31.688 -11.971 -21.602  0.00  0.00    +0.119 C 
ATOM     22  H   UNL     1      32.411 -14.263 -22.731  0.00  0.00    -0.079 HD
ENDBRANCH  15  17
ENDBRANCH  14  15
ENDBRANCH  13  14
ENDBRANCH   7  13
ENDBRANCH   2   8
BRANCH   3  23
ATOM     23  C   UNL     1      33.639 -23.556 -17.625  0.00  0.00    +0.131 C 
BRANCH  23  26
ATOM     24  O   UNL     1      32.902 -22.927 -15.406  0.00  0.00    -0.275 OA
ATOM     25  N   UNL     1      35.178 -23.137 -15.814  0.00  0.00    -0.300 N 
ATOM     26  C   UNL     1      33.835 -23.174 -16.165  0.00  0.00    +0.229 C 
ATOM     27  H   UNL     1      35.851 -23.352 -16.499  0.00  0.00    +0.150 HD
BRANCH  25  28
ATOM     28  C   UNL     1      35.625 -22.796 -14.484  0.00  0.00    +0.116 C 
BRANCH  28  29
ATOM     29  C   UNL     1      36.574 -23.820 -13.932  0.00  0.00    -0.003 C 
ATOM     30  C   UNL     1      36.870 -24.956 -14.677  0.00  0.00    -0.003 C 
ATOM     31  C   UNL     1      37.148 -23.622 -12.681  0.00  0.00    -0.003 C 
ATOM     32  C   UNL     1      37.752 -25.907 -14.164  0.00  0.00    -0.000 C 
ATOM     33  C   UNL     1      38.030 -24.574 -12.168  0.00  0.00    -0.000 C 
ATOM     34  C   UNL     1      38.331 -25.717 -12.910  0.00  0.00    -0.000 C 
ENDBRANCH  28  29
ENDBRANCH  25  28
ENDBRANCH  23  26
ENDBRANCH   3  23
TORSDOF 9
ENDMDL
MODEL 8
REMARK VINA RESULT:     -10.9      2.189      4.096
REMARK  Name = 23635314
REMARK  9 active torsions:
REMARK  status: ('A' for Active; 'I' for Inactive)
REMARK    1  A    between atoms: C_2  and  C_8
REMARK    2  A    between atoms: C_3  and  C_23
REMARK    3  A    between atoms: C_7  and  O_13
REMARK    4  A    between atoms: O_13  and  C_14
REMARK    5  A    between atoms: C_14  and  C_15
REMARK    6  A    between atoms: C_15  and  N_17
REMARK    7  A    between atoms: C_23  and  C_26
REMARK    8  A    between atoms: N_25  and  C_28
REMARK    9  A    between atoms: C_28  and  C_29
REMARK                            x       y       z     vdW  Elec       q    Type
REMARK                         _______ _______ _______ _____ _____    ______ ____
ROOT
ATOM      1  N   UNL     1      35.864 -20.933 -19.554  0.00  0.00    -0.248 NA
ATOM      2  C   UNL     1      34.594 -19.667 -21.172  0.00  0.00    +0.019 C 
ATOM      3  C   UNL     1      34.694 -21.428 -19.095  0.00  0.00    +0.068 C 
ATOM      4  C   UNL     1      33.411 -20.197 -20.673  0.00  0.00    +0.003 C 
ATOM      5  C   UNL     1      35.784 -20.062 -20.586  0.00  0.00    +0.098 C 
ATOM      6  C   UNL     1      33.453 -21.095 -19.613  0.00  0.00    +0.015 C 
ENDROOT
BRANCH   2   8
ATOM      7  C   UNL     1      34.563 -16.927 -24.392  0.00  0.00    +0.138 C 
ATOM      8  C   UNL     1      34.583 -18.730 -22.274  0.00  0.00    +0.002 C 
ATOM      9  C   UNL     1      34.088 -18.220 -24.583  0.00  0.00    +0.037 C 
ATOM     10  C   UNL     1      35.049 -16.527 -23.151  0.00  0.00    +0.037 C 
ATOM     11  C   UNL     1      34.098 -19.124 -23.521  0.00  0.00    +0.003 C 
ATOM     12  C   UNL     1      35.058 -17.431 -22.090  0.00  0.00    +0.003 C 
BRANCH   7  13
ATOM     13  O   UNL     1      34.554 -16.039 -25.435  0.00  0.00    -0.478 OA
BRANCH  13  14
ATOM     14  C   UNL     1      33.295 -15.480 -25.790  0.00  0.00    +0.183 C 
BRANCH  14  15
ATOM     15  C   UNL     1      33.482 -14.000 -26.078  0.00  0.00    -0.029 C 
BRANCH  15  17
ATOM     16  O   UNL     1      33.085 -11.437 -22.778  0.00  0.00    -0.358 OA
ATOM     17  N   UNL     1      33.772 -13.266 -24.848  0.00  0.00    +0.393 N 
ATOM     18  C   UNL     1      33.738 -11.816 -25.084  0.00  0.00    -0.044 C 
ATOM     19  C   UNL     1      32.819 -13.626 -23.789  0.00  0.00    -0.044 C 
ATOM     20  C   UNL     1      34.031 -11.073 -23.784  0.00  0.00    +0.119 C 
ATOM     21  C   UNL     1      33.134 -12.841 -22.519  0.00  0.00    +0.119 C 
ATOM     22  H   UNL     1      34.710 -13.525 -24.544  0.00  0.00    -0.079 HD
ENDBRANCH  15  17
ENDBRANCH  14  15
ENDBRANCH  13  14
ENDBRANCH   7  13
ENDBRANCH   2   8
BRANCH   3  23
ATOM     23  C   UNL     1      34.777 -22.390 -17.956  0.00  0.00    +0.131 C 
BRANCH  23  26
ATOM     24  O   UNL     1      33.346 -24.336 -18.136  0.00  0.00    -0.275 OA
ATOM     25  N   UNL     1      32.549 -22.456 -17.029  0.00  0.00    -0.300 N 
ATOM     26  C   UNL     1      33.499 -23.186 -17.731  0.00  0.00    +0.229 C 
ATOM     27  H   UNL     1      32.771 -21.539 -16.749  0.00  0.00    +0.150 HD
BRANCH  25  28
ATOM     28  C   UNL     1      31.250 -22.990 -16.694  0.00  0.00    +0.116 C 
BRANCH  28  29
ATOM     29  C   UNL     1      31.254 -23.679 -15.360  0.00  0.00    -0.003 C 
ATOM     30  C   UNL     1      32.082 -23.211 -14.347  0.00  0.00    -0.003 C 
ATOM     31  C   UNL     1      30.429 -24.779 -15.152  0.00  0.00    -0.003 C 
ATOM     32  C   UNL     1      32.085 -23.851 -13.107  0.00  0.00    -0.000 C 
ATOM     33  C   UNL     1      30.433 -25.419 -13.913  0.00  0.00    -0.000 C 
ATOM     34  C   UNL     1      31.262 -24.955 -12.890  0.00  0.00    -0.000 C 
ENDBRANCH  28  29
ENDBRANCH  25  28
ENDBRANCH  23  26
ENDBRANCH   3  23
TORSDOF 9
ENDMDL
MODEL 9
REMARK VINA RESULT:     -10.8      2.887      4.798
REMARK  Name = 23635314
REMARK  9 active torsions:
REMARK  status: ('A' for Active; 'I' for Inactive)
REMARK    1  A    between atoms: C_2  and  C_8
REMARK    2  A    between atoms: C_3  and  C_23
REMARK    3  A    between atoms: C_7  and  O_13
REMARK    4  A    between atoms: O_13  and  C_14
REMARK    5  A    between atoms: C_14  and  C_15
REMARK    6  A    between atoms: C_15  and  N_17
REMARK    7  A    between atoms: C_23  and  C_26
REMARK    8  A    between atoms: N_25  and  C_28
REMARK    9  A    between atoms: C_28  and  C_29
REMARK                            x       y       z     vdW  Elec       q    Type
REMARK                         _______ _______ _______ _____ _____    ______ ____
ROOT
ATOM      1  N   UNL     1      35.258 -22.223 -18.836  0.00  0.00    -0.248 NA
ATOM      2  C   UNL     1      34.365 -20.494 -20.268  0.00  0.00    +0.019 C 
ATOM      3  C   UNL     1      34.004 -22.418 -18.371  0.00  0.00    +0.068 C 
ATOM      4  C   UNL     1      33.089 -20.723 -19.766  0.00  0.00    +0.003 C 
ATOM      5  C   UNL     1      35.406 -21.263 -19.776  0.00  0.00    +0.098 C 
ATOM      6  C   UNL     1      32.897 -21.702 -18.798  0.00  0.00    +0.015 C 
ENDROOT
BRANCH   2   8
ATOM      7  C   UNL     1      35.046 -17.538 -23.212  0.00  0.00    +0.138 C 
ATOM      8  C   UNL     1      34.597 -19.483 -21.276  0.00  0.00    +0.002 C 
ATOM      9  C   UNL     1      34.361 -18.700 -23.549  0.00  0.00    +0.037 C 
ATOM     10  C   UNL     1      35.510 -17.339 -21.916  0.00  0.00    +0.037 C 
ATOM     11  C   UNL     1      34.136 -19.675 -22.578  0.00  0.00    +0.003 C 
ATOM     12  C   UNL     1      35.284 -18.315 -20.945  0.00  0.00    +0.003 C 
BRANCH   7  13
ATOM     13  O   UNL     1      35.268 -16.580 -24.166  0.00  0.00    -0.478 OA
BRANCH  13  14
ATOM     14  C   UNL     1      34.121 -16.039 -24.810  0.00  0.00    +0.183 C 
BRANCH  14  15
ATOM     15  C   UNL     1      33.320 -15.244 -23.793  0.00  0.00    -0.029 C 
BRANCH  15  17
ATOM     16  O   UNL     1      34.194 -11.409 -25.258  0.00  0.00    -0.358 OA
ATOM     17  N   UNL     1      33.171 -13.856 -24.224  0.00  0.00    +0.393 N 
ATOM     18  C   UNL     1      33.999 -12.961 -23.404  0.00  0.00    -0.044 C 
ATOM     19  C   UNL     1      33.524 -13.709 -25.643  0.00  0.00    -0.044 C 
ATOM     20  C   UNL     1      33.835 -11.521 -23.880  0.00  0.00    +0.119 C 
ATOM     21  C   UNL     1      33.372 -12.251 -26.067  0.00  0.00    +0.119 C 
ATOM     22  H   UNL     1      32.192 -13.595 -24.103  0.00  0.00    -0.079 HD
ENDBRANCH  15  17
ENDBRANCH  14  15
ENDBRANCH  13  14
ENDBRANCH   7  13
ENDBRANCH   2   8
BRANCH   3  23
ATOM     23  C   UNL     1      33.834 -23.476 -17.332  0.00  0.00    +0.131 C 
BRANCH  23  26
ATOM     24  O   UNL     1      33.656 -22.832 -15.004  0.00  0.00    -0.275 OA
ATOM     25  N   UNL     1      35.765 -23.053 -15.948  0.00  0.00    -0.300 N 
ATOM     26  C   UNL     1      34.377 -23.087 -15.965  0.00  0.00    +0.229 C 
ATOM     27  H   UNL     1      36.253 -23.275 -16.775  0.00  0.00    +0.150 HD
BRANCH  25  28
ATOM     28  C   UNL     1      36.521 -22.706 -14.768  0.00  0.00    +0.116 C 
BRANCH  28  29
ATOM     29  C   UNL     1      36.884 -23.917 -13.958  0.00  0.00    -0.003 C 
ATOM     30  C   UNL     1      37.297 -23.765 -12.640  0.00  0.00    -0.003 C 
ATOM     31  C   UNL     1      36.803 -25.180 -14.536  0.00  0.00    -0.003 C 
ATOM     32  C   UNL     1      37.635 -24.890 -11.888  0.00  0.00    -0.000 C 
ATOM     33  C   UNL     1      37.140 -26.305 -13.783  0.00  0.00    -0.000 C 
ATOM     34  C   UNL     1      37.557 -26.160 -12.459  0.00  0.00    -0.000 C 
ENDBRANCH  28  29
ENDBRANCH  25  28
ENDBRANCH  23  26
ENDBRANCH   3  23
TORSDOF 9
ENDMDL
