MODEL 1
REMARK VINA RESULT:     -12.2      0.000      0.000
REMARK  Name = 24875320
REMARK  6 active torsions:
REMARK  status: ('A' for Active; 'I' for Inactive)
REMARK    1  A    between atoms: C_1  and  N_22
REMARK    2  A    between atoms: C_3  and  C_10
REMARK    3  A    between atoms: N_9  and  C_12
REMARK    4  A    between atoms: C_14  and  C_21
REMARK    5  A    between atoms: N_22  and  C_25
REMARK    6  A    between atoms: C_28  and  C_32
REMARK                            x       y       z     vdW  Elec       q    Type
REMARK                         _______ _______ _______ _____ _____    ______ ____
ROOT
ATOM      1  C   UNL     1      34.970 -16.623 -23.261  0.00  0.00    +0.044 C 
ATOM      2  C   UNL     1      34.246 -17.067 -24.367  0.00  0.00    -0.008 C 
ATOM      3  C   UNL     1      33.892 -14.466 -23.420  0.00  0.00    +0.055 C 
ATOM      4  C   UNL     1      34.794 -15.323 -22.788  0.00  0.00    +0.019 C 
ATOM      5  C   UNL     1      33.345 -16.211 -25.000  0.00  0.00    -0.003 C 
ATOM      6  C   UNL     1      33.168 -14.910 -24.527  0.00  0.00    +0.004 C 
ATOM      7  C   UNL     1      34.414 -18.455 -24.895  0.00  0.00    +0.032 C 
ENDROOT
BRANCH   3  10
ATOM      8  O   UNL     1      33.183 -12.939 -21.816  0.00  0.00    -0.270 OA
ATOM      9  N   UNL     1      34.135 -12.086 -23.784  0.00  0.00    -0.280 N 
ATOM     10  C   UNL     1      33.709 -13.111 -22.928  0.00  0.00    +0.250 C 
ATOM     11  H   UNL     1      34.536 -12.378 -24.635  0.00  0.00    +0.155 HD
BRANCH   9  12
ATOM     12  C   UNL     1      34.064 -10.685 -23.586  0.00  0.00    +0.050 C 
ATOM     13  C   UNL     1      32.960 -10.126 -22.940  0.00  0.00    +0.019 C 
ATOM     14  C   UNL     1      32.890  -8.747 -22.745  0.00  0.00    +0.073 C 
ATOM     15  C   UNL     1      35.097  -9.864 -24.037  0.00  0.00    +0.015 C 
ATOM     16  C   UNL     1      33.924  -7.926 -23.197  0.00  0.00    +0.004 C 
ATOM     17  C   UNL     1      35.027  -8.484 -23.842  0.00  0.00    +0.001 C 
BRANCH  14  21
ATOM     18  F   UNL     1      31.940  -6.896 -21.565  0.00  0.00    -0.166 F 
ATOM     19  F   UNL     1      30.614  -8.022 -22.860  0.00  0.00    -0.166 F 
ATOM     20  F   UNL     1      31.297  -8.891 -20.987  0.00  0.00    -0.166 F 
ATOM     21  C   UNL     1      31.711  -8.150 -22.056  0.00  0.00    +0.419 C 
ENDBRANCH  14  21
ENDBRANCH   9  12
ENDBRANCH   3  10
BRANCH   1  22
ATOM     22  N   UNL     1      35.886 -17.477 -22.607  0.00  0.00    -0.312 N 
ATOM     23  H   UNL     1      36.825 -17.318 -22.859  0.00  0.00    +0.152 HD
BRANCH  22  25
ATOM     24  N   UNL     1      36.707 -19.994 -20.033  0.00  0.00    -0.241 NA
ATOM     25  C   UNL     1      35.720 -18.511 -21.667  0.00  0.00    +0.068 C 
ATOM     26  C   UNL     1      34.468 -19.068 -21.428  0.00  0.00    +0.022 C 
ATOM     27  C   UNL     1      36.797 -19.005 -20.950  0.00  0.00    +0.113 C 
ATOM     28  C   UNL     1      34.335 -20.087 -20.492  0.00  0.00    +0.073 C 
ATOM     29  C   UNL     1      35.474 -20.512 -19.828  0.00  0.00    +0.103 C 
BRANCH  28  32
ATOM     30  O   UNL     1      32.009 -20.303 -20.796  0.00  0.00    -0.270 OA
ATOM     31  N   UNL     1      32.993 -21.736 -19.301  0.00  0.00    -0.325 N 
ATOM     32  C   UNL     1      33.042 -20.690 -20.220  0.00  0.00    +0.244 C 
ATOM     33  H   UNL     1      32.134 -22.168 -19.092  0.00  0.00    +0.145 HD
ATOM     34  H   UNL     1      33.819 -22.043 -18.860  0.00  0.00    +0.145 HD
ENDBRANCH  28  32
ENDBRANCH  22  25
ENDBRANCH   1  22
TORSDOF 6
ENDMDL
MODEL 2
REMARK VINA RESULT:     -11.9      6.978     10.630
REMARK  Name = 24875320
REMARK  6 active torsions:
REMARK  status: ('A' for Active; 'I' for Inactive)
REMARK    1  A    between atoms: C_1  and  N_22
REMARK    2  A    between atoms: C_3  and  C_10
REMARK    3  A    between atoms: N_9  and  C_12
REMARK    4  A    between atoms: C_14  and  C_21
REMARK    5  A    between atoms: N_22  and  C_25
REMARK    6  A    between atoms: C_28  and  C_32
REMARK                            x       y       z     vdW  Elec       q    Type
REMARK                         _______ _______ _______ _____ _____    ______ ____
ROOT
ATOM      1  C   UNL     1      34.670 -23.085 -15.097  0.00  0.00    +0.044 C 
ATOM      2  C   UNL     1      33.365 -23.519 -15.332  0.00  0.00    -0.008 C 
ATOM      3  C   UNL     1      34.847 -22.375 -17.400  0.00  0.00    +0.055 C 
ATOM      4  C   UNL     1      35.411 -22.513 -16.132  0.00  0.00    +0.019 C 
ATOM      5  C   UNL     1      32.801 -23.381 -16.600  0.00  0.00    -0.003 C 
ATOM      6  C   UNL     1      33.542 -22.809 -17.635  0.00  0.00    +0.004 C 
ATOM      7  C   UNL     1      32.548 -24.134 -14.242  0.00  0.00    +0.032 C 
ENDROOT
BRANCH   3  10
ATOM      8  O   UNL     1      36.810 -22.104 -18.619  0.00  0.00    -0.270 OA
ATOM      9  N   UNL     1      34.940 -20.848 -19.276  0.00  0.00    -0.280 N 
ATOM     10  C   UNL     1      35.620 -21.780 -18.478  0.00  0.00    +0.250 C 
ATOM     11  H   UNL     1      33.996 -20.693 -19.044  0.00  0.00    +0.155 HD
BRANCH   9  12
ATOM     12  C   UNL     1      35.435 -20.098 -20.371  0.00  0.00    +0.050 C 
ATOM     13  C   UNL     1      34.682 -19.989 -21.541  0.00  0.00    +0.019 C 
ATOM     14  C   UNL     1      35.169 -19.251 -22.619  0.00  0.00    +0.073 C 
ATOM     15  C   UNL     1      36.677 -19.469 -20.281  0.00  0.00    +0.015 C 
ATOM     16  C   UNL     1      36.412 -18.621 -22.528  0.00  0.00    +0.004 C 
ATOM     17  C   UNL     1      37.164 -18.731 -21.359  0.00  0.00    +0.001 C 
BRANCH  14  21
ATOM     18  F   UNL     1      34.606 -17.988 -24.571  0.00  0.00    -0.166 F 
ATOM     19  F   UNL     1      34.584 -20.149 -24.756  0.00  0.00    -0.166 F 
ATOM     20  F   UNL     1      33.021 -19.140 -23.629  0.00  0.00    -0.166 F 
ATOM     21  C   UNL     1      34.365 -19.134 -23.868  0.00  0.00    +0.419 C 
ENDBRANCH  14  21
ENDBRANCH   9  12
ENDBRANCH   3  10
BRANCH   1  22
ATOM     22  N   UNL     1      35.256 -23.216 -13.820  0.00  0.00    -0.312 N 
ATOM     23  H   UNL     1      35.005 -22.499 -13.193  0.00  0.00    +0.152 HD
BRANCH  22  25
ATOM     24  N   UNL     1      36.599 -25.769 -11.515  0.00  0.00    -0.241 NA
ATOM     25  C   UNL     1      36.129 -24.171 -13.266  0.00  0.00    +0.068 C 
ATOM     26  C   UNL     1      37.343 -24.471 -13.875  0.00  0.00    +0.022 C 
ATOM     27  C   UNL     1      35.807 -24.842 -12.098  0.00  0.00    +0.113 C 
ATOM     28  C   UNL     1      38.184 -25.421 -13.306  0.00  0.00    +0.073 C 
ATOM     29  C   UNL     1      37.770 -26.035 -12.135  0.00  0.00    +0.103 C 
BRANCH  28  32
ATOM     30  O   UNL     1      40.259 -26.534 -13.368  0.00  0.00    -0.270 OA
ATOM     31  N   UNL     1      39.752 -25.192 -15.157  0.00  0.00    -0.325 N 
ATOM     32  C   UNL     1      39.458 -25.756 -13.917  0.00  0.00    +0.244 C 
ATOM     33  H   UNL     1      40.606 -25.397 -15.601  0.00  0.00    +0.145 HD
ATOM     34  H   UNL     1      39.105 -24.588 -15.589  0.00  0.00    +0.145 HD
ENDBRANCH  28  32
ENDBRANCH  22  25
ENDBRANCH   1  22
TORSDOF 6
ENDMDL
MODEL 3
REMARK VINA RESULT:     -11.9      1.419      2.031
REMARK  Name = 24875320
REMARK  6 active torsions:
REMARK  status: ('A' for Active; 'I' for Inactive)
REMARK    1  A    between atoms: C_1  and  N_22
REMARK    2  A    between atoms: C_3  and  C_10
REMARK    3  A    between atoms: N_9  and  C_12
REMARK    4  A    between atoms: C_14  and  C_21
REMARK    5  A    between atoms: N_22  and  C_25
REMARK    6  A    between atoms: C_28  and  C_32
REMARK                            x       y       z     vdW  Elec       q    Type
REMARK                         _______ _______ _______ _____ _____    ______ ____
ROOT
ATOM      1  C   UNL     1      34.982 -16.885 -23.208  0.00  0.00    +0.044 C 
ATOM      2  C   UNL     1      34.289 -17.405 -24.301  0.00  0.00    -0.008 C 
ATOM      3  C   UNL     1      33.835 -14.776 -23.485  0.00  0.00    +0.055 C 
ATOM      4  C   UNL     1      34.755 -15.570 -22.800  0.00  0.00    +0.019 C 
ATOM      5  C   UNL     1      33.369 -16.612 -24.986  0.00  0.00    -0.003 C 
ATOM      6  C   UNL     1      33.143 -15.297 -24.579  0.00  0.00    +0.004 C 
ATOM      7  C   UNL     1      34.511 -18.811 -24.758  0.00  0.00    +0.032 C 
ENDROOT
BRANCH   3  10
ATOM      8  O   UNL     1      34.223 -12.487 -23.617  0.00  0.00    -0.270 OA
ATOM      9  N   UNL     1      32.680 -13.238 -22.017  0.00  0.00    -0.280 N 
ATOM     10  C   UNL     1      33.600 -13.406 -23.061  0.00  0.00    +0.250 C 
ATOM     11  H   UNL     1      32.264 -14.063 -21.677  0.00  0.00    +0.155 HD
BRANCH   9  12
ATOM     12  C   UNL     1      32.272 -12.037 -21.386  0.00  0.00    +0.050 C 
ATOM     13  C   UNL     1      32.213 -10.849 -22.116  0.00  0.00    +0.019 C 
ATOM     14  C   UNL     1      31.811  -9.667 -21.495  0.00  0.00    +0.073 C 
ATOM     15  C   UNL     1      31.929 -12.041 -20.034  0.00  0.00    +0.015 C 
ATOM     16  C   UNL     1      31.468  -9.672 -20.142  0.00  0.00    +0.004 C 
ATOM     17  C   UNL     1      31.528 -10.859 -19.413  0.00  0.00    +0.001 C 
BRANCH  14  21
ATOM     18  F   UNL     1      32.625  -8.352 -23.320  0.00  0.00    -0.166 F 
ATOM     19  F   UNL     1      30.522  -8.158 -22.828  0.00  0.00    -0.166 F 
ATOM     20  F   UNL     1      32.027  -7.300 -21.514  0.00  0.00    -0.166 F 
ATOM     21  C   UNL     1      31.747  -8.398 -22.275  0.00  0.00    +0.419 C 
ENDBRANCH  14  21
ENDBRANCH   9  12
ENDBRANCH   3  10
BRANCH   1  22
ATOM     22  N   UNL     1      35.915 -17.675 -22.502  0.00  0.00    -0.312 N 
ATOM     23  H   UNL     1      36.853 -17.472 -22.723  0.00  0.00    +0.152 HD
BRANCH  22  25
ATOM     24  N   UNL     1      36.783 -20.137 -19.890  0.00  0.00    -0.241 NA
ATOM     25  C   UNL     1      35.768 -18.695 -21.543  0.00  0.00    +0.068 C 
ATOM     26  C   UNL     1      34.526 -19.266 -21.289  0.00  0.00    +0.022 C 
ATOM     27  C   UNL     1      36.856 -19.162 -20.823  0.00  0.00    +0.113 C 
ATOM     28  C   UNL     1      34.411 -20.271 -20.335  0.00  0.00    +0.073 C 
ATOM     29  C   UNL     1      35.559 -20.668 -19.670  0.00  0.00    +0.103 C 
BRANCH  28  32
ATOM     30  O   UNL     1      32.080 -20.494 -20.592  0.00  0.00    -0.270 OA
ATOM     31  N   UNL     1      33.106 -21.951 -19.148  0.00  0.00    -0.325 N 
ATOM     32  C   UNL     1      33.128 -20.887 -20.047  0.00  0.00    +0.244 C 
ATOM     33  H   UNL     1      32.253 -22.393 -18.929  0.00  0.00    +0.145 HD
ATOM     34  H   UNL     1      33.942 -22.262 -18.732  0.00  0.00    +0.145 HD
ENDBRANCH  28  32
ENDBRANCH  22  25
ENDBRANCH   1  22
TORSDOF 6
ENDMDL
MODEL 4
REMARK VINA RESULT:     -11.7      4.745      8.601
REMARK  Name = 24875320
REMARK  6 active torsions:
REMARK  status: ('A' for Active; 'I' for Inactive)
REMARK    1  A    between atoms: C_1  and  N_22
REMARK    2  A    between atoms: C_3  and  C_10
REMARK    3  A    between atoms: N_9  and  C_12
REMARK    4  A    between atoms: C_14  and  C_21
REMARK    5  A    between atoms: N_22  and  C_25
REMARK    6  A    between atoms: C_28  and  C_32
REMARK                            x       y       z     vdW  Elec       q    Type
REMARK                         _______ _______ _______ _____ _____    ______ ____
ROOT
ATOM      1  C   UNL     1      34.711 -22.908 -16.821  0.00  0.00    +0.044 C 
ATOM      2  C   UNL     1      36.058 -22.726 -16.509  0.00  0.00    -0.008 C 
ATOM      3  C   UNL     1      34.959 -21.451 -18.733  0.00  0.00    +0.055 C 
ATOM      4  C   UNL     1      34.161 -22.269 -17.933  0.00  0.00    +0.019 C 
ATOM      5  C   UNL     1      36.856 -21.909 -17.308  0.00  0.00    -0.003 C 
ATOM      6  C   UNL     1      36.306 -21.271 -18.420  0.00  0.00    +0.004 C 
ATOM      7  C   UNL     1      36.674 -23.398 -15.324  0.00  0.00    +0.032 C 
ENDROOT
BRANCH   3  10
ATOM      8  O   UNL     1      33.219 -21.052 -20.224  0.00  0.00    -0.270 OA
ATOM      9  N   UNL     1      35.231 -19.893 -20.565  0.00  0.00    -0.280 N 
ATOM     10  C   UNL     1      34.386 -20.786 -19.892  0.00  0.00    +0.250 C 
ATOM     11  H   UNL     1      36.131 -19.784 -20.181  0.00  0.00    +0.155 HD
BRANCH   9  12
ATOM     12  C   UNL     1      34.959 -19.127 -21.725  0.00  0.00    +0.050 C 
ATOM     13  C   UNL     1      34.902 -17.735 -21.646  0.00  0.00    +0.019 C 
ATOM     14  C   UNL     1      34.635 -16.981 -22.788  0.00  0.00    +0.073 C 
ATOM     15  C   UNL     1      34.749 -19.764 -22.948  0.00  0.00    +0.015 C 
ATOM     16  C   UNL     1      34.425 -17.619 -24.011  0.00  0.00    +0.004 C 
ATOM     17  C   UNL     1      34.482 -19.010 -24.090  0.00  0.00    +0.001 C 
BRANCH  14  21
ATOM     18  F   UNL     1      35.460 -14.861 -23.527  0.00  0.00    -0.166 F 
ATOM     19  F   UNL     1      33.352 -14.978 -23.032  0.00  0.00    -0.166 F 
ATOM     20  F   UNL     1      34.843 -15.028 -21.449  0.00  0.00    -0.166 F 
ATOM     21  C   UNL     1      34.573 -15.494 -22.704  0.00  0.00    +0.419 C 
ENDBRANCH  14  21
ENDBRANCH   9  12
ENDBRANCH   3  10
BRANCH   1  22
ATOM     22  N   UNL     1      33.889 -23.733 -16.022  0.00  0.00    -0.312 N 
ATOM     23  H   UNL     1      34.247 -24.641 -15.892  0.00  0.00    +0.152 HD
BRANCH  22  25
ATOM     24  N   UNL     1      31.442 -23.147 -13.320  0.00  0.00    -0.241 NA
ATOM     25  C   UNL     1      32.658 -23.511 -15.377  0.00  0.00    +0.068 C 
ATOM     26  C   UNL     1      31.473 -23.434 -16.100  0.00  0.00    +0.022 C 
ATOM     27  C   UNL     1      32.589 -23.362 -14.001  0.00  0.00    +0.113 C 
ATOM     28  C   UNL     1      30.272 -23.213 -15.435  0.00  0.00    +0.073 C 
ATOM     29  C   UNL     1      30.309 -23.079 -14.056  0.00  0.00    +0.103 C 
BRANCH  28  32
ATOM     30  O   UNL     1      28.619 -22.054 -16.648  0.00  0.00    -0.270 OA
ATOM     31  N   UNL     1      28.276 -24.297 -16.315  0.00  0.00    -0.325 N 
ATOM     32  C   UNL     1      29.018 -23.128 -16.161  0.00  0.00    +0.244 C 
ATOM     33  H   UNL     1      27.420 -24.277 -16.802  0.00  0.00    +0.145 HD
ATOM     34  H   UNL     1      28.607 -25.144 -15.938  0.00  0.00    +0.145 HD
ENDBRANCH  28  32
ENDBRANCH  22  25
ENDBRANCH   1  22
TORSDOF 6
ENDMDL
MODEL 5
REMARK VINA RESULT:     -11.5      7.319     10.982
REMARK  Name = 24875320
REMARK  6 active torsions:
REMARK  status: ('A' for Active; 'I' for Inactive)
REMARK    1  A    between atoms: C_1  and  N_22
REMARK    2  A    between atoms: C_3  and  C_10
REMARK    3  A    between atoms: N_9  and  C_12
REMARK    4  A    between atoms: C_14  and  C_21
REMARK    5  A    between atoms: N_22  and  C_25
REMARK    6  A    between atoms: C_28  and  C_32
REMARK                            x       y       z     vdW  Elec       q    Type
REMARK                         _______ _______ _______ _____ _____    ______ ____
ROOT
ATOM      1  C   UNL     1      35.579 -24.323 -14.473  0.00  0.00    +0.044 C 
ATOM      2  C   UNL     1      36.864 -24.638 -14.031  0.00  0.00    -0.008 C 
ATOM      3  C   UNL     1      36.512 -22.780 -16.082  0.00  0.00    +0.055 C 
ATOM      4  C   UNL     1      35.403 -23.393 -15.499  0.00  0.00    +0.019 C 
ATOM      5  C   UNL     1      37.972 -24.025 -14.614  0.00  0.00    -0.003 C 
ATOM      6  C   UNL     1      37.797 -23.095 -15.639  0.00  0.00    +0.004 C 
ATOM      7  C   UNL     1      37.082 -25.631 -12.936  0.00  0.00    +0.032 C 
ENDROOT
BRANCH   3  10
ATOM      8  O   UNL     1      37.116 -20.855 -17.240  0.00  0.00    -0.270 OA
ATOM      9  N   UNL     1      35.233 -22.033 -17.996  0.00  0.00    -0.280 N 
ATOM     10  C   UNL     1      36.328 -21.810 -17.150  0.00  0.00    +0.250 C 
ATOM     11  H   UNL     1      34.697 -22.835 -17.802  0.00  0.00    +0.155 HD
BRANCH   9  12
ATOM     12  C   UNL     1      34.796 -21.253 -19.096  0.00  0.00    +0.050 C 
ATOM     13  C   UNL     1      35.715 -20.505 -19.832  0.00  0.00    +0.019 C 
ATOM     14  C   UNL     1      35.284 -19.738 -20.913  0.00  0.00    +0.073 C 
ATOM     15  C   UNL     1      33.445 -21.232 -19.442  0.00  0.00    +0.015 C 
ATOM     16  C   UNL     1      33.932 -19.717 -21.259  0.00  0.00    +0.004 C 
ATOM     17  C   UNL     1      33.014 -20.465 -20.523  0.00  0.00    +0.001 C 
BRANCH  14  21
ATOM     18  F   UNL     1      37.560 -19.105 -21.294  0.00  0.00    -0.166 F 
ATOM     19  F   UNL     1      36.270 -19.237 -23.033  0.00  0.00    -0.166 F 
ATOM     20  F   UNL     1      36.030 -17.596 -21.626  0.00  0.00    -0.166 F 
ATOM     21  C   UNL     1      36.267 -18.938 -21.700  0.00  0.00    +0.419 C 
ENDBRANCH  14  21
ENDBRANCH   9  12
ENDBRANCH   3  10
BRANCH   1  22
ATOM     22  N   UNL     1      34.446 -24.935 -13.895  0.00  0.00    -0.312 N 
ATOM     23  H   UNL     1      34.653 -25.753 -13.387  0.00  0.00    +0.152 HD
BRANCH  22  25
ATOM     24  N   UNL     1      30.936 -24.650 -12.782  0.00  0.00    -0.241 NA
ATOM     25  C   UNL     1      33.077 -24.605 -13.903  0.00  0.00    +0.068 C 
ATOM     26  C   UNL     1      32.508 -23.935 -14.980  0.00  0.00    +0.022 C 
ATOM     27  C   UNL     1      32.256 -24.937 -12.838  0.00  0.00    +0.113 C 
ATOM     28  C   UNL     1      31.153 -23.621 -14.959  0.00  0.00    +0.073 C 
ATOM     29  C   UNL     1      30.417 -23.998 -13.847  0.00  0.00    +0.103 C 
BRANCH  28  32
ATOM     30  O   UNL     1      31.202 -22.449 -17.001  0.00  0.00    -0.270 OA
ATOM     31  N   UNL     1      29.140 -22.814 -16.068  0.00  0.00    -0.325 N 
ATOM     32  C   UNL     1      30.529 -22.923 -16.068  0.00  0.00    +0.244 C 
ATOM     33  H   UNL     1      28.682 -22.347 -16.804  0.00  0.00    +0.145 HD
ATOM     34  H   UNL     1      28.615 -23.205 -15.332  0.00  0.00    +0.145 HD
ENDBRANCH  28  32
ENDBRANCH  22  25
ENDBRANCH   1  22
TORSDOF 6
ENDMDL
MODEL 6
REMARK VINA RESULT:     -11.5      4.869      9.722
REMARK  Name = 24875320
REMARK  6 active torsions:
REMARK  status: ('A' for Active; 'I' for Inactive)
REMARK    1  A    between atoms: C_1  and  N_22
REMARK    2  A    between atoms: C_3  and  C_10
REMARK    3  A    between atoms: N_9  and  C_12
REMARK    4  A    between atoms: C_14  and  C_21
REMARK    5  A    between atoms: N_22  and  C_25
REMARK    6  A    between atoms: C_28  and  C_32
REMARK                            x       y       z     vdW  Elec       q    Type
REMARK                         _______ _______ _______ _____ _____    ______ ____
ROOT
ATOM      1  C   UNL     1      34.023 -14.881 -23.864  0.00  0.00    +0.044 C 
ATOM      2  C   UNL     1      33.435 -14.950 -25.127  0.00  0.00    -0.008 C 
ATOM      3  C   UNL     1      34.244 -17.287 -23.837  0.00  0.00    +0.055 C 
ATOM      4  C   UNL     1      34.427 -16.050 -23.219  0.00  0.00    +0.019 C 
ATOM      5  C   UNL     1      33.251 -16.186 -25.745  0.00  0.00    -0.003 C 
ATOM      6  C   UNL     1      33.655 -17.355 -25.100  0.00  0.00    +0.004 C 
ATOM      7  C   UNL     1      32.993 -13.714 -25.841  0.00  0.00    +0.032 C 
ENDROOT
BRANCH   3  10
ATOM      8  O   UNL     1      34.703 -19.567 -23.807  0.00  0.00    -0.270 OA
ATOM      9  N   UNL     1      34.978 -18.376 -21.804  0.00  0.00    -0.280 N 
ATOM     10  C   UNL     1      34.664 -18.505 -23.164  0.00  0.00    +0.250 C 
ATOM     11  H   UNL     1      34.902 -17.468 -21.431  0.00  0.00    +0.155 HD
BRANCH   9  12
ATOM     12  C   UNL     1      35.390 -19.381 -20.895  0.00  0.00    +0.050 C 
ATOM     13  C   UNL     1      34.444 -20.221 -20.306  0.00  0.00    +0.019 C 
ATOM     14  C   UNL     1      34.849 -21.210 -19.411  0.00  0.00    +0.073 C 
ATOM     15  C   UNL     1      36.742 -19.532 -20.587  0.00  0.00    +0.015 C 
ATOM     16  C   UNL     1      36.202 -21.360 -19.103  0.00  0.00    +0.004 C 
ATOM     17  C   UNL     1      37.148 -20.521 -19.692  0.00  0.00    +0.001 C 
BRANCH  14  21
ATOM     18  F   UNL     1      34.092 -22.382 -17.468  0.00  0.00    -0.166 F 
ATOM     19  F   UNL     1      32.570 -21.599 -18.800  0.00  0.00    -0.166 F 
ATOM     20  F   UNL     1      33.756 -23.321 -19.400  0.00  0.00    -0.166 F 
ATOM     21  C   UNL     1      33.839 -22.107 -18.781  0.00  0.00    +0.419 C 
ENDBRANCH  14  21
ENDBRANCH   9  12
ENDBRANCH   3  10
BRANCH   1  22
ATOM     22  N   UNL     1      34.218 -13.637 -23.224  0.00  0.00    -0.312 N 
ATOM     23  H   UNL     1      35.149 -13.317 -23.256  0.00  0.00    +0.152 HD
BRANCH  22  25
ATOM     24  N   UNL     1      31.708 -12.426 -20.802  0.00  0.00    -0.241 NA
ATOM     25  C   UNL     1      33.342 -12.766 -22.550  0.00  0.00    +0.068 C 
ATOM     26  C   UNL     1      33.228 -11.432 -22.927  0.00  0.00    +0.022 C 
ATOM     27  C   UNL     1      32.567 -13.209 -21.491  0.00  0.00    +0.113 C 
ATOM     28  C   UNL     1      32.356 -10.594 -22.241  0.00  0.00    +0.073 C 
ATOM     29  C   UNL     1      31.624 -11.135 -21.196  0.00  0.00    +0.103 C 
BRANCH  28  32
ATOM     30  O   UNL     1      31.123  -8.605 -22.510  0.00  0.00    -0.270 OA
ATOM     31  N   UNL     1      33.347  -8.527 -23.066  0.00  0.00    -0.325 N 
ATOM     32  C   UNL     1      32.214  -9.197 -22.610  0.00  0.00    +0.244 C 
ATOM     33  H   UNL     1      33.288  -7.579 -23.325  0.00  0.00    +0.145 HD
ATOM     34  H   UNL     1      34.207  -9.001 -23.129  0.00  0.00    +0.145 HD
ENDBRANCH  28  32
ENDBRANCH  22  25
ENDBRANCH   1  22
TORSDOF 6
ENDMDL
MODEL 7
REMARK VINA RESULT:     -11.3      5.268      9.838
REMARK  Name = 24875320
REMARK  6 active torsions:
REMARK  status: ('A' for Active; 'I' for Inactive)
REMARK    1  A    between atoms: C_1  and  N_22
REMARK    2  A    between atoms: C_3  and  C_10
REMARK    3  A    between atoms: N_9  and  C_12
REMARK    4  A    between atoms: C_14  and  C_21
REMARK    5  A    between atoms: N_22  and  C_25
REMARK    6  A    between atoms: C_28  and  C_32
REMARK                            x       y       z     vdW  Elec       q    Type
REMARK                         _______ _______ _______ _____ _____    ______ ____
ROOT
ATOM      1  C   UNL     1      34.559 -16.190 -23.802  0.00  0.00    +0.044 C 
ATOM      2  C   UNL     1      33.792 -16.869 -24.748  0.00  0.00    -0.008 C 
ATOM      3  C   UNL     1      34.969 -18.269 -22.642  0.00  0.00    +0.055 C 
ATOM      4  C   UNL     1      35.147 -16.890 -22.749  0.00  0.00    +0.019 C 
ATOM      5  C   UNL     1      33.613 -18.248 -24.641  0.00  0.00    -0.003 C 
ATOM      6  C   UNL     1      34.202 -18.949 -23.588  0.00  0.00    +0.004 C 
ATOM      7  C   UNL     1      33.150 -16.145 -25.887  0.00  0.00    +0.032 C 
ENDROOT
BRANCH   3  10
ATOM      8  O   UNL     1      36.788 -18.827 -21.304  0.00  0.00    -0.270 OA
ATOM      9  N   UNL     1      34.738 -19.872 -20.843  0.00  0.00    -0.280 N 
ATOM     10  C   UNL     1      35.582 -18.998 -21.543  0.00  0.00    +0.250 C 
ATOM     11  H   UNL     1      33.803 -19.900 -21.148  0.00  0.00    +0.155 HD
BRANCH   9  12
ATOM     12  C   UNL     1      35.056 -20.721 -19.754  0.00  0.00    +0.050 C 
ATOM     13  C   UNL     1      34.045 -21.425 -19.099  0.00  0.00    +0.019 C 
ATOM     14  C   UNL     1      34.359 -22.261 -18.028  0.00  0.00    +0.073 C 
ATOM     15  C   UNL     1      36.381 -20.854 -19.338  0.00  0.00    +0.015 C 
ATOM     16  C   UNL     1      35.684 -22.393 -17.611  0.00  0.00    +0.004 C 
ATOM     17  C   UNL     1      36.694 -21.690 -18.266  0.00  0.00    +0.001 C 
BRANCH  14  21
ATOM     18  F   UNL     1      33.125 -24.294 -17.772  0.00  0.00    -0.166 F 
ATOM     19  F   UNL     1      33.477 -23.125 -15.980  0.00  0.00    -0.166 F 
ATOM     20  F   UNL     1      32.054 -22.427 -17.468  0.00  0.00    -0.166 F 
ATOM     21  C   UNL     1      33.279 -23.013 -17.327  0.00  0.00    +0.419 C 
ENDBRANCH  14  21
ENDBRANCH   9  12
ENDBRANCH   3  10
BRANCH   1  22
ATOM     22  N   UNL     1      34.750 -14.794 -23.895  0.00  0.00    -0.312 N 
ATOM     23  H   UNL     1      35.521 -14.536 -24.451  0.00  0.00    +0.152 HD
BRANCH  22  25
ATOM     24  N   UNL     1      33.373 -11.387 -23.531  0.00  0.00    -0.241 NA
ATOM     25  C   UNL     1      34.055 -13.698 -23.348  0.00  0.00    +0.068 C 
ATOM     26  C   UNL     1      33.381 -13.810 -22.137  0.00  0.00    +0.022 C 
ATOM     27  C   UNL     1      34.021 -12.477 -24.000  0.00  0.00    +0.113 C 
ATOM     28  C   UNL     1      32.702 -12.711 -21.623  0.00  0.00    +0.073 C 
ATOM     29  C   UNL     1      32.728 -11.533 -22.351  0.00  0.00    +0.103 C 
BRANCH  28  32
ATOM     30  O   UNL     1      31.698 -13.892 -19.849  0.00  0.00    -0.270 OA
ATOM     31  N   UNL     1      31.652 -11.602 -19.724  0.00  0.00    -0.325 N 
ATOM     32  C   UNL     1      31.989 -12.795 -20.361  0.00  0.00    +0.244 C 
ATOM     33  H   UNL     1      31.169 -11.621 -18.867  0.00  0.00    +0.145 HD
ATOM     34  H   UNL     1      31.899 -10.740 -20.131  0.00  0.00    +0.145 HD
ENDBRANCH  28  32
ENDBRANCH  22  25
ENDBRANCH   1  22
TORSDOF 6
ENDMDL
MODEL 8
REMARK VINA RESULT:     -11.2      1.941      2.871
REMARK  Name = 24875320
REMARK  6 active torsions:
REMARK  status: ('A' for Active; 'I' for Inactive)
REMARK    1  A    between atoms: C_1  and  N_22
REMARK    2  A    between atoms: C_3  and  C_10
REMARK    3  A    between atoms: N_9  and  C_12
REMARK    4  A    between atoms: C_14  and  C_21
REMARK    5  A    between atoms: N_22  and  C_25
REMARK    6  A    between atoms: C_28  and  C_32
REMARK                            x       y       z     vdW  Elec       q    Type
REMARK                         _______ _______ _______ _____ _____    ______ ____
ROOT
ATOM      1  C   UNL     1      35.007 -18.434 -22.467  0.00  0.00    +0.044 C 
ATOM      2  C   UNL     1      34.714 -18.720 -23.800  0.00  0.00    -0.008 C 
ATOM      3  C   UNL     1      34.445 -16.114 -22.842  0.00  0.00    +0.055 C 
ATOM      4  C   UNL     1      34.873 -17.131 -21.988  0.00  0.00    +0.019 C 
ATOM      5  C   UNL     1      34.286 -17.704 -24.654  0.00  0.00    -0.003 C 
ATOM      6  C   UNL     1      34.152 -16.401 -24.176  0.00  0.00    +0.004 C 
ATOM      7  C   UNL     1      34.848 -20.108 -24.340  0.00  0.00    +0.032 C 
ENDROOT
BRANCH   3  10
ATOM      8  O   UNL     1      34.802 -14.463 -21.244  0.00  0.00    -0.270 OA
ATOM      9  N   UNL     1      33.583 -13.875 -23.160  0.00  0.00    -0.280 N 
ATOM     10  C   UNL     1      34.305 -14.756 -22.343  0.00  0.00    +0.250 C 
ATOM     11  H   UNL     1      33.250 -14.252 -24.007  0.00  0.00    +0.155 HD
BRANCH   9  12
ATOM     12  C   UNL     1      33.269 -12.513 -22.927  0.00  0.00    +0.050 C 
ATOM     13  C   UNL     1      32.462 -12.158 -21.846  0.00  0.00    +0.019 C 
ATOM     14  C   UNL     1      32.153 -10.817 -21.617  0.00  0.00    +0.073 C 
ATOM     15  C   UNL     1      33.766 -11.527 -23.779  0.00  0.00    +0.015 C 
ATOM     16  C   UNL     1      32.650  -9.831 -22.470  0.00  0.00    +0.004 C 
ATOM     17  C   UNL     1      33.457 -10.187 -23.550  0.00  0.00    +0.001 C 
BRANCH  14  21
ATOM     18  F   UNL     1      29.994 -10.847 -20.586  0.00  0.00    -0.166 F 
ATOM     19  F   UNL     1      31.714 -10.954 -19.270  0.00  0.00    -0.166 F 
ATOM     20  F   UNL     1      31.231  -9.086 -20.274  0.00  0.00    -0.166 F 
ATOM     21  C   UNL     1      31.291 -10.437 -20.462  0.00  0.00    +0.419 C 
ENDBRANCH  14  21
ENDBRANCH   9  12
ENDBRANCH   3  10
BRANCH   1  22
ATOM     22  N   UNL     1      35.440 -19.451 -21.588  0.00  0.00    -0.312 N 
ATOM     23  H   UNL     1      36.399 -19.660 -21.666  0.00  0.00    +0.152 HD
BRANCH  22  25
ATOM     24  N   UNL     1      32.687 -21.082 -19.746  0.00  0.00    -0.241 NA
ATOM     25  C   UNL     1      34.770 -20.224 -20.621  0.00  0.00    +0.068 C 
ATOM     26  C   UNL     1      35.471 -20.878 -19.615  0.00  0.00    +0.022 C 
ATOM     27  C   UNL     1      33.391 -20.356 -20.643  0.00  0.00    +0.113 C 
ATOM     28  C   UNL     1      34.782 -21.636 -18.674  0.00  0.00    +0.073 C 
ATOM     29  C   UNL     1      33.402 -21.705 -18.782  0.00  0.00    +0.103 C 
BRANCH  28  32
ATOM     30  O   UNL     1      34.928 -23.211 -16.929  0.00  0.00    -0.270 OA
ATOM     31  N   UNL     1      36.818 -21.996 -17.386  0.00  0.00    -0.325 N 
ATOM     32  C   UNL     1      35.485 -22.331 -17.611  0.00  0.00    +0.244 C 
ATOM     33  H   UNL     1      37.326 -22.447 -16.674  0.00  0.00    +0.145 HD
ATOM     34  H   UNL     1      37.253 -21.308 -17.940  0.00  0.00    +0.145 HD
ENDBRANCH  28  32
ENDBRANCH  22  25
ENDBRANCH   1  22
TORSDOF 6
ENDMDL
MODEL 9
REMARK VINA RESULT:     -11.2      1.497      2.008
REMARK  Name = 24875320
REMARK  6 active torsions:
REMARK  status: ('A' for Active; 'I' for Inactive)
REMARK    1  A    between atoms: C_1  and  N_22
REMARK    2  A    between atoms: C_3  and  C_10
REMARK    3  A    between atoms: N_9  and  C_12
REMARK    4  A    between atoms: C_14  and  C_21
REMARK    5  A    between atoms: N_22  and  C_25
REMARK    6  A    between atoms: C_28  and  C_32
REMARK                            x       y       z     vdW  Elec       q    Type
REMARK                         _______ _______ _______ _____ _____    ______ ____
ROOT
ATOM      1  C   UNL     1      35.044 -16.805 -23.039  0.00  0.00    +0.044 C 
ATOM      2  C   UNL     1      34.350 -17.126 -24.204  0.00  0.00    -0.008 C 
ATOM      3  C   UNL     1      33.953 -14.649 -22.983  0.00  0.00    +0.055 C 
ATOM      4  C   UNL     1      34.846 -15.566 -22.429  0.00  0.00    +0.019 C 
ATOM      5  C   UNL     1      33.456 -16.210 -24.760  0.00  0.00    -0.003 C 
ATOM      6  C   UNL     1      33.258 -14.972 -24.150  0.00  0.00    +0.004 C 
ATOM      7  C   UNL     1      34.541 -18.446 -24.879  0.00  0.00    +0.032 C 
ENDROOT
BRANCH   3  10
ATOM      8  O   UNL     1      33.827 -13.275 -21.112  0.00  0.00    -0.270 OA
ATOM      9  N   UNL     1      33.448 -12.293 -23.209  0.00  0.00    -0.280 N 
ATOM     10  C   UNL     1      33.747 -13.358 -22.348  0.00  0.00    +0.250 C 
ATOM     11  H   UNL     1      33.421 -12.513 -24.169  0.00  0.00    +0.155 HD
BRANCH   9  12
ATOM     12  C   UNL     1      33.178 -10.942 -22.879  0.00  0.00    +0.050 C 
ATOM     13  C   UNL     1      33.988  -9.924 -23.385  0.00  0.00    +0.019 C 
ATOM     14  C   UNL     1      33.722  -8.594 -23.060  0.00  0.00    +0.073 C 
ATOM     15  C   UNL     1      32.102 -10.629 -22.049  0.00  0.00    +0.015 C 
ATOM     16  C   UNL     1      32.645  -8.282 -22.229  0.00  0.00    +0.004 C 
ATOM     17  C   UNL     1      31.836  -9.299 -21.724  0.00  0.00    +0.001 C 
BRANCH  14  21
ATOM     18  F   UNL     1      35.329  -7.883 -24.682  0.00  0.00    -0.166 F 
ATOM     19  F   UNL     1      33.888  -6.407 -24.012  0.00  0.00    -0.166 F 
ATOM     20  F   UNL     1      35.486  -7.047 -22.682  0.00  0.00    -0.166 F 
ATOM     21  C   UNL     1      34.586  -7.507 -23.600  0.00  0.00    +0.419 C 
ENDBRANCH  14  21
ENDBRANCH   9  12
ENDBRANCH   3  10
BRANCH   1  22
ATOM     22  N   UNL     1      35.952 -17.720 -22.462  0.00  0.00    -0.312 N 
ATOM     23  H   UNL     1      36.876 -17.619 -22.786  0.00  0.00    +0.152 HD
BRANCH  22  25
ATOM     24  N   UNL     1      36.793 -20.220 -19.878  0.00  0.00    -0.241 NA
ATOM     25  C   UNL     1      35.794 -18.749 -21.515  0.00  0.00    +0.068 C 
ATOM     26  C   UNL     1      34.545 -19.309 -21.266  0.00  0.00    +0.022 C 
ATOM     27  C   UNL     1      36.876 -19.236 -20.801  0.00  0.00    +0.113 C 
ATOM     28  C   UNL     1      34.419 -20.323 -20.323  0.00  0.00    +0.073 C 
ATOM     29  C   UNL     1      35.564 -20.740 -19.663  0.00  0.00    +0.103 C 
BRANCH  28  32
ATOM     30  O   UNL     1      33.021 -21.899 -19.271  0.00  0.00    -0.270 OA
ATOM     31  N   UNL     1      32.006 -20.374 -20.648  0.00  0.00    -0.325 N 
ATOM     32  C   UNL     1      33.130 -20.928 -20.041  0.00  0.00    +0.244 C 
ATOM     33  H   UNL     1      31.115 -20.758 -20.480  0.00  0.00    +0.145 HD
ATOM     34  H   UNL     1      32.101 -19.597 -21.246  0.00  0.00    +0.145 HD
ENDBRANCH  28  32
ENDBRANCH  22  25
ENDBRANCH   1  22
TORSDOF 6
ENDMDL
