MODEL 1
REMARK VINA RESULT:     -11.6      0.000      0.000
REMARK  Name = 448942
REMARK  8 active torsions:
REMARK  status: ('A' for Active; 'I' for Inactive)
REMARK    1  A    between atoms: C_2  and  C_20
REMARK    2  A    between atoms: C_3  and  C_6
REMARK    3  A    between atoms: C_7  and  C_13
REMARK    4  A    between atoms: N_19  and  C_22
REMARK    5  A    between atoms: C_22  and  C_23
REMARK    6  A    between atoms: C_22  and  C_29
REMARK    7  A    between atoms: C_29  and  C_31
REMARK    8  A    between atoms: C_31  and  O_32
REMARK                            x       y       z     vdW  Elec       q    Type
REMARK                         _______ _______ _______ _____ _____    ______ ____
ROOT
ATOM      1  S   UNL     1      32.667 -23.792 -15.983  0.00  0.00    -0.082 S 
ATOM      2  C   UNL     1      34.358 -23.788 -16.057  0.00  0.00    +0.083 C 
ATOM      3  C   UNL     1      33.843 -22.395 -17.791  0.00  0.00    +0.007 C 
ATOM      4  C   UNL     1      34.879 -23.024 -17.042  0.00  0.00    +0.012 C 
ATOM      5  C   UNL     1      32.591 -22.727 -17.323  0.00  0.00    +0.036 C 
ENDROOT
BRANCH   3   6
ATOM      6  C   UNL     1      33.999 -21.510 -18.914  0.00  0.00    +0.001 C 
ATOM      7  C   UNL     1      34.300 -19.793 -21.089  0.00  0.00    +0.000 C 
ATOM      8  C   UNL     1      35.274 -21.175 -19.364  0.00  0.00    +0.000 C 
ATOM      9  C   UNL     1      32.873 -20.988 -19.549  0.00  0.00    +0.000 C 
ATOM     10  C   UNL     1      35.426 -20.315 -20.452  0.00  0.00    +0.000 C 
ATOM     11  C   UNL     1      33.024 -20.128 -20.638  0.00  0.00    +0.000 C 
BRANCH   7  13
ATOM     12  N   UNL     1      34.759 -17.174 -24.395  0.00  0.00    -0.242 NA
ATOM     13  C   UNL     1      34.457 -18.901 -22.217  0.00  0.00    +0.003 C 
ATOM     14  C   UNL     1      35.102 -17.679 -22.055  0.00  0.00    +0.021 C 
ATOM     15  C   UNL     1      33.963 -19.259 -23.466  0.00  0.00    +0.021 C 
ATOM     16  C   UNL     1      35.226 -16.859 -23.165  0.00  0.00    +0.099 C 
ATOM     17  C   UNL     1      34.138 -18.369 -24.513  0.00  0.00    +0.099 C 
ENDBRANCH   7  13
ENDBRANCH   3   6
BRANCH   2  20
ATOM     18  O   UNL     1      35.091 -25.826 -15.097  0.00  0.00    -0.270 OA
ATOM     19  N   UNL     1      35.758 -23.876 -14.083  0.00  0.00    -0.298 N 
ATOM     20  C   UNL     1      35.090 -24.594 -15.071  0.00  0.00    +0.252 C 
ATOM     21  H   UNL     1      35.727 -22.893 -14.104  0.00  0.00    +0.150 HD
BRANCH  19  22
ATOM     22  C   UNL     1      36.497 -24.531 -13.024  0.00  0.00    +0.105 C 
BRANCH  22  23
ATOM     23  C   UNL     1      37.884 -24.904 -13.510  0.00  0.00    -0.004 C 
ATOM     24  C   UNL     1      38.372 -24.318 -14.663  0.00  0.00    -0.003 C 
ATOM     25  C   UNL     1      38.626 -25.820 -12.788  0.00  0.00    -0.003 C 
ATOM     26  C   UNL     1      39.648 -24.662 -15.110  0.00  0.00    -0.000 C 
ATOM     27  C   UNL     1      39.901 -26.164 -13.235  0.00  0.00    -0.000 C 
ATOM     28  C   UNL     1      40.412 -25.585 -14.397  0.00  0.00    -0.000 C 
ENDBRANCH  22  23
BRANCH  22  29
ATOM     29  C   UNL     1      36.502 -23.654 -11.759  0.00  0.00    +0.133 C 
BRANCH  29  31
ATOM     30  O   UNL     1      36.026 -24.131  -9.415  0.00  0.00    -0.250 OA
ATOM     31  C   UNL     1      35.750 -24.272 -10.599  0.00  0.00    +0.316 C 
BRANCH  31  32
ATOM     32  O   UNL     1      34.717 -25.044 -11.030  0.00  0.00    -0.480 OA
ATOM     33  H   UNL     1      34.532 -25.857 -10.605  0.00  0.00    +0.295 HD
ENDBRANCH  31  32
ENDBRANCH  29  31
ENDBRANCH  22  29
ENDBRANCH  19  22
ENDBRANCH   2  20
TORSDOF 8
ENDMDL
MODEL 2
REMARK VINA RESULT:     -11.6      2.183      3.294
REMARK  Name = 448942
REMARK  8 active torsions:
REMARK  status: ('A' for Active; 'I' for Inactive)
REMARK    1  A    between atoms: C_2  and  C_20
REMARK    2  A    between atoms: C_3  and  C_6
REMARK    3  A    between atoms: C_7  and  C_13
REMARK    4  A    between atoms: N_19  and  C_22
REMARK    5  A    between atoms: C_22  and  C_23
REMARK    6  A    between atoms: C_22  and  C_29
REMARK    7  A    between atoms: C_29  and  C_31
REMARK    8  A    between atoms: C_31  and  O_32
REMARK                            x       y       z     vdW  Elec       q    Type
REMARK                         _______ _______ _______ _____ _____    ______ ____
ROOT
ATOM      1  S   UNL     1      34.790 -23.330 -16.725  0.00  0.00    -0.082 S 
ATOM      2  C   UNL     1      36.253 -22.484 -16.637  0.00  0.00    +0.083 C 
ATOM      3  C   UNL     1      35.321 -21.549 -18.500  0.00  0.00    +0.007 C 
ATOM      4  C   UNL     1      36.438 -21.570 -17.615  0.00  0.00    +0.012 C 
ATOM      5  C   UNL     1      34.353 -22.457 -18.133  0.00  0.00    +0.036 C 
ENDROOT
BRANCH   3   6
ATOM      6  C   UNL     1      35.148 -20.714 -19.658  0.00  0.00    +0.001 C 
ATOM      7  C   UNL     1      34.811 -19.095 -21.902  0.00  0.00    +0.000 C 
ATOM      8  C   UNL     1      36.245 -20.057 -20.212  0.00  0.00    +0.000 C 
ATOM      9  C   UNL     1      33.882 -20.563 -20.223  0.00  0.00    +0.000 C 
ATOM     10  C   UNL     1      36.077 -19.247 -21.335  0.00  0.00    +0.000 C 
ATOM     11  C   UNL     1      33.714 -19.752 -21.346  0.00  0.00    +0.000 C 
BRANCH   7  13
ATOM     12  N   UNL     1      34.297 -16.625 -25.312  0.00  0.00    -0.242 NA
ATOM     13  C   UNL     1      34.636 -18.253 -23.065  0.00  0.00    +0.003 C 
ATOM     14  C   UNL     1      35.207 -16.987 -23.101  0.00  0.00    +0.021 C 
ATOM     15  C   UNL     1      33.895 -18.707 -24.151  0.00  0.00    +0.021 C 
ATOM     16  C   UNL     1      35.010 -16.218 -24.237  0.00  0.00    +0.099 C 
ATOM     17  C   UNL     1      33.756 -17.862 -25.240  0.00  0.00    +0.099 C 
ENDBRANCH   7  13
ENDBRANCH   3   6
BRANCH   2  20
ATOM     18  O   UNL     1      37.957 -21.984 -15.069  0.00  0.00    -0.270 OA
ATOM     19  N   UNL     1      37.106 -24.118 -15.065  0.00  0.00    -0.298 N 
ATOM     20  C   UNL     1      37.167 -22.808 -15.533  0.00  0.00    +0.252 C 
ATOM     21  H   UNL     1      36.459 -24.739 -15.470  0.00  0.00    +0.150 HD
BRANCH  19  22
ATOM     22  C   UNL     1      37.966 -24.595 -14.004  0.00  0.00    +0.105 C 
BRANCH  22  23
ATOM     23  C   UNL     1      37.283 -24.422 -12.661  0.00  0.00    -0.004 C 
ATOM     24  C   UNL     1      37.582 -23.312 -11.893  0.00  0.00    -0.003 C 
ATOM     25  C   UNL     1      36.379 -25.378 -12.238  0.00  0.00    -0.003 C 
ATOM     26  C   UNL     1      36.954 -23.152 -10.658  0.00  0.00    -0.000 C 
ATOM     27  C   UNL     1      35.751 -25.219 -11.003  0.00  0.00    -0.000 C 
ATOM     28  C   UNL     1      36.040 -24.106 -10.212  0.00  0.00    -0.000 C 
ENDBRANCH  22  23
BRANCH  22  29
ATOM     29  C   UNL     1      38.409 -26.041 -14.288  0.00  0.00    +0.133 C 
BRANCH  29  31
ATOM     30  O   UNL     1      40.689 -26.491 -13.550  0.00  0.00    -0.250 OA
ATOM     31  C   UNL     1      39.908 -26.191 -14.442  0.00  0.00    +0.316 C 
BRANCH  31  32
ATOM     32  O   UNL     1      40.306 -25.921 -15.713  0.00  0.00    -0.480 OA
ATOM     33  H   UNL     1      40.252 -26.586 -16.371  0.00  0.00    +0.295 HD
ENDBRANCH  31  32
ENDBRANCH  29  31
ENDBRANCH  22  29
ENDBRANCH  19  22
ENDBRANCH   2  20
TORSDOF 8
ENDMDL
MODEL 3
REMARK VINA RESULT:     -11.5      1.890      3.197
REMARK  Name = 448942
REMARK  8 active torsions:
REMARK  status: ('A' for Active; 'I' for Inactive)
REMARK    1  A    between atoms: C_2  and  C_20
REMARK    2  A    between atoms: C_3  and  C_6
REMARK    3  A    between atoms: C_7  and  C_13
REMARK    4  A    between atoms: N_19  and  C_22
REMARK    5  A    between atoms: C_22  and  C_23
REMARK    6  A    between atoms: C_22  and  C_29
REMARK    7  A    between atoms: C_29  and  C_31
REMARK    8  A    between atoms: C_31  and  O_32
REMARK                            x       y       z     vdW  Elec       q    Type
REMARK                         _______ _______ _______ _____ _____    ______ ____
ROOT
ATOM      1  S   UNL     1      34.521 -23.366 -16.639  0.00  0.00    -0.082 S 
ATOM      2  C   UNL     1      36.083 -22.712 -16.644  0.00  0.00    +0.083 C 
ATOM      3  C   UNL     1      35.163 -21.658 -18.449  0.00  0.00    +0.007 C 
ATOM      4  C   UNL     1      36.321 -21.825 -17.635  0.00  0.00    +0.012 C 
ATOM      5  C   UNL     1      34.113 -22.438 -18.019  0.00  0.00    +0.036 C 
ENDROOT
BRANCH   3   6
ATOM      6  C   UNL     1      35.026 -20.802 -19.596  0.00  0.00    +0.001 C 
ATOM      7  C   UNL     1      34.762 -19.144 -21.821  0.00  0.00    +0.000 C 
ATOM      8  C   UNL     1      33.769 -20.591 -20.160  0.00  0.00    +0.000 C 
ATOM      9  C   UNL     1      36.152 -20.186 -20.142  0.00  0.00    +0.000 C 
ATOM     10  C   UNL     1      33.636 -19.761 -21.274  0.00  0.00    +0.000 C 
ATOM     11  C   UNL     1      36.018 -19.357 -21.256  0.00  0.00    +0.000 C 
BRANCH   7  13
ATOM     12  N   UNL     1      34.357 -16.623 -25.209  0.00  0.00    -0.242 NA
ATOM     13  C   UNL     1      34.624 -18.285 -22.977  0.00  0.00    +0.003 C 
ATOM     14  C   UNL     1      35.209 -17.024 -22.982  0.00  0.00    +0.021 C 
ATOM     15  C   UNL     1      33.906 -18.716 -24.087  0.00  0.00    +0.021 C 
ATOM     16  C   UNL     1      35.048 -16.238 -24.112  0.00  0.00    +0.099 C 
ATOM     17  C   UNL     1      33.803 -17.856 -25.167  0.00  0.00    +0.099 C 
ENDBRANCH   7  13
ENDBRANCH   3   6
BRANCH   2  20
ATOM     18  O   UNL     1      38.067 -22.559 -15.359  0.00  0.00    -0.270 OA
ATOM     19  N   UNL     1      36.650 -24.312 -14.916  0.00  0.00    -0.298 N 
ATOM     20  C   UNL     1      37.016 -23.155 -15.599  0.00  0.00    +0.252 C 
ATOM     21  H   UNL     1      35.800 -24.752 -15.144  0.00  0.00    +0.150 HD
BRANCH  19  22
ATOM     22  C   UNL     1      37.481 -24.888 -13.881  0.00  0.00    +0.105 C 
BRANCH  22  23
ATOM     23  C   UNL     1      36.999 -24.440 -12.514  0.00  0.00    -0.004 C 
ATOM     24  C   UNL     1      37.489 -23.261 -11.983  0.00  0.00    -0.003 C 
ATOM     25  C   UNL     1      36.083 -25.220 -11.835  0.00  0.00    -0.003 C 
ATOM     26  C   UNL     1      37.046 -22.849 -10.726  0.00  0.00    -0.000 C 
ATOM     27  C   UNL     1      35.640 -24.808 -10.579  0.00  0.00    -0.000 C 
ATOM     28  C   UNL     1      36.122 -23.623 -10.023  0.00  0.00    -0.000 C 
ENDBRANCH  22  23
BRANCH  22  29
ATOM     29  C   UNL     1      37.545 -26.417 -14.040  0.00  0.00    +0.133 C 
BRANCH  29  31
ATOM     30  O   UNL     1      36.836 -27.548 -16.081  0.00  0.00    -0.250 OA
ATOM     31  C   UNL     1      36.553 -26.957 -15.048  0.00  0.00    +0.316 C 
BRANCH  31  32
ATOM     32  O   UNL     1      35.273 -26.684 -14.681  0.00  0.00    -0.480 OA
ATOM     33  H   UNL     1      35.097 -26.309 -13.841  0.00  0.00    +0.295 HD
ENDBRANCH  31  32
ENDBRANCH  29  31
ENDBRANCH  22  29
ENDBRANCH  19  22
ENDBRANCH   2  20
TORSDOF 8
ENDMDL
MODEL 4
REMARK VINA RESULT:     -11.2      2.867      4.650
REMARK  Name = 448942
REMARK  8 active torsions:
REMARK  status: ('A' for Active; 'I' for Inactive)
REMARK    1  A    between atoms: C_2  and  C_20
REMARK    2  A    between atoms: C_3  and  C_6
REMARK    3  A    between atoms: C_7  and  C_13
REMARK    4  A    between atoms: N_19  and  C_22
REMARK    5  A    between atoms: C_22  and  C_23
REMARK    6  A    between atoms: C_22  and  C_29
REMARK    7  A    between atoms: C_29  and  C_31
REMARK    8  A    between atoms: C_31  and  O_32
REMARK                            x       y       z     vdW  Elec       q    Type
REMARK                         _______ _______ _______ _____ _____    ______ ____
ROOT
ATOM      1  S   UNL     1      36.738 -21.289 -19.256  0.00  0.00    -0.082 S 
ATOM      2  C   UNL     1      35.054 -21.466 -19.252  0.00  0.00    +0.083 C 
ATOM      3  C   UNL     1      35.300 -19.662 -20.630  0.00  0.00    +0.007 C 
ATOM      4  C   UNL     1      34.390 -20.562 -20.004  0.00  0.00    +0.012 C 
ATOM      5  C   UNL     1      36.609 -19.944 -20.308  0.00  0.00    +0.036 C 
ENDROOT
BRANCH   3   6
ATOM      6  C   UNL     1      34.975 -18.567 -21.504  0.00  0.00    +0.001 C 
ATOM      7  C   UNL     1      34.343 -16.445 -23.198  0.00  0.00    +0.000 C 
ATOM      8  C   UNL     1      35.126 -17.254 -21.060  0.00  0.00    +0.000 C 
ATOM      9  C   UNL     1      34.508 -18.821 -22.793  0.00  0.00    +0.000 C 
ATOM     10  C   UNL     1      34.809 -16.192 -21.907  0.00  0.00    +0.000 C 
ATOM     11  C   UNL     1      34.191 -17.759 -23.640  0.00  0.00    +0.000 C 
BRANCH   7  13
ATOM     12  N   UNL     1      33.379 -13.216 -25.774  0.00  0.00    -0.242 NA
ATOM     13  C   UNL     1      34.013 -15.344 -24.076  0.00  0.00    +0.003 C 
ATOM     14  C   UNL     1      33.703 -15.584 -25.410  0.00  0.00    +0.021 C 
ATOM     15  C   UNL     1      34.006 -14.041 -23.590  0.00  0.00    +0.021 C 
ATOM     16  C   UNL     1      33.395 -14.496 -26.210  0.00  0.00    +0.099 C 
ATOM     17  C   UNL     1      33.685 -13.022 -24.472  0.00  0.00    +0.099 C 
ENDBRANCH   7  13
ENDBRANCH   3   6
BRANCH   2  20
ATOM     18  O   UNL     1      33.808 -23.458 -18.956  0.00  0.00    -0.270 OA
ATOM     19  N   UNL     1      34.721 -22.492 -17.083  0.00  0.00    -0.298 N 
ATOM     20  C   UNL     1      34.481 -22.557 -18.452  0.00  0.00    +0.252 C 
ATOM     21  H   UNL     1      35.265 -21.751 -16.729  0.00  0.00    +0.150 HD
BRANCH  19  22
ATOM     22  C   UNL     1      34.196 -23.477 -16.163  0.00  0.00    +0.105 C 
BRANCH  22  23
ATOM     23  C   UNL     1      35.301 -23.989 -15.260  0.00  0.00    -0.004 C 
ATOM     24  C   UNL     1      36.556 -23.414 -15.341  0.00  0.00    -0.003 C 
ATOM     25  C   UNL     1      35.028 -25.019 -14.379  0.00  0.00    -0.003 C 
ATOM     26  C   UNL     1      37.573 -23.885 -14.511  0.00  0.00    -0.000 C 
ATOM     27  C   UNL     1      36.045 -25.491 -13.550  0.00  0.00    -0.000 C 
ATOM     28  C   UNL     1      37.318 -24.924 -13.617  0.00  0.00    -0.000 C 
ENDBRANCH  22  23
BRANCH  22  29
ATOM     29  C   UNL     1      32.993 -22.900 -15.396  0.00  0.00    +0.133 C 
BRANCH  29  31
ATOM     30  O   UNL     1      30.820 -23.977 -15.654  0.00  0.00    -0.250 OA
ATOM     31  C   UNL     1      31.663 -23.190 -16.061  0.00  0.00    +0.316 C 
BRANCH  31  32
ATOM     32  O   UNL     1      31.515 -22.477 -17.209  0.00  0.00    -0.480 OA
ATOM     33  H   UNL     1      32.080 -21.751 -17.384  0.00  0.00    +0.295 HD
ENDBRANCH  31  32
ENDBRANCH  29  31
ENDBRANCH  22  29
ENDBRANCH  19  22
ENDBRANCH   2  20
TORSDOF 8
ENDMDL
MODEL 5
REMARK VINA RESULT:     -11.0      2.481      4.369
REMARK  Name = 448942
REMARK  8 active torsions:
REMARK  status: ('A' for Active; 'I' for Inactive)
REMARK    1  A    between atoms: C_2  and  C_20
REMARK    2  A    between atoms: C_3  and  C_6
REMARK    3  A    between atoms: C_7  and  C_13
REMARK    4  A    between atoms: N_19  and  C_22
REMARK    5  A    between atoms: C_22  and  C_23
REMARK    6  A    between atoms: C_22  and  C_29
REMARK    7  A    between atoms: C_29  and  C_31
REMARK    8  A    between atoms: C_31  and  O_32
REMARK                            x       y       z     vdW  Elec       q    Type
REMARK                         _______ _______ _______ _____ _____    ______ ____
ROOT
ATOM      1  S   UNL     1      37.107 -22.501 -16.422  0.00  0.00    -0.082 S 
ATOM      2  C   UNL     1      35.435 -22.751 -16.520  0.00  0.00    +0.083 C 
ATOM      3  C   UNL     1      35.782 -21.409 -18.334  0.00  0.00    +0.007 C 
ATOM      4  C   UNL     1      34.832 -22.134 -17.559  0.00  0.00    +0.012 C 
ATOM      5  C   UNL     1      37.057 -21.522 -17.826  0.00  0.00    +0.036 C 
ENDROOT
BRANCH   3   6
ATOM      6  C   UNL     1      35.525 -20.627 -19.513  0.00  0.00    +0.001 C 
ATOM      7  C   UNL     1      35.023 -19.112 -21.799  0.00  0.00    +0.000 C 
ATOM      8  C   UNL     1      36.557 -19.905 -20.109  0.00  0.00    +0.000 C 
ATOM      9  C   UNL     1      34.241 -20.594 -20.058  0.00  0.00    +0.000 C 
ATOM     10  C   UNL     1      36.307 -19.146 -21.252  0.00  0.00    +0.000 C 
ATOM     11  C   UNL     1      33.991 -19.835 -21.202  0.00  0.00    +0.000 C 
BRANCH   7  13
ATOM     12  N   UNL     1      34.259 -16.800 -25.272  0.00  0.00    -0.242 NA
ATOM     13  C   UNL     1      34.763 -18.325 -22.984  0.00  0.00    +0.003 C 
ATOM     14  C   UNL     1      35.307 -17.051 -23.108  0.00  0.00    +0.021 C 
ATOM     15  C   UNL     1      33.967 -18.836 -24.003  0.00  0.00    +0.021 C 
ATOM     16  C   UNL     1      35.028 -16.336 -24.262  0.00  0.00    +0.099 C 
ATOM     17  C   UNL     1      33.747 -18.042 -25.116  0.00  0.00    +0.099 C 
ENDBRANCH   7  13
ENDBRANCH   3   6
BRANCH   2  20
ATOM     18  O   UNL     1      34.973 -24.814 -15.451  0.00  0.00    -0.270 OA
ATOM     19  N   UNL     1      33.984 -22.929 -14.589  0.00  0.00    -0.298 N 
ATOM     20  C   UNL     1      34.806 -23.594 -15.494  0.00  0.00    +0.252 C 
ATOM     21  H   UNL     1      33.883 -21.953 -14.664  0.00  0.00    +0.150 HD
BRANCH  19  22
ATOM     22  C   UNL     1      33.271 -23.628 -13.541  0.00  0.00    +0.105 C 
BRANCH  22  23
ATOM     23  C   UNL     1      31.894 -24.035 -14.028  0.00  0.00    -0.004 C 
ATOM     24  C   UNL     1      31.312 -25.180 -13.515  0.00  0.00    -0.003 C 
ATOM     25  C   UNL     1      31.256 -23.253 -14.972  0.00  0.00    -0.003 C 
ATOM     26  C   UNL     1      30.046 -25.555 -13.963  0.00  0.00    -0.000 C 
ATOM     27  C   UNL     1      29.990 -23.629 -15.420  0.00  0.00    -0.000 C 
ATOM     28  C   UNL     1      29.385 -24.781 -14.916  0.00  0.00    -0.000 C 
ENDBRANCH  22  23
BRANCH  22  29
ATOM     29  C   UNL     1      34.114 -24.805 -13.019  0.00  0.00    +0.133 C 
BRANCH  29  31
ATOM     30  O   UNL     1      35.032 -25.059 -10.774  0.00  0.00    -0.250 OA
ATOM     31  C   UNL     1      34.979 -24.443 -11.830  0.00  0.00    +0.316 C 
BRANCH  31  32
ATOM     32  O   UNL     1      35.693 -23.310 -12.061  0.00  0.00    -0.480 OA
ATOM     33  H   UNL     1      35.253 -22.486 -12.130  0.00  0.00    +0.295 HD
ENDBRANCH  31  32
ENDBRANCH  29  31
ENDBRANCH  22  29
ENDBRANCH  19  22
ENDBRANCH   2  20
TORSDOF 8
ENDMDL
MODEL 6
REMARK VINA RESULT:     -10.3      9.317     15.268
REMARK  Name = 448942
REMARK  8 active torsions:
REMARK  status: ('A' for Active; 'I' for Inactive)
REMARK    1  A    between atoms: C_2  and  C_20
REMARK    2  A    between atoms: C_3  and  C_6
REMARK    3  A    between atoms: C_7  and  C_13
REMARK    4  A    between atoms: N_19  and  C_22
REMARK    5  A    between atoms: C_22  and  C_23
REMARK    6  A    between atoms: C_22  and  C_29
REMARK    7  A    between atoms: C_29  and  C_31
REMARK    8  A    between atoms: C_31  and  O_32
REMARK                            x       y       z     vdW  Elec       q    Type
REMARK                         _______ _______ _______ _____ _____    ______ ____
ROOT
ATOM      1  S   UNL     1      33.677 -11.191 -25.056  0.00  0.00    -0.082 S 
ATOM      2  C   UNL     1      33.444 -10.829 -23.419  0.00  0.00    +0.083 C 
ATOM      3  C   UNL     1      34.037 -13.031 -23.299  0.00  0.00    +0.007 C 
ATOM      4  C   UNL     1      33.658 -11.862 -22.575  0.00  0.00    +0.012 C 
ATOM      5  C   UNL     1      34.085 -12.806 -24.656  0.00  0.00    +0.036 C 
ENDROOT
BRANCH   3   6
ATOM      6  C   UNL     1      34.346 -14.325 -22.754  0.00  0.00    +0.001 C 
ATOM      7  C   UNL     1      34.947 -16.836 -21.700  0.00  0.00    +0.000 C 
ATOM      8  C   UNL     1      34.294 -14.532 -21.377  0.00  0.00    +0.000 C 
ATOM      9  C   UNL     1      34.699 -15.372 -23.606  0.00  0.00    +0.000 C 
ATOM     10  C   UNL     1      34.595 -15.787 -20.849  0.00  0.00    +0.000 C 
ATOM     11  C   UNL     1      34.999 -16.627 -23.078  0.00  0.00    +0.000 C 
BRANCH   7  13
ATOM     12  N   UNL     1      35.867 -20.653 -20.097  0.00  0.00    -0.242 NA
ATOM     13  C   UNL     1      35.260 -18.137 -21.153  0.00  0.00    +0.003 C 
ATOM     14  C   UNL     1      36.566 -18.444 -20.788  0.00  0.00    +0.021 C 
ATOM     15  C   UNL     1      34.257 -19.087 -20.990  0.00  0.00    +0.021 C 
ATOM     16  C   UNL     1      36.816 -19.704 -20.269  0.00  0.00    +0.099 C 
ATOM     17  C   UNL     1      34.610 -20.318 -20.463  0.00  0.00    +0.099 C 
ENDBRANCH   7  13
ENDBRANCH   3   6
BRANCH   2  20
ATOM     18  O   UNL     1      31.894  -9.047 -23.239  0.00  0.00    -0.270 OA
ATOM     19  N   UNL     1      34.051  -8.646 -22.561  0.00  0.00    -0.298 N 
ATOM     20  C   UNL     1      33.042  -9.460 -23.069  0.00  0.00    +0.252 C 
ATOM     21  H   UNL     1      34.953  -9.023 -22.444  0.00  0.00    +0.150 HD
BRANCH  19  22
ATOM     22  C   UNL     1      33.816  -7.265 -22.201  0.00  0.00    +0.105 C 
BRANCH  22  23
ATOM     23  C   UNL     1      33.812  -6.395 -23.443  0.00  0.00    -0.004 C 
ATOM     24  C   UNL     1      32.686  -5.647 -23.734  0.00  0.00    -0.003 C 
ATOM     25  C   UNL     1      34.931  -6.372 -24.252  0.00  0.00    -0.003 C 
ATOM     26  C   UNL     1      32.681  -4.847 -24.877  0.00  0.00    -0.000 C 
ATOM     27  C   UNL     1      34.927  -5.572 -25.395  0.00  0.00    -0.000 C 
ATOM     28  C   UNL     1      33.800  -4.810 -25.708  0.00  0.00    -0.000 C 
ENDBRANCH  22  23
BRANCH  22  29
ATOM     29  C   UNL     1      32.533  -7.146 -21.360  0.00  0.00    +0.133 C 
BRANCH  29  31
ATOM     30  O   UNL     1      32.263  -8.919 -19.708  0.00  0.00    -0.250 OA
ATOM     31  C   UNL     1      32.647  -7.794 -19.996  0.00  0.00    +0.316 C 
BRANCH  31  32
ATOM     32  O   UNL     1      33.217  -6.954 -19.092  0.00  0.00    -0.480 OA
ATOM     33  H   UNL     1      34.039  -7.174 -18.702  0.00  0.00    +0.295 HD
ENDBRANCH  31  32
ENDBRANCH  29  31
ENDBRANCH  22  29
ENDBRANCH  19  22
ENDBRANCH   2  20
TORSDOF 8
ENDMDL
MODEL 7
REMARK VINA RESULT:     -10.3      9.314     15.282
REMARK  Name = 448942
REMARK  8 active torsions:
REMARK  status: ('A' for Active; 'I' for Inactive)
REMARK    1  A    between atoms: C_2  and  C_20
REMARK    2  A    between atoms: C_3  and  C_6
REMARK    3  A    between atoms: C_7  and  C_13
REMARK    4  A    between atoms: N_19  and  C_22
REMARK    5  A    between atoms: C_22  and  C_23
REMARK    6  A    between atoms: C_22  and  C_29
REMARK    7  A    between atoms: C_29  and  C_31
REMARK    8  A    between atoms: C_31  and  O_32
REMARK                            x       y       z     vdW  Elec       q    Type
REMARK                         _______ _______ _______ _____ _____    ______ ____
ROOT
ATOM      1  S   UNL     1      33.623 -11.205 -25.065  0.00  0.00    -0.082 S 
ATOM      2  C   UNL     1      33.432 -10.832 -23.425  0.00  0.00    +0.083 C 
ATOM      3  C   UNL     1      34.025 -13.034 -23.304  0.00  0.00    +0.007 C 
ATOM      4  C   UNL     1      33.665 -11.860 -22.580  0.00  0.00    +0.012 C 
ATOM      5  C   UNL     1      34.040 -12.818 -24.664  0.00  0.00    +0.036 C 
ENDROOT
BRANCH   3   6
ATOM      6  C   UNL     1      34.346 -14.325 -22.759  0.00  0.00    +0.001 C 
ATOM      7  C   UNL     1      34.968 -16.828 -21.700  0.00  0.00    +0.000 C 
ATOM      8  C   UNL     1      34.734 -15.361 -23.606  0.00  0.00    +0.000 C 
ATOM      9  C   UNL     1      34.268 -14.537 -21.383  0.00  0.00    +0.000 C 
ATOM     10  C   UNL     1      35.045 -16.614 -23.077  0.00  0.00    +0.000 C 
ATOM     11  C   UNL     1      34.579 -15.790 -20.854  0.00  0.00    +0.000 C 
BRANCH   7  13
ATOM     12  N   UNL     1      35.908 -20.637 -20.088  0.00  0.00    -0.242 NA
ATOM     13  C   UNL     1      35.289 -18.127 -21.151  0.00  0.00    +0.003 C 
ATOM     14  C   UNL     1      34.286 -19.071 -20.963  0.00  0.00    +0.021 C 
ATOM     15  C   UNL     1      36.601 -18.436 -20.808  0.00  0.00    +0.021 C 
ATOM     16  C   UNL     1      34.644 -20.301 -20.434  0.00  0.00    +0.099 C 
ATOM     17  C   UNL     1      36.855 -19.693 -20.285  0.00  0.00    +0.099 C 
ENDBRANCH   7  13
ENDBRANCH   3   6
BRANCH   2  20
ATOM     18  O   UNL     1      31.894  -9.039 -23.243  0.00  0.00    -0.270 OA
ATOM     19  N   UNL     1      34.055  -8.654 -22.569  0.00  0.00    -0.298 N 
ATOM     20  C   UNL     1      33.040  -9.460 -23.075  0.00  0.00    +0.252 C 
ATOM     21  H   UNL     1      34.955  -9.036 -22.453  0.00  0.00    +0.150 HD
BRANCH  19  22
ATOM     22  C   UNL     1      33.831  -7.270 -22.208  0.00  0.00    +0.105 C 
BRANCH  22  23
ATOM     23  C   UNL     1      33.824  -6.401 -23.450  0.00  0.00    -0.004 C 
ATOM     24  C   UNL     1      34.947  -6.373 -24.256  0.00  0.00    -0.003 C 
ATOM     25  C   UNL     1      32.696  -5.659 -23.746  0.00  0.00    -0.003 C 
ATOM     26  C   UNL     1      34.941  -5.574 -25.400  0.00  0.00    -0.000 C 
ATOM     27  C   UNL     1      32.690  -4.859 -24.889  0.00  0.00    -0.000 C 
ATOM     28  C   UNL     1      33.814  -4.816 -25.715  0.00  0.00    -0.000 C 
ENDBRANCH  22  23
BRANCH  22  29
ATOM     29  C   UNL     1      32.553  -7.143 -21.360  0.00  0.00    +0.133 C 
BRANCH  29  31
ATOM     30  O   UNL     1      32.262  -8.912 -19.707  0.00  0.00    -0.250 OA
ATOM     31  C   UNL     1      32.668  -7.796 -19.999  0.00  0.00    +0.316 C 
BRANCH  31  32
ATOM     32  O   UNL     1      33.269  -6.970 -19.101  0.00  0.00    -0.480 OA
ATOM     33  H   UNL     1      33.969  -6.412 -19.374  0.00  0.00    +0.295 HD
ENDBRANCH  31  32
ENDBRANCH  29  31
ENDBRANCH  22  29
ENDBRANCH  19  22
ENDBRANCH   2  20
TORSDOF 8
ENDMDL
MODEL 8
REMARK VINA RESULT:      -9.8      2.138      3.208
REMARK  Name = 448942
REMARK  8 active torsions:
REMARK  status: ('A' for Active; 'I' for Inactive)
REMARK    1  A    between atoms: C_2  and  C_20
REMARK    2  A    between atoms: C_3  and  C_6
REMARK    3  A    between atoms: C_7  and  C_13
REMARK    4  A    between atoms: N_19  and  C_22
REMARK    5  A    between atoms: C_22  and  C_23
REMARK    6  A    between atoms: C_22  and  C_29
REMARK    7  A    between atoms: C_29  and  C_31
REMARK    8  A    between atoms: C_31  and  O_32
REMARK                            x       y       z     vdW  Elec       q    Type
REMARK                         _______ _______ _______ _____ _____    ______ ____
ROOT
ATOM      1  S   UNL     1      36.753 -22.077 -17.553  0.00  0.00    -0.082 S 
ATOM      2  C   UNL     1      35.105 -22.405 -17.757  0.00  0.00    +0.083 C 
ATOM      3  C   UNL     1      35.450 -20.864 -19.406  0.00  0.00    +0.007 C 
ATOM      4  C   UNL     1      34.511 -21.717 -18.756  0.00  0.00    +0.012 C 
ATOM      5  C   UNL     1      36.706 -20.961 -18.851  0.00  0.00    +0.036 C 
ENDROOT
BRANCH   3   6
ATOM      6  C   UNL     1      35.197 -19.979 -20.511  0.00  0.00    +0.001 C 
ATOM      7  C   UNL     1      34.705 -18.264 -22.653  0.00  0.00    +0.000 C 
ATOM      8  C   UNL     1      36.106 -18.968 -20.815  0.00  0.00    +0.000 C 
ATOM      9  C   UNL     1      34.041 -20.135 -21.276  0.00  0.00    +0.000 C 
ATOM     10  C   UNL     1      35.860 -18.109 -21.886  0.00  0.00    +0.000 C 
ATOM     11  C   UNL     1      33.796 -19.276 -22.347  0.00  0.00    +0.000 C 
BRANCH   7  13
ATOM     12  N   UNL     1      33.957 -15.652 -25.910  0.00  0.00    -0.242 NA
ATOM     13  C   UNL     1      34.449 -17.373 -23.763  0.00  0.00    +0.003 C 
ATOM     14  C   UNL     1      33.453 -17.674 -24.684  0.00  0.00    +0.021 C 
ATOM     15  C   UNL     1      35.200 -16.211 -23.914  0.00  0.00    +0.021 C 
ATOM     16  C   UNL     1      33.247 -16.789 -25.731  0.00  0.00    +0.099 C 
ATOM     17  C   UNL     1      34.917 -15.392 -24.994  0.00  0.00    +0.099 C 
ENDBRANCH   7  13
ENDBRANCH   3   6
BRANCH   2  20
ATOM     18  O   UNL     1      33.488 -24.035 -17.174  0.00  0.00    -0.270 OA
ATOM     19  N   UNL     1      35.074 -23.505 -15.599  0.00  0.00    -0.298 N 
ATOM     20  C   UNL     1      34.483 -23.383 -16.854  0.00  0.00    +0.252 C 
ATOM     21  H   UNL     1      35.868 -22.962 -15.391  0.00  0.00    +0.150 HD
BRANCH  19  22
ATOM     22  C   UNL     1      34.556 -24.405 -14.590  0.00  0.00    +0.105 C 
BRANCH  22  23
ATOM     23  C   UNL     1      35.697 -25.007 -13.793  0.00  0.00    -0.004 C 
ATOM     24  C   UNL     1      36.613 -25.817 -14.439  0.00  0.00    -0.003 C 
ATOM     25  C   UNL     1      35.794 -24.731 -12.443  0.00  0.00    -0.003 C 
ATOM     26  C   UNL     1      37.663 -26.372 -13.706  0.00  0.00    -0.000 C 
ATOM     27  C   UNL     1      36.842 -25.285 -11.710  0.00  0.00    -0.000 C 
ATOM     28  C   UNL     1      37.777 -26.107 -12.341  0.00  0.00    -0.000 C 
ENDBRANCH  22  23
BRANCH  22  29
ATOM     29  C   UNL     1      33.511 -23.684 -13.722  0.00  0.00    +0.133 C 
BRANCH  29  31
ATOM     30  O   UNL     1      31.097 -23.771 -14.057  0.00  0.00    -0.250 OA
ATOM     31  C   UNL     1      32.144 -24.333 -13.766  0.00  0.00    +0.316 C 
BRANCH  31  32
ATOM     32  O   UNL     1      32.204 -25.644 -13.411  0.00  0.00    -0.480 OA
ATOM     33  H   UNL     1      31.481 -26.043 -12.970  0.00  0.00    +0.295 HD
ENDBRANCH  31  32
ENDBRANCH  29  31
ENDBRANCH  22  29
ENDBRANCH  19  22
ENDBRANCH   2  20
TORSDOF 8
ENDMDL
MODEL 9
REMARK VINA RESULT:      -9.8      4.187     11.178
REMARK  Name = 448942
REMARK  8 active torsions:
REMARK  status: ('A' for Active; 'I' for Inactive)
REMARK    1  A    between atoms: C_2  and  C_20
REMARK    2  A    between atoms: C_3  and  C_6
REMARK    3  A    between atoms: C_7  and  C_13
REMARK    4  A    between atoms: N_19  and  C_22
REMARK    5  A    between atoms: C_22  and  C_23
REMARK    6  A    between atoms: C_22  and  C_29
REMARK    7  A    between atoms: C_29  and  C_31
REMARK    8  A    between atoms: C_31  and  O_32
REMARK                            x       y       z     vdW  Elec       q    Type
REMARK                         _______ _______ _______ _____ _____    ______ ____
ROOT
ATOM      1  S   UNL     1      33.675 -20.530 -20.564  0.00  0.00    -0.082 S 
ATOM      2  C   UNL     1      35.306 -20.080 -20.635  0.00  0.00    +0.083 C 
ATOM      3  C   UNL     1      35.283 -21.335 -18.728  0.00  0.00    +0.007 C 
ATOM      4  C   UNL     1      36.068 -20.554 -19.625  0.00  0.00    +0.012 C 
ATOM      5  C   UNL     1      33.965 -21.404 -19.119  0.00  0.00    +0.036 C 
ENDROOT
BRANCH   3   6
ATOM      6  C   UNL     1      35.735 -22.003 -17.537  0.00  0.00    +0.001 C 
ATOM      7  C   UNL     1      36.613 -23.297 -15.229  0.00  0.00    +0.000 C 
ATOM      8  C   UNL     1      34.845 -22.770 -16.789  0.00  0.00    +0.000 C 
ATOM      9  C   UNL     1      37.065 -21.881 -17.134  0.00  0.00    +0.000 C 
ATOM     10  C   UNL     1      35.283 -23.417 -15.634  0.00  0.00    +0.000 C 
ATOM     11  C   UNL     1      37.503 -22.528 -15.979  0.00  0.00    +0.000 C 
BRANCH   7  13
ATOM     12  N   UNL     1      37.947 -25.259 -11.713  0.00  0.00    -0.242 NA
ATOM     13  C   UNL     1      37.067 -23.966 -14.030  0.00  0.00    +0.003 C 
ATOM     14  C   UNL     1      36.695 -23.487 -12.780  0.00  0.00    +0.021 C 
ATOM     15  C   UNL     1      37.879 -25.092 -14.123  0.00  0.00    +0.021 C 
ATOM     16  C   UNL     1      37.157 -24.162 -11.662  0.00  0.00    +0.099 C 
ATOM     17  C   UNL     1      38.288 -25.695 -12.946  0.00  0.00    +0.099 C 
ENDBRANCH   7  13
ENDBRANCH   3   6
BRANCH   2  20
ATOM     18  O   UNL     1      36.917 -19.150 -22.102  0.00  0.00    -0.270 OA
ATOM     19  N   UNL     1      34.728 -18.520 -22.396  0.00  0.00    -0.298 N 
ATOM     20  C   UNL     1      35.736 -19.238 -21.760  0.00  0.00    +0.252 C 
ATOM     21  H   UNL     1      33.799 -18.624 -22.085  0.00  0.00    +0.150 HD
BRANCH  19  22
ATOM     22  C   UNL     1      35.000 -17.625 -23.500  0.00  0.00    +0.105 C 
BRANCH  22  23
ATOM     23  C   UNL     1      33.803 -17.561 -24.428  0.00  0.00    -0.004 C 
ATOM     24  C   UNL     1      33.504 -16.367 -25.058  0.00  0.00    -0.003 C 
ATOM     25  C   UNL     1      33.039 -18.697 -24.621  0.00  0.00    -0.003 C 
ATOM     26  C   UNL     1      32.402 -16.308 -25.911  0.00  0.00    -0.000 C 
ATOM     27  C   UNL     1      31.938 -18.638 -25.473  0.00  0.00    -0.000 C 
ATOM     28  C   UNL     1      31.619 -17.442 -26.118  0.00  0.00    -0.000 C 
ENDBRANCH  22  23
BRANCH  22  29
ATOM     29  C   UNL     1      35.444 -16.250 -22.972  0.00  0.00    +0.133 C 
BRANCH  29  31
ATOM     30  O   UNL     1      34.742 -16.329 -20.637  0.00  0.00    -0.250 OA
ATOM     31  C   UNL     1      34.682 -15.805 -21.741  0.00  0.00    +0.316 C 
BRANCH  31  32
ATOM     32  O   UNL     1      33.880 -14.741 -22.011  0.00  0.00    -0.480 OA
ATOM     33  H   UNL     1      34.060 -14.195 -22.750  0.00  0.00    +0.295 HD
ENDBRANCH  31  32
ENDBRANCH  29  31
ENDBRANCH  22  29
ENDBRANCH  19  22
ENDBRANCH   2  20
TORSDOF 8
ENDMDL
