MODEL 1
REMARK VINA RESULT:     -13.2      0.000      0.000
REMARK  Name = 5073
REMARK  4 active torsions:
REMARK  status: ('A' for Active; 'I' for Inactive)
REMARK    1  A    between atoms: N_1  and  C_18
REMARK    2  A    between atoms: C_2  and  C_11
REMARK    3  A    between atoms: C_18  and  C_19
REMARK    4  A    between atoms: C_19  and  C_23
REMARK                            x       y       z     vdW  Elec       q    Type
REMARK                         _______ _______ _______ _____ _____    ______ ____
ROOT
ATOM      1  N   UNL     1      35.803 -19.651 -20.239  0.00  0.00    +0.387 N 
ATOM      2  C   UNL     1      35.193 -18.521 -22.878  0.00  0.00    +0.039 C 
ATOM      3  C   UNL     1      34.124 -19.193 -22.000  0.00  0.00    -0.017 C 
ATOM      4  C   UNL     1      36.333 -17.988 -21.994  0.00  0.00    -0.017 C 
ATOM      5  C   UNL     1      34.745 -20.240 -21.073  0.00  0.00    -0.077 C 
ATOM      6  C   UNL     1      36.874 -19.079 -21.068  0.00  0.00    -0.077 C 
ATOM      7  H   UNL     1      35.388 -18.895 -19.694  0.00  0.00    -0.080 HD
ENDROOT
BRANCH   2  11
ATOM      8  F   UNL     1      33.382 -12.128 -23.911  0.00  0.00    -0.204 F 
ATOM      9  O   UNL     1      33.763 -16.621 -25.584  0.00  0.00    -0.354 OA
ATOM     10  N   UNL     1      34.236 -17.799 -25.021  0.00  0.00    -0.081 NA
ATOM     11  C   UNL     1      34.617 -17.462 -23.790  0.00  0.00    +0.100 A 
ATOM     12  C   UNL     1      34.418 -16.103 -23.506  0.00  0.00    +0.054 A 
ATOM     13  C   UNL     1      33.873 -15.610 -24.679  0.00  0.00    +0.179 A 
ATOM     14  C   UNL     1      34.623 -15.227 -22.429  0.00  0.00    +0.007 C 
ATOM     15  C   UNL     1      33.504 -14.282 -24.875  0.00  0.00    +0.070 C 
ATOM     16  C   UNL     1      34.261 -13.882 -22.592  0.00  0.00    +0.030 C 
ATOM     17  C   UNL     1      33.713 -13.421 -23.793  0.00  0.00    +0.143 C 
ENDBRANCH   2  11
BRANCH   1  18
ATOM     18  C   UNL     1      36.346 -20.651 -19.320  0.00  0.00    -0.076 C 
BRANCH  18  19
ATOM     19  C   UNL     1      35.523 -21.929 -19.402  0.00  0.00    -0.007 C 
BRANCH  19  23
ATOM     20  O   UNL     1      32.822 -22.442 -18.974  0.00  0.00    -0.274 OA
ATOM     21  N   UNL     1      33.046 -22.913 -16.704  0.00  0.00    -0.237 N 
ATOM     22  N   UNL     1      35.177 -22.743 -15.690  0.00  0.00    -0.399 NA
ATOM     23  C   UNL     1      34.996 -22.313 -18.050  0.00  0.00    +0.123 C 
ATOM     24  C   UNL     1      31.596 -23.081 -16.566  0.00  0.00    +0.100 C 
ATOM     25  C   UNL     1      31.158 -23.803 -15.306  0.00  0.00    +0.022 C 
ATOM     26  C   UNL     1      33.903 -22.967 -15.620  0.00  0.00    +0.165 C 
ATOM     27  C   UNL     1      31.859 -23.189 -14.112  0.00  0.00    +0.011 C 
ATOM     28  C   UNL     1      33.354 -23.380 -14.267  0.00  0.00    +0.075 C 
ATOM     29  C   UNL     1      33.523 -22.562 -17.970  0.00  0.00    +0.237 C 
ATOM     30  C   UNL     1      35.713 -22.420 -16.913  0.00  0.00    +0.096 C 
ATOM     31  C   UNL     1      37.205 -22.223 -16.866  0.00  0.00    +0.062 C 
ENDBRANCH  19  23
ENDBRANCH  18  19
ENDBRANCH   1  18
TORSDOF 4
ENDMDL
MODEL 2
REMARK VINA RESULT:     -12.4      3.466     10.290
REMARK  Name = 5073
REMARK  4 active torsions:
REMARK  status: ('A' for Active; 'I' for Inactive)
REMARK    1  A    between atoms: N_1  and  C_18
REMARK    2  A    between atoms: C_2  and  C_11
REMARK    3  A    between atoms: C_18  and  C_19
REMARK    4  A    between atoms: C_19  and  C_23
REMARK                            x       y       z     vdW  Elec       q    Type
REMARK                         _______ _______ _______ _____ _____    ______ ____
ROOT
ATOM      1  N   UNL     1      34.303 -20.349 -20.157  0.00  0.00    +0.387 N 
ATOM      2  C   UNL     1      34.124 -22.517 -18.188  0.00  0.00    +0.039 C 
ATOM      3  C   UNL     1      35.439 -21.777 -18.485  0.00  0.00    -0.017 C 
ATOM      4  C   UNL     1      32.929 -21.614 -18.532  0.00  0.00    -0.017 C 
ATOM      5  C   UNL     1      35.457 -21.226 -19.912  0.00  0.00    -0.077 C 
ATOM      6  C   UNL     1      33.038 -21.069 -19.959  0.00  0.00    -0.077 C 
ATOM      7  H   UNL     1      34.341 -19.586 -19.481  0.00  0.00    -0.080 HD
ENDROOT
BRANCH   2  11
ATOM      8  F   UNL     1      30.489 -24.238 -12.799  0.00  0.00    -0.204 F 
ATOM      9  O   UNL     1      34.794 -23.846 -14.907  0.00  0.00    -0.354 OA
ATOM     10  N   UNL     1      35.192 -23.403 -16.162  0.00  0.00    -0.081 NA
ATOM     11  C   UNL     1      34.063 -23.055 -16.776  0.00  0.00    +0.100 A 
ATOM     12  C   UNL     1      32.923 -23.248 -15.983  0.00  0.00    +0.054 A 
ATOM     13  C   UNL     1      33.440 -23.754 -14.802  0.00  0.00    +0.179 A 
ATOM     14  C   UNL     1      31.537 -23.068 -16.097  0.00  0.00    +0.007 C 
ATOM     15  C   UNL     1      32.672 -24.106 -13.697  0.00  0.00    +0.070 C 
ATOM     16  C   UNL     1      30.732 -23.412 -15.001  0.00  0.00    +0.030 C 
ATOM     17  C   UNL     1      31.291 -23.921 -13.825  0.00  0.00    +0.143 C 
ENDBRANCH   2  11
BRANCH   1  18
ATOM     18  C   UNL     1      34.366 -19.786 -21.505  0.00  0.00    -0.076 C 
BRANCH  18  19
ATOM     19  C   UNL     1      35.184 -18.502 -21.492  0.00  0.00    -0.007 C 
BRANCH  19  23
ATOM     20  O   UNL     1      34.862 -15.761 -21.135  0.00  0.00    -0.274 OA
ATOM     21  N   UNL     1      34.269 -15.322 -23.344  0.00  0.00    -0.237 N 
ATOM     22  N   UNL     1      34.101 -17.116 -24.878  0.00  0.00    -0.399 NA
ATOM     23  C   UNL     1      34.781 -17.600 -22.622  0.00  0.00    +0.123 C 
ATOM     24  C   UNL     1      34.045 -13.906 -23.034  0.00  0.00    +0.100 C 
ATOM     25  C   UNL     1      33.995 -12.991 -24.243  0.00  0.00    +0.022 C 
ATOM     26  C   UNL     1      33.995 -15.857 -24.590  0.00  0.00    +0.165 C 
ATOM     27  C   UNL     1      33.062 -13.586 -25.277  0.00  0.00    +0.011 C 
ATOM     28  C   UNL     1      33.612 -14.924 -25.724  0.00  0.00    +0.075 C 
ATOM     29  C   UNL     1      34.650 -16.148 -22.284  0.00  0.00    +0.237 C 
ATOM     30  C   UNL     1      34.499 -17.977 -23.885  0.00  0.00    +0.096 C 
ATOM     31  C   UNL     1      34.621 -19.402 -24.359  0.00  0.00    +0.062 C 
ENDBRANCH  19  23
ENDBRANCH  18  19
ENDBRANCH   1  18
TORSDOF 4
ENDMDL
MODEL 3
REMARK VINA RESULT:     -12.3      3.372     10.127
REMARK  Name = 5073
REMARK  4 active torsions:
REMARK  status: ('A' for Active; 'I' for Inactive)
REMARK    1  A    between atoms: N_1  and  C_18
REMARK    2  A    between atoms: C_2  and  C_11
REMARK    3  A    between atoms: C_18  and  C_19
REMARK    4  A    between atoms: C_19  and  C_23
REMARK                            x       y       z     vdW  Elec       q    Type
REMARK                         _______ _______ _______ _____ _____    ______ ____
ROOT
ATOM      1  N   UNL     1      34.209 -19.693 -21.129  0.00  0.00    +0.387 N 
ATOM      2  C   UNL     1      34.493 -21.860 -19.171  0.00  0.00    +0.039 C 
ATOM      3  C   UNL     1      35.692 -21.039 -19.674  0.00  0.00    -0.017 C 
ATOM      4  C   UNL     1      33.202 -21.036 -19.310  0.00  0.00    -0.017 C 
ATOM      5  C   UNL     1      35.441 -20.494 -21.082  0.00  0.00    -0.077 C 
ATOM      6  C   UNL     1      33.041 -20.491 -20.731  0.00  0.00    -0.077 C 
ATOM      7  H   UNL     1      34.308 -18.926 -20.464  0.00  0.00    -0.080 HD
ENDROOT
BRANCH   2  11
ATOM      8  F   UNL     1      31.908 -24.387 -13.502  0.00  0.00    -0.204 F 
ATOM      9  O   UNL     1      35.773 -22.987 -15.998  0.00  0.00    -0.354 OA
ATOM     10  N   UNL     1      35.931 -22.464 -17.275  0.00  0.00    -0.081 NA
ATOM     11  C   UNL     1      34.698 -22.395 -17.772  0.00  0.00    +0.100 A 
ATOM     12  C   UNL     1      33.718 -22.852 -16.879  0.00  0.00    +0.054 A 
ATOM     13  C   UNL     1      34.452 -23.219 -15.764  0.00  0.00    +0.179 A 
ATOM     14  C   UNL     1      32.324 -23.007 -16.858  0.00  0.00    +0.007 C 
ATOM     15  C   UNL     1      33.900 -23.741 -14.598  0.00  0.00    +0.070 C 
ATOM     16  C   UNL     1      31.733 -23.530 -15.698  0.00  0.00    +0.030 C 
ATOM     17  C   UNL     1      32.508 -23.890 -14.591  0.00  0.00    +0.143 C 
ENDBRANCH   2  11
BRANCH   1  18
ATOM     18  C   UNL     1      34.014 -19.132 -22.466  0.00  0.00    -0.076 C 
BRANCH  18  19
ATOM     19  C   UNL     1      35.197 -18.247 -22.833  0.00  0.00    -0.007 C 
BRANCH  19  23
ATOM     20  O   UNL     1      34.556 -17.238 -25.346  0.00  0.00    -0.274 OA
ATOM     21  N   UNL     1      34.043 -15.094 -24.596  0.00  0.00    -0.237 N 
ATOM     22  N   UNL     1      34.284 -14.581 -22.298  0.00  0.00    -0.399 NA
ATOM     23  C   UNL     1      34.759 -16.824 -23.025  0.00  0.00    +0.123 C 
ATOM     24  C   UNL     1      33.809 -14.637 -25.970  0.00  0.00    +0.100 C 
ATOM     25  C   UNL     1      33.039 -13.335 -26.083  0.00  0.00    +0.022 C 
ATOM     26  C   UNL     1      34.002 -14.233 -23.514  0.00  0.00    +0.165 C 
ATOM     27  C   UNL     1      33.656 -12.311 -25.154  0.00  0.00    +0.011 C 
ATOM     28  C   UNL     1      33.534 -12.805 -23.727  0.00  0.00    +0.075 C 
ATOM     29  C   UNL     1      34.444 -16.422 -24.432  0.00  0.00    +0.237 C 
ATOM     30  C   UNL     1      34.658 -15.883 -22.066  0.00  0.00    +0.096 C 
ATOM     31  C   UNL     1      34.918 -16.167 -20.610  0.00  0.00    +0.062 C 
ENDBRANCH  19  23
ENDBRANCH  18  19
ENDBRANCH   1  18
TORSDOF 4
ENDMDL
MODEL 4
REMARK VINA RESULT:     -12.1      2.426      4.170
REMARK  Name = 5073
REMARK  4 active torsions:
REMARK  status: ('A' for Active; 'I' for Inactive)
REMARK    1  A    between atoms: N_1  and  C_18
REMARK    2  A    between atoms: C_2  and  C_11
REMARK    3  A    between atoms: C_18  and  C_19
REMARK    4  A    between atoms: C_19  and  C_23
REMARK                            x       y       z     vdW  Elec       q    Type
REMARK                         _______ _______ _______ _____ _____    ______ ____
ROOT
ATOM      1  N   UNL     1      34.107 -22.038 -18.300  0.00  0.00    +0.387 N 
ATOM      2  C   UNL     1      34.732 -20.340 -20.611  0.00  0.00    +0.039 C 
ATOM      3  C   UNL     1      33.338 -20.371 -19.961  0.00  0.00    -0.017 C 
ATOM      4  C   UNL     1      35.795 -20.760 -19.582  0.00  0.00    -0.017 C 
ATOM      5  C   UNL     1      33.068 -21.720 -19.290  0.00  0.00    -0.077 C 
ATOM      6  C   UNL     1      35.436 -22.094 -18.925  0.00  0.00    -0.077 C 
ATOM      7  H   UNL     1      34.117 -21.291 -17.605  0.00  0.00    -0.080 HD
ENDROOT
BRANCH   2  11
ATOM      8  F   UNL     1      34.100 -16.175 -25.851  0.00  0.00    -0.204 F 
ATOM      9  O   UNL     1      35.884 -17.036 -21.469  0.00  0.00    -0.354 OA
ATOM     10  N   UNL     1      35.791 -18.125 -20.612  0.00  0.00    -0.081 NA
ATOM     11  C   UNL     1      35.042 -19.012 -21.263  0.00  0.00    +0.100 A 
ATOM     12  C   UNL     1      34.627 -18.560 -22.524  0.00  0.00    +0.054 A 
ATOM     13  C   UNL     1      35.188 -17.297 -22.609  0.00  0.00    +0.179 A 
ATOM     14  C   UNL     1      33.860 -19.038 -23.597  0.00  0.00    +0.007 C 
ATOM     15  C   UNL     1      35.046 -16.448 -23.703  0.00  0.00    +0.070 C 
ATOM     16  C   UNL     1      33.697 -18.209 -24.716  0.00  0.00    +0.030 C 
ATOM     17  C   UNL     1      34.279 -16.939 -24.765  0.00  0.00    +0.143 C 
ENDBRANCH   2  11
BRANCH   1  18
ATOM     18  C   UNL     1      33.803 -23.301 -17.628  0.00  0.00    -0.076 C 
BRANCH  18  19
ATOM     19  C   UNL     1      32.796 -23.064 -16.512  0.00  0.00    -0.007 C 
BRANCH  19  23
ATOM     20  O   UNL     1      35.448 -22.551 -15.843  0.00  0.00    -0.274 OA
ATOM     21  N   UNL     1      35.325 -23.503 -13.721  0.00  0.00    -0.237 N 
ATOM     22  N   UNL     1      33.298 -24.497 -13.011  0.00  0.00    -0.399 NA
ATOM     23  C   UNL     1      33.367 -23.464 -15.183  0.00  0.00    +0.123 C 
ATOM     24  C   UNL     1      36.755 -23.263 -13.499  0.00  0.00    +0.100 C 
ATOM     25  C   UNL     1      37.195 -23.347 -12.049  0.00  0.00    +0.022 C 
ATOM     26  C   UNL     1      34.542 -24.193 -12.813  0.00  0.00    +0.165 C 
ATOM     27  C   UNL     1      36.646 -24.620 -11.437  0.00  0.00    +0.011 C 
ATOM     28  C   UNL     1      35.132 -24.567 -11.466  0.00  0.00    +0.075 C 
ATOM     29  C   UNL     1      34.807 -23.120 -14.960  0.00  0.00    +0.237 C 
ATOM     30  C   UNL     1      32.721 -24.122 -14.201  0.00  0.00    +0.096 C 
ATOM     31  C   UNL     1      31.265 -24.498 -14.289  0.00  0.00    +0.062 C 
ENDBRANCH  19  23
ENDBRANCH  18  19
ENDBRANCH   1  18
TORSDOF 4
ENDMDL
MODEL 5
REMARK VINA RESULT:     -11.8      4.307     10.304
REMARK  Name = 5073
REMARK  4 active torsions:
REMARK  status: ('A' for Active; 'I' for Inactive)
REMARK    1  A    between atoms: N_1  and  C_18
REMARK    2  A    between atoms: C_2  and  C_11
REMARK    3  A    between atoms: C_18  and  C_19
REMARK    4  A    between atoms: C_19  and  C_23
REMARK                            x       y       z     vdW  Elec       q    Type
REMARK                         _______ _______ _______ _____ _____    ______ ____
ROOT
ATOM      1  N   UNL     1      34.974 -15.374 -23.126  0.00  0.00    +0.387 N 
ATOM      2  C   UNL     1      34.713 -17.896 -21.648  0.00  0.00    +0.039 C 
ATOM      3  C   UNL     1      35.259 -17.833 -23.085  0.00  0.00    -0.017 C 
ATOM      4  C   UNL     1      34.936 -16.546 -20.946  0.00  0.00    -0.017 C 
ATOM      5  C   UNL     1      34.695 -16.628 -23.841  0.00  0.00    -0.077 C 
ATOM      6  C   UNL     1      34.384 -15.388 -21.781  0.00  0.00    -0.077 C 
ATOM      7  H   UNL     1      35.986 -15.289 -23.026  0.00  0.00    -0.080 HD
ENDROOT
BRANCH   2  11
ATOM      8  F   UNL     1      33.677 -23.572 -18.195  0.00  0.00    -0.204 F 
ATOM      9  O   UNL     1      36.759 -20.316 -19.935  0.00  0.00    -0.354 OA
ATOM     10  N   UNL     1      36.584 -19.156 -20.679  0.00  0.00    -0.081 NA
ATOM     11  C   UNL     1      35.269 -19.062 -20.864  0.00  0.00    +0.100 A 
ATOM     12  C   UNL     1      34.554 -20.114 -20.273  0.00  0.00    +0.054 A 
ATOM     13  C   UNL     1      35.547 -20.887 -19.694  0.00  0.00    +0.179 A 
ATOM     14  C   UNL     1      33.217 -20.520 -20.148  0.00  0.00    +0.007 C 
ATOM     15  C   UNL     1      35.314 -22.060 -18.983  0.00  0.00    +0.070 C 
ATOM     16  C   UNL     1      32.945 -21.697 -19.437  0.00  0.00    +0.030 C 
ATOM     17  C   UNL     1      33.976 -22.452 -18.867  0.00  0.00    +0.143 C 
ENDBRANCH   2  11
BRANCH   1  18
ATOM     18  C   UNL     1      34.480 -14.229 -23.890  0.00  0.00    -0.076 C 
BRANCH  18  19
ATOM     19  C   UNL     1      33.083 -13.855 -23.416  0.00  0.00    -0.007 C 
BRANCH  19  23
ATOM     20  O   UNL     1      31.854 -12.998 -21.070  0.00  0.00    -0.274 OA
ATOM     21  N   UNL     1      32.267 -10.733 -21.424  0.00  0.00    -0.237 N 
ATOM     22  N   UNL     1      33.364 -10.050 -23.406  0.00  0.00    -0.399 NA
ATOM     23  C   UNL     1      33.015 -12.403 -23.045  0.00  0.00    +0.123 C 
ATOM     24  C   UNL     1      31.525 -10.378 -20.210  0.00  0.00    +0.100 C 
ATOM     25  C   UNL     1      31.785  -8.976 -19.694  0.00  0.00    +0.022 C 
ATOM     26  C   UNL     1      32.776  -9.777 -22.284  0.00  0.00    +0.165 C 
ATOM     27  C   UNL     1      31.663  -7.995 -20.841  0.00  0.00    +0.011 C 
ATOM     28  C   UNL     1      32.718  -8.316 -21.879  0.00  0.00    +0.075 C 
ATOM     29  C   UNL     1      32.327 -12.090 -21.753  0.00  0.00    +0.237 C 
ATOM     30  C   UNL     1      33.480 -11.369 -23.774  0.00  0.00    +0.096 C 
ATOM     31  C   UNL     1      34.216 -11.552 -25.075  0.00  0.00    +0.062 C 
ENDBRANCH  19  23
ENDBRANCH  18  19
ENDBRANCH   1  18
TORSDOF 4
ENDMDL
MODEL 6
REMARK VINA RESULT:     -11.7      3.550     10.295
REMARK  Name = 5073
REMARK  4 active torsions:
REMARK  status: ('A' for Active; 'I' for Inactive)
REMARK    1  A    between atoms: N_1  and  C_18
REMARK    2  A    between atoms: C_2  and  C_11
REMARK    3  A    between atoms: C_18  and  C_19
REMARK    4  A    between atoms: C_19  and  C_23
REMARK                            x       y       z     vdW  Elec       q    Type
REMARK                         _______ _______ _______ _____ _____    ______ ____
ROOT
ATOM      1  N   UNL     1      34.499 -20.215 -20.232  0.00  0.00    +0.387 N 
ATOM      2  C   UNL     1      34.195 -22.406 -18.304  0.00  0.00    +0.039 C 
ATOM      3  C   UNL     1      35.527 -21.665 -18.509  0.00  0.00    -0.017 C 
ATOM      4  C   UNL     1      33.024 -21.496 -18.712  0.00  0.00    -0.017 C 
ATOM      5  C   UNL     1      35.634 -21.097 -19.926  0.00  0.00    -0.077 C 
ATOM      6  C   UNL     1      33.223 -20.935 -20.122  0.00  0.00    -0.077 C 
ATOM      7  H   UNL     1      34.495 -19.460 -19.546  0.00  0.00    -0.080 HD
ENDROOT
BRANCH   2  11
ATOM      8  F   UNL     1      36.917 -23.867 -12.331  0.00  0.00    -0.204 F 
ATOM      9  O   UNL     1      33.060 -23.848 -15.204  0.00  0.00    -0.354 OA
ATOM     10  N   UNL     1      32.860 -23.421 -16.510  0.00  0.00    -0.081 NA
ATOM     11  C   UNL     1      34.045 -22.960 -16.905  0.00  0.00    +0.100 A 
ATOM     12  C   UNL     1      35.032 -23.060 -15.914  0.00  0.00    +0.054 A 
ATOM     13  C   UNL     1      34.356 -23.631 -14.849  0.00  0.00    +0.179 A 
ATOM     14  C   UNL     1      36.392 -22.748 -15.769  0.00  0.00    +0.007 C 
ATOM     15  C   UNL     1      34.936 -23.926 -13.619  0.00  0.00    +0.070 C 
ATOM     16  C   UNL     1      37.009 -23.033 -14.542  0.00  0.00    +0.030 C 
ATOM     17  C   UNL     1      36.293 -23.610 -13.489  0.00  0.00    +0.143 C 
ENDBRANCH   2  11
BRANCH   1  18
ATOM     18  C   UNL     1      34.646 -19.636 -21.567  0.00  0.00    -0.076 C 
BRANCH  18  19
ATOM     19  C   UNL     1      35.222 -18.231 -21.461  0.00  0.00    -0.007 C 
BRANCH  19  23
ATOM     20  O   UNL     1      34.840 -15.485 -21.219  0.00  0.00    -0.274 OA
ATOM     21  N   UNL     1      34.223 -15.155 -23.441  0.00  0.00    -0.237 N 
ATOM     22  N   UNL     1      34.087 -17.016 -24.895  0.00  0.00    -0.399 NA
ATOM     23  C   UNL     1      34.791 -17.388 -22.626  0.00  0.00    +0.123 C 
ATOM     24  C   UNL     1      33.969 -13.732 -23.189  0.00  0.00    +0.100 C 
ATOM     25  C   UNL     1      33.891 -12.871 -24.436  0.00  0.00    +0.022 C 
ATOM     26  C   UNL     1      33.954 -15.749 -24.661  0.00  0.00    +0.165 C 
ATOM     27  C   UNL     1      32.965 -13.531 -25.437  0.00  0.00    +0.011 C 
ATOM     28  C   UNL     1      33.543 -14.875 -25.831  0.00  0.00    +0.075 C 
ATOM     29  C   UNL     1      34.629 -15.925 -22.349  0.00  0.00    +0.237 C 
ATOM     30  C   UNL     1      34.511 -17.825 -23.869  0.00  0.00    +0.096 C 
ATOM     31  C   UNL     1      34.662 -19.266 -24.282  0.00  0.00    +0.062 C 
ENDBRANCH  19  23
ENDBRANCH  18  19
ENDBRANCH   1  18
TORSDOF 4
ENDMDL
MODEL 7
REMARK VINA RESULT:     -11.7      1.715      2.469
REMARK  Name = 5073
REMARK  4 active torsions:
REMARK  status: ('A' for Active; 'I' for Inactive)
REMARK    1  A    between atoms: N_1  and  C_18
REMARK    2  A    between atoms: C_2  and  C_11
REMARK    3  A    between atoms: C_18  and  C_19
REMARK    4  A    between atoms: C_19  and  C_23
REMARK                            x       y       z     vdW  Elec       q    Type
REMARK                         _______ _______ _______ _____ _____    ______ ____
ROOT
ATOM      1  N   UNL     1      34.567 -22.022 -19.616  0.00  0.00    +0.387 N 
ATOM      2  C   UNL     1      34.779 -19.302 -20.695  0.00  0.00    +0.039 C 
ATOM      3  C   UNL     1      35.971 -20.274 -20.666  0.00  0.00    -0.017 C 
ATOM      4  C   UNL     1      33.461 -20.093 -20.703  0.00  0.00    -0.017 C 
ATOM      5  C   UNL     1      35.835 -21.284 -19.524  0.00  0.00    -0.077 C 
ATOM      6  C   UNL     1      33.417 -21.109 -19.559  0.00  0.00    -0.077 C 
ATOM      7  H   UNL     1      34.547 -22.500 -20.516  0.00  0.00    -0.080 HD
ENDROOT
BRANCH   2  11
ATOM      8  F   UNL     1      34.453 -12.940 -22.847  0.00  0.00    -0.204 F 
ATOM      9  O   UNL     1      35.148 -17.592 -23.845  0.00  0.00    -0.354 OA
ATOM     10  N   UNL     1      35.136 -18.737 -23.058  0.00  0.00    -0.081 NA
ATOM     11  C   UNL     1      34.869 -18.304 -21.828  0.00  0.00    +0.100 A 
ATOM     12  C   UNL     1      34.701 -16.914 -21.758  0.00  0.00    +0.054 A 
ATOM     13  C   UNL     1      34.888 -16.506 -23.068  0.00  0.00    +0.179 A 
ATOM     14  C   UNL     1      34.419 -15.950 -20.779  0.00  0.00    +0.007 C 
ATOM     15  C   UNL     1      34.818 -15.183 -23.496  0.00  0.00    +0.070 C 
ATOM     16  C   UNL     1      34.340 -14.607 -21.174  0.00  0.00    +0.030 C 
ATOM     17  C   UNL     1      34.536 -14.233 -22.508  0.00  0.00    +0.143 C 
ENDBRANCH   2  11
BRANCH   1  18
ATOM     18  C   UNL     1      34.480 -23.022 -18.551  0.00  0.00    -0.076 C 
BRANCH  18  19
ATOM     19  C   UNL     1      34.627 -22.347 -17.195  0.00  0.00    -0.007 C 
BRANCH  19  23
ATOM     20  O   UNL     1      31.849 -22.486 -17.127  0.00  0.00    -0.274 OA
ATOM     21  N   UNL     1      31.745 -23.827 -15.225  0.00  0.00    -0.237 N 
ATOM     22  N   UNL     1      33.750 -24.449 -14.133  0.00  0.00    -0.399 NA
ATOM     23  C   UNL     1      33.901 -23.119 -16.132  0.00  0.00    +0.123 C 
ATOM     24  C   UNL     1      30.279 -23.769 -15.228  0.00  0.00    +0.100 C 
ATOM     25  C   UNL     1      29.600 -24.829 -14.381  0.00  0.00    +0.022 C 
ATOM     26  C   UNL     1      32.458 -24.448 -14.215  0.00  0.00    +0.165 C 
ATOM     27  C   UNL     1      30.247 -24.859 -13.012  0.00  0.00    +0.011 C 
ATOM     28  C   UNL     1      31.704 -25.243 -13.164  0.00  0.00    +0.075 C 
ATOM     29  C   UNL     1      32.407 -23.109 -16.223  0.00  0.00    +0.237 C 
ATOM     30  C   UNL     1      34.462 -23.783 -15.102  0.00  0.00    +0.096 C 
ATOM     31  C   UNL     1      35.952 -23.893 -14.915  0.00  0.00    +0.062 C 
ENDBRANCH  19  23
ENDBRANCH  18  19
ENDBRANCH   1  18
TORSDOF 4
ENDMDL
MODEL 8
REMARK VINA RESULT:     -11.7      3.331     10.031
REMARK  Name = 5073
REMARK  4 active torsions:
REMARK  status: ('A' for Active; 'I' for Inactive)
REMARK    1  A    between atoms: N_1  and  C_18
REMARK    2  A    between atoms: C_2  and  C_11
REMARK    3  A    between atoms: C_18  and  C_19
REMARK    4  A    between atoms: C_19  and  C_23
REMARK                            x       y       z     vdW  Elec       q    Type
REMARK                         _______ _______ _______ _____ _____    ______ ____
ROOT
ATOM      1  N   UNL     1      34.157 -19.596 -21.183  0.00  0.00    +0.387 N 
ATOM      2  C   UNL     1      34.161 -21.807 -19.254  0.00  0.00    +0.039 C 
ATOM      3  C   UNL     1      35.437 -21.035 -19.628  0.00  0.00    -0.017 C 
ATOM      4  C   UNL     1      32.927 -20.921 -19.492  0.00  0.00    -0.017 C 
ATOM      5  C   UNL     1      35.341 -20.455 -21.041  0.00  0.00    -0.077 C 
ATOM      6  C   UNL     1      32.923 -20.345 -20.910  0.00  0.00    -0.077 C 
ATOM      7  H   UNL     1      34.229 -18.846 -20.495  0.00  0.00    -0.080 HD
ENDROOT
BRANCH   2  11
ATOM      8  F   UNL     1      37.672 -23.184 -13.687  0.00  0.00    -0.204 F 
ATOM      9  O   UNL     1      33.485 -23.311 -16.051  0.00  0.00    -0.354 OA
ATOM     10  N   UNL     1      33.105 -22.886 -17.317  0.00  0.00    -0.081 NA
ATOM     11  C   UNL     1      34.211 -22.374 -17.853  0.00  0.00    +0.100 A 
ATOM     12  C   UNL     1      35.318 -22.438 -16.995  0.00  0.00    +0.054 A 
ATOM     13  C   UNL     1      34.806 -23.042 -15.860  0.00  0.00    +0.179 A 
ATOM     14  C   UNL     1      36.672 -22.071 -17.019  0.00  0.00    +0.007 C 
ATOM     15  C   UNL     1      35.548 -23.319 -14.716  0.00  0.00    +0.070 C 
ATOM     16  C   UNL     1      37.451 -22.336 -15.883  0.00  0.00    +0.030 C 
ATOM     17  C   UNL     1      36.897 -22.948 -14.754  0.00  0.00    +0.143 C 
ENDBRANCH   2  11
BRANCH   1  18
ATOM     18  C   UNL     1      34.112 -19.004 -22.520  0.00  0.00    -0.076 C 
BRANCH  18  19
ATOM     19  C   UNL     1      35.278 -18.043 -22.700  0.00  0.00    -0.007 C 
BRANCH  19  23
ATOM     20  O   UNL     1      34.717 -17.101 -25.257  0.00  0.00    -0.274 OA
ATOM     21  N   UNL     1      34.072 -14.971 -24.567  0.00  0.00    -0.237 N 
ATOM     22  N   UNL     1      34.177 -14.415 -22.270  0.00  0.00    -0.399 NA
ATOM     23  C   UNL     1      34.787 -16.645 -22.936  0.00  0.00    +0.123 C 
ATOM     24  C   UNL     1      33.885 -14.545 -25.958  0.00  0.00    +0.100 C 
ATOM     25  C   UNL     1      33.063 -13.281 -26.130  0.00  0.00    +0.022 C 
ATOM     26  C   UNL     1      33.939 -14.098 -23.503  0.00  0.00    +0.165 C 
ATOM     27  C   UNL     1      33.588 -12.217 -25.188  0.00  0.00    +0.011 C 
ATOM     28  C   UNL     1      33.419 -12.696 -23.761  0.00  0.00    +0.075 C 
ATOM     29  C   UNL     1      34.523 -16.278 -24.363  0.00  0.00    +0.237 C 
ATOM     30  C   UNL     1      34.597 -15.695 -21.999  0.00  0.00    +0.096 C 
ATOM     31  C   UNL     1      34.799 -15.947 -20.528  0.00  0.00    +0.062 C 
ENDBRANCH  19  23
ENDBRANCH  18  19
ENDBRANCH   1  18
TORSDOF 4
ENDMDL
MODEL 9
REMARK VINA RESULT:     -11.6      2.606      3.873
REMARK  Name = 5073
REMARK  4 active torsions:
REMARK  status: ('A' for Active; 'I' for Inactive)
REMARK    1  A    between atoms: N_1  and  C_18
REMARK    2  A    between atoms: C_2  and  C_11
REMARK    3  A    between atoms: C_18  and  C_19
REMARK    4  A    between atoms: C_19  and  C_23
REMARK                            x       y       z     vdW  Elec       q    Type
REMARK                         _______ _______ _______ _____ _____    ______ ____
ROOT
ATOM      1  N   UNL     1      34.680 -22.146 -19.101  0.00  0.00    +0.387 N 
ATOM      2  C   UNL     1      34.696 -19.634 -20.618  0.00  0.00    +0.039 C 
ATOM      3  C   UNL     1      35.950 -20.509 -20.455  0.00  0.00    -0.017 C 
ATOM      4  C   UNL     1      33.434 -20.499 -20.466  0.00  0.00    -0.017 C 
ATOM      5  C   UNL     1      35.896 -21.322 -19.160  0.00  0.00    -0.077 C 
ATOM      6  C   UNL     1      33.471 -21.312 -19.170  0.00  0.00    -0.077 C 
ATOM      7  H   UNL     1      34.681 -22.766 -19.910  0.00  0.00    -0.080 HD
ENDROOT
BRANCH   2  11
ATOM      8  F   UNL     1      34.624 -13.672 -23.726  0.00  0.00    -0.204 F 
ATOM      9  O   UNL     1      34.746 -18.470 -24.027  0.00  0.00    -0.354 OA
ATOM     10  N   UNL     1      34.749 -19.474 -23.068  0.00  0.00    -0.081 NA
ATOM     11  C   UNL     1      34.706 -18.834 -21.901  0.00  0.00    +0.100 A 
ATOM     12  C   UNL     1      34.675 -17.439 -22.040  0.00  0.00    +0.054 A 
ATOM     13  C   UNL     1      34.702 -17.256 -23.412  0.00  0.00    +0.179 A 
ATOM     14  C   UNL     1      34.628 -16.314 -21.204  0.00  0.00    +0.007 C 
ATOM     15  C   UNL     1      34.688 -16.013 -24.038  0.00  0.00    +0.070 C 
ATOM     16  C   UNL     1      34.611 -15.045 -21.801  0.00  0.00    +0.030 C 
ATOM     17  C   UNL     1      34.641 -14.900 -23.192  0.00  0.00    +0.143 C 
ENDBRANCH   2  11
BRANCH   1  18
ATOM     18  C   UNL     1      34.671 -22.959 -17.885  0.00  0.00    -0.076 C 
BRANCH  18  19
ATOM     19  C   UNL     1      35.219 -22.149 -16.718  0.00  0.00    -0.007 C 
BRANCH  19  23
ATOM     20  O   UNL     1      37.773 -22.983 -15.992  0.00  0.00    -0.274 OA
ATOM     21  N   UNL     1      37.081 -24.213 -14.139  0.00  0.00    -0.237 N 
ATOM     22  N   UNL     1      34.773 -24.360 -13.640  0.00  0.00    -0.399 NA
ATOM     23  C   UNL     1      35.453 -23.026 -15.522  0.00  0.00    +0.123 C 
ATOM     24  C   UNL     1      38.454 -24.665 -13.890  0.00  0.00    +0.100 C 
ATOM     25  C   UNL     1      38.694 -25.234 -12.504  0.00  0.00    +0.022 C 
ATOM     26  C   UNL     1      36.007 -24.671 -13.398  0.00  0.00    +0.165 C 
ATOM     27  C   UNL     1      37.610 -26.242 -12.187  0.00  0.00    +0.011 C 
ATOM     28  C   UNL     1      36.269 -25.537 -12.179  0.00  0.00    +0.075 C 
ATOM     29  C   UNL     1      36.879 -23.392 -15.251  0.00  0.00    +0.237 C 
ATOM     30  C   UNL     1      34.510 -23.532 -14.704  0.00  0.00    +0.096 C 
ATOM     31  C   UNL     1      33.044 -23.216 -14.852  0.00  0.00    +0.062 C 
ENDBRANCH  19  23
ENDBRANCH  18  19
ENDBRANCH   1  18
TORSDOF 4
ENDMDL
