MODEL 1
REMARK VINA RESULT:     -12.0      0.000      0.000
REMARK  Name = 60870
REMARK  7 active torsions:
REMARK  status: ('A' for Active; 'I' for Inactive)
REMARK    1  A    between atoms: C_2  and  C_4
REMARK    2  A    between atoms: C_2  and  C_18
REMARK    3  A    between atoms: C_3  and  C_9
REMARK    4  A    between atoms: C_9  and  C_14
REMARK    5  A    between atoms: C_18  and  C_19
REMARK    6  A    between atoms: C_19  and  C_22
REMARK    7  A    between atoms: C_24  and  C_26
REMARK                            x       y       z     vdW  Elec       q    Type
REMARK                         _______ _______ _______ _____ _____    ______ ____
ROOT
ATOM      1  O   UNL     1      34.097 -19.417 -22.520  0.00  0.00    -0.291 OA
ATOM      2  C   UNL     1      34.544 -19.317 -21.359  0.00  0.00    +0.173 C 
ENDROOT
BRANCH   2   4
ATOM      3  C   UNL     1      33.788 -22.326 -18.486  0.00  0.00    -0.021 C 
ATOM      4  C   UNL     1      34.284 -20.352 -20.370  0.00  0.00    +0.035 C 
ATOM      5  C   UNL     1      35.096 -22.045 -18.850  0.00  0.00    -0.004 C 
ATOM      6  C   UNL     1      32.723 -21.637 -19.047  0.00  0.00    -0.004 C 
ATOM      7  C   UNL     1      35.346 -21.052 -19.798  0.00  0.00    +0.003 C 
ATOM      8  C   UNL     1      32.973 -20.643 -19.995  0.00  0.00    +0.003 C 
BRANCH   3   9
ATOM      9  C   UNL     1      33.518 -23.399 -17.462  0.00  0.00    +0.047 C 
BRANCH   9  14
ATOM     10  S   UNL     1      34.055 -23.533 -14.764  0.00  0.00    -0.048 S 
ATOM     11  O   UNL     1      30.711 -22.837 -16.561  0.00  0.00    -0.274 OA
ATOM     12  O   UNL     1      32.703 -24.680 -12.824  0.00  0.00    -0.263 OA
ATOM     13  N   UNL     1      31.519 -23.797 -14.618  0.00  0.00    -0.246 N 
ATOM     14  C   UNL     1      33.089 -22.814 -16.128  0.00  0.00    +0.137 C 
ATOM     15  C   UNL     1      31.643 -23.136 -15.823  0.00  0.00    +0.239 C 
ATOM     16  C   UNL     1      32.644 -24.101 -13.898  0.00  0.00    +0.279 C 
ATOM     17  H   UNL     1      30.630 -24.047 -14.279  0.00  0.00    +0.158 HD
ENDBRANCH   9  14
ENDBRANCH   3   9
ENDBRANCH   2   4
BRANCH   2  18
ATOM     18  C   UNL     1      35.382 -18.082 -20.978  0.00  0.00    +0.076 C 
BRANCH  18  19
ATOM     19  C   UNL     1      35.864 -17.275 -22.186  0.00  0.00    +0.066 C 
BRANCH  19  22
ATOM     20  O   UNL     1      33.587 -14.783 -23.578  0.00  0.00    -0.449 OA
ATOM     21  N   UNL     1      34.534 -15.279 -21.584  0.00  0.00    -0.373 NA
ATOM     22  C   UNL     1      34.924 -16.161 -22.539  0.00  0.00    +0.130 C 
ATOM     23  C   UNL     1      34.371 -15.885 -23.743  0.00  0.00    +0.216 C 
ATOM     24  C   UNL     1      33.738 -14.480 -22.260  0.00  0.00    +0.277 C 
ATOM     25  C   UNL     1      34.424 -16.470 -25.087  0.00  0.00    +0.055 C 
BRANCH  24  26
ATOM     26  C   UNL     1      33.002 -13.332 -21.808  0.00  0.00    +0.066 C 
ATOM     27  C   UNL     1      32.949 -12.176 -22.592  0.00  0.00    +0.006 C 
ATOM     28  C   UNL     1      32.336 -13.364 -20.579  0.00  0.00    +0.006 C 
ATOM     29  C   UNL     1      32.236 -11.061 -22.152  0.00  0.00    +0.000 C 
ATOM     30  C   UNL     1      31.622 -12.249 -20.139  0.00  0.00    +0.000 C 
ATOM     31  C   UNL     1      31.573 -11.097 -20.926  0.00  0.00    +0.000 C 
ENDBRANCH  24  26
ENDBRANCH  19  22
ENDBRANCH  18  19
ENDBRANCH   2  18
TORSDOF 7
ENDMDL
MODEL 2
REMARK VINA RESULT:     -12.0      4.907     11.571
REMARK  Name = 60870
REMARK  7 active torsions:
REMARK  status: ('A' for Active; 'I' for Inactive)
REMARK    1  A    between atoms: C_2  and  C_4
REMARK    2  A    between atoms: C_2  and  C_18
REMARK    3  A    between atoms: C_3  and  C_9
REMARK    4  A    between atoms: C_9  and  C_14
REMARK    5  A    between atoms: C_18  and  C_19
REMARK    6  A    between atoms: C_19  and  C_22
REMARK    7  A    between atoms: C_24  and  C_26
REMARK                            x       y       z     vdW  Elec       q    Type
REMARK                         _______ _______ _______ _____ _____    ______ ____
ROOT
ATOM      1  O   UNL     1      33.119 -14.694 -24.401  0.00  0.00    -0.291 OA
ATOM      2  C   UNL     1      33.567 -14.120 -23.387  0.00  0.00    +0.173 C 
ENDROOT
BRANCH   2   4
ATOM      3  C   UNL     1      33.134  -9.943 -22.895  0.00  0.00    -0.021 C 
ATOM      4  C   UNL     1      33.417 -12.683 -23.219  0.00  0.00    +0.035 C 
ATOM      5  C   UNL     1      34.010 -10.429 -23.854  0.00  0.00    -0.004 C 
ATOM      6  C   UNL     1      32.396 -10.803 -22.096  0.00  0.00    -0.004 C 
ATOM      7  C   UNL     1      34.152 -11.808 -24.017  0.00  0.00    +0.003 C 
ATOM      8  C   UNL     1      32.539 -12.182 -22.258  0.00  0.00    +0.003 C 
BRANCH   3   9
ATOM      9  C   UNL     1      32.979  -8.454 -22.720  0.00  0.00    +0.047 C 
BRANCH   9  14
ATOM     10  S   UNL     1      30.641  -7.001 -22.822  0.00  0.00    -0.048 S 
ATOM     11  O   UNL     1      32.906  -7.783 -19.797  0.00  0.00    -0.274 OA
ATOM     12  O   UNL     1      30.021  -4.712 -21.687  0.00  0.00    -0.263 OA
ATOM     13  N   UNL     1      31.482  -6.134 -20.571  0.00  0.00    -0.246 N 
ATOM     14  C   UNL     1      31.753  -8.104 -21.896  0.00  0.00    +0.137 C 
ATOM     15  C   UNL     1      32.128  -7.350 -20.640  0.00  0.00    +0.239 C 
ATOM     16  C   UNL     1      30.657  -5.751 -21.596  0.00  0.00    +0.279 C 
ATOM     17  H   UNL     1      31.613  -5.545 -19.793  0.00  0.00    +0.158 HD
ENDBRANCH   9  14
ENDBRANCH   3   9
ENDBRANCH   2   4
BRANCH   2  18
ATOM     18  C   UNL     1      34.283 -14.951 -22.306  0.00  0.00    +0.076 C 
BRANCH  18  19
ATOM     19  C   UNL     1      35.273 -15.971 -22.875  0.00  0.00    +0.066 C 
BRANCH  19  22
ATOM     20  O   UNL     1      34.126 -19.428 -22.625  0.00  0.00    -0.449 OA
ATOM     21  N   UNL     1      35.155 -17.892 -21.322  0.00  0.00    -0.373 NA
ATOM     22  C   UNL     1      34.886 -17.383 -22.551  0.00  0.00    +0.130 C 
ATOM     23  C   UNL     1      34.269 -18.284 -23.351  0.00  0.00    +0.216 C 
ATOM     24  C   UNL     1      34.679 -19.113 -21.423  0.00  0.00    +0.277 C 
ATOM     25  C   UNL     1      33.760 -18.299 -24.727  0.00  0.00    +0.055 C 
BRANCH  24  26
ATOM     26  C   UNL     1      34.661 -20.167 -20.446  0.00  0.00    +0.066 C 
ATOM     27  C   UNL     1      33.445 -20.686 -19.994  0.00  0.00    +0.006 C 
ATOM     28  C   UNL     1      35.860 -20.678 -19.941  0.00  0.00    +0.006 C 
ATOM     29  C   UNL     1      33.427 -21.708 -19.044  0.00  0.00    +0.000 C 
ATOM     30  C   UNL     1      35.843 -21.700 -18.992  0.00  0.00    +0.000 C 
ATOM     31  C   UNL     1      34.626 -22.215 -18.544  0.00  0.00    +0.000 C 
ENDBRANCH  24  26
ENDBRANCH  19  22
ENDBRANCH  18  19
ENDBRANCH   2  18
TORSDOF 7
ENDMDL
MODEL 3
REMARK VINA RESULT:     -12.0      3.409     11.216
REMARK  Name = 60870
REMARK  7 active torsions:
REMARK  status: ('A' for Active; 'I' for Inactive)
REMARK    1  A    between atoms: C_2  and  C_4
REMARK    2  A    between atoms: C_2  and  C_18
REMARK    3  A    between atoms: C_3  and  C_9
REMARK    4  A    between atoms: C_9  and  C_14
REMARK    5  A    between atoms: C_18  and  C_19
REMARK    6  A    between atoms: C_19  and  C_22
REMARK    7  A    between atoms: C_24  and  C_26
REMARK                            x       y       z     vdW  Elec       q    Type
REMARK                         _______ _______ _______ _____ _____    ______ ____
ROOT
ATOM      1  O   UNL     1      33.487 -24.188 -18.206  0.00  0.00    -0.291 OA
ATOM      2  C   UNL     1      33.354 -22.966 -17.989  0.00  0.00    +0.173 C 
ENDROOT
BRANCH   2   4
ATOM      3  C   UNL     1      35.002 -20.105 -20.629  0.00  0.00    -0.021 C 
ATOM      4  C   UNL     1      33.921 -21.982 -18.898  0.00  0.00    +0.035 C 
ATOM      5  C   UNL     1      35.849 -20.929 -19.903  0.00  0.00    -0.004 C 
ATOM      6  C   UNL     1      33.625 -20.203 -20.505  0.00  0.00    -0.004 C 
ATOM      7  C   UNL     1      35.305 -21.874 -19.032  0.00  0.00    +0.003 C 
ATOM      8  C   UNL     1      33.081 -21.148 -19.634  0.00  0.00    +0.003 C 
BRANCH   3   9
ATOM      9  C   UNL     1      35.590 -19.085 -21.571  0.00  0.00    +0.047 C 
BRANCH   9  14
ATOM     10  S   UNL     1      34.410 -18.510 -23.993  0.00  0.00    -0.048 S 
ATOM     11  O   UNL     1      35.034 -16.199 -20.965  0.00  0.00    -0.274 OA
ATOM     12  O   UNL     1      34.705 -16.425 -25.566  0.00  0.00    -0.263 OA
ATOM     13  N   UNL     1      34.893 -16.107 -23.271  0.00  0.00    -0.246 N 
ATOM     14  C   UNL     1      34.520 -18.211 -22.201  0.00  0.00    +0.137 C 
ATOM     15  C   UNL     1      34.845 -16.742 -22.048  0.00  0.00    +0.239 C 
ATOM     16  C   UNL     1      34.692 -16.834 -24.415  0.00  0.00    +0.279 C 
ATOM     17  H   UNL     1      35.070 -15.141 -23.322  0.00  0.00    +0.158 HD
ENDBRANCH   9  14
ENDBRANCH   3   9
ENDBRANCH   2   4
BRANCH   2  18
ATOM     18  C   UNL     1      32.577 -22.503 -16.742  0.00  0.00    +0.076 C 
BRANCH  18  19
ATOM     19  C   UNL     1      31.915 -23.651 -15.974  0.00  0.00    +0.066 C 
BRANCH  19  22
ATOM     20  O   UNL     1      33.182 -24.588 -12.680  0.00  0.00    -0.449 OA
ATOM     21  N   UNL     1      34.002 -23.883 -14.666  0.00  0.00    -0.373 NA
ATOM     22  C   UNL     1      32.650 -23.988 -14.710  0.00  0.00    +0.130 C 
ATOM     23  C   UNL     1      32.134 -24.408 -13.532  0.00  0.00    +0.216 C 
ATOM     24  C   UNL     1      34.264 -24.252 -13.433  0.00  0.00    +0.277 C 
ATOM     25  C   UNL     1      30.793 -24.694 -13.009  0.00  0.00    +0.055 C 
BRANCH  24  26
ATOM     26  C   UNL     1      35.531 -24.354 -12.762  0.00  0.00    +0.066 C 
ATOM     27  C   UNL     1      35.858 -23.465 -11.735  0.00  0.00    +0.006 C 
ATOM     28  C   UNL     1      36.445 -25.344 -13.136  0.00  0.00    +0.006 C 
ATOM     29  C   UNL     1      37.089 -23.564 -11.086  0.00  0.00    +0.000 C 
ATOM     30  C   UNL     1      37.676 -25.443 -12.486  0.00  0.00    +0.000 C 
ATOM     31  C   UNL     1      37.997 -24.553 -11.461  0.00  0.00    +0.000 C 
ENDBRANCH  24  26
ENDBRANCH  19  22
ENDBRANCH  18  19
ENDBRANCH   2  18
TORSDOF 7
ENDMDL
MODEL 4
REMARK VINA RESULT:     -11.7      3.446      6.141
REMARK  Name = 60870
REMARK  7 active torsions:
REMARK  status: ('A' for Active; 'I' for Inactive)
REMARK    1  A    between atoms: C_2  and  C_4
REMARK    2  A    between atoms: C_2  and  C_18
REMARK    3  A    between atoms: C_3  and  C_9
REMARK    4  A    between atoms: C_9  and  C_14
REMARK    5  A    between atoms: C_18  and  C_19
REMARK    6  A    between atoms: C_19  and  C_22
REMARK    7  A    between atoms: C_24  and  C_26
REMARK                            x       y       z     vdW  Elec       q    Type
REMARK                         _______ _______ _______ _____ _____    ______ ____
ROOT
ATOM      1  O   UNL     1      32.182 -23.230 -16.657  0.00  0.00    -0.291 OA
ATOM      2  C   UNL     1      33.402 -23.057 -16.856  0.00  0.00    +0.173 C 
ENDROOT
BRANCH   2   4
ATOM      3  C   UNL     1      36.165 -23.264 -13.662  0.00  0.00    -0.021 C 
ATOM      4  C   UNL     1      34.352 -23.127 -15.756  0.00  0.00    +0.035 C 
ATOM      5  C   UNL     1      36.557 -22.699 -14.866  0.00  0.00    -0.004 C 
ATOM      6  C   UNL     1      34.883 -23.762 -13.487  0.00  0.00    -0.004 C 
ATOM      7  C   UNL     1      35.645 -22.630 -15.920  0.00  0.00    +0.003 C 
ATOM      8  C   UNL     1      33.970 -23.693 -14.540  0.00  0.00    +0.003 C 
BRANCH   3   9
ATOM      9  C   UNL     1      37.150 -23.337 -12.523  0.00  0.00    +0.047 C 
BRANCH   9  14
ATOM     10  S   UNL     1      38.369 -25.210 -14.133  0.00  0.00    -0.048 S 
ATOM     11  O   UNL     1      36.373 -25.718 -10.870  0.00  0.00    -0.274 OA
ATOM     12  O   UNL     1      37.509 -27.556 -14.951  0.00  0.00    -0.263 OA
ATOM     13  N   UNL     1      36.837 -26.806 -12.856  0.00  0.00    -0.246 N 
ATOM     14  C   UNL     1      37.857 -24.680 -12.470  0.00  0.00    +0.137 C 
ATOM     15  C   UNL     1      36.940 -25.767 -11.955  0.00  0.00    +0.239 C 
ATOM     16  C   UNL     1      37.501 -26.728 -14.052  0.00  0.00    +0.279 C 
ATOM     17  H   UNL     1      36.292 -27.597 -12.642  0.00  0.00    +0.158 HD
ENDBRANCH   9  14
ENDBRANCH   3   9
ENDBRANCH   2   4
BRANCH   2  18
ATOM     18  C   UNL     1      33.899 -22.769 -18.285  0.00  0.00    +0.076 C 
BRANCH  18  19
ATOM     19  C   UNL     1      33.126 -21.648 -18.986  0.00  0.00    +0.066 C 
BRANCH  19  22
ATOM     20  O   UNL     1      35.706 -19.892 -20.882  0.00  0.00    -0.449 OA
ATOM     21  N   UNL     1      33.447 -19.993 -20.795  0.00  0.00    -0.373 NA
ATOM     22  C   UNL     1      34.005 -20.824 -19.879  0.00  0.00    +0.130 C 
ATOM     23  C   UNL     1      35.358 -20.782 -19.911  0.00  0.00    +0.216 C 
ATOM     24  C   UNL     1      34.508 -19.463 -21.364  0.00  0.00    +0.277 C 
ATOM     25  C   UNL     1      36.451 -21.436 -19.184  0.00  0.00    +0.055 C 
BRANCH  24  26
ATOM     26  C   UNL     1      34.585 -18.496 -22.423  0.00  0.00    +0.066 C 
ATOM     27  C   UNL     1      34.108 -18.809 -23.699  0.00  0.00    +0.006 C 
ATOM     28  C   UNL     1      35.141 -17.235 -22.185  0.00  0.00    +0.006 C 
ATOM     29  C   UNL     1      34.185 -17.870 -24.728  0.00  0.00    +0.000 C 
ATOM     30  C   UNL     1      35.218 -16.296 -23.214  0.00  0.00    +0.000 C 
ATOM     31  C   UNL     1      34.740 -16.614 -24.485  0.00  0.00    +0.000 C 
ENDBRANCH  24  26
ENDBRANCH  19  22
ENDBRANCH  18  19
ENDBRANCH   2  18
TORSDOF 7
ENDMDL
MODEL 5
REMARK VINA RESULT:     -11.7      3.330     11.163
REMARK  Name = 60870
REMARK  7 active torsions:
REMARK  status: ('A' for Active; 'I' for Inactive)
REMARK    1  A    between atoms: C_2  and  C_4
REMARK    2  A    between atoms: C_2  and  C_18
REMARK    3  A    between atoms: C_3  and  C_9
REMARK    4  A    between atoms: C_9  and  C_14
REMARK    5  A    between atoms: C_18  and  C_19
REMARK    6  A    between atoms: C_19  and  C_22
REMARK    7  A    between atoms: C_24  and  C_26
REMARK                            x       y       z     vdW  Elec       q    Type
REMARK                         _______ _______ _______ _____ _____    ______ ____
ROOT
ATOM      1  O   UNL     1      36.371 -22.138 -18.050  0.00  0.00    -0.291 OA
ATOM      2  C   UNL     1      35.450 -21.901 -18.859  0.00  0.00    +0.173 C 
ENDROOT
BRANCH   2   4
ATOM      3  C   UNL     1      35.760 -18.707 -21.613  0.00  0.00    -0.021 C 
ATOM      4  C   UNL     1      35.557 -20.801 -19.806  0.00  0.00    +0.035 C 
ATOM      5  C   UNL     1      34.539 -19.342 -21.440  0.00  0.00    -0.004 C 
ATOM      6  C   UNL     1      36.880 -19.100 -20.897  0.00  0.00    -0.004 C 
ATOM      7  C   UNL     1      34.437 -20.396 -20.531  0.00  0.00    +0.003 C 
ATOM      8  C   UNL     1      36.778 -20.154 -19.988  0.00  0.00    +0.003 C 
BRANCH   3   9
ATOM      9  C   UNL     1      35.870 -17.568 -22.594  0.00  0.00    +0.047 C 
BRANCH   9  14
ATOM     10  S   UNL     1      34.176 -17.393 -24.759  0.00  0.00    -0.048 S 
ATOM     11  O   UNL     1      34.650 -14.938 -21.818  0.00  0.00    -0.274 OA
ATOM     12  O   UNL     1      33.604 -15.341 -26.299  0.00  0.00    -0.263 OA
ATOM     13  N   UNL     1      34.091 -14.937 -24.062  0.00  0.00    -0.246 N 
ATOM     14  C   UNL     1      34.507 -17.039 -23.005  0.00  0.00    +0.137 C 
ATOM     15  C   UNL     1      34.434 -15.535 -22.867  0.00  0.00    +0.239 C 
ATOM     16  C   UNL     1      33.904 -15.714 -25.175  0.00  0.00    +0.279 C 
ATOM     17  H   UNL     1      33.982 -13.960 -24.115  0.00  0.00    +0.158 HD
ENDBRANCH   9  14
ENDBRANCH   3   9
ENDBRANCH   2   4
BRANCH   2  18
ATOM     18  C   UNL     1      34.192 -22.789 -18.850  0.00  0.00    +0.076 C 
BRANCH  18  19
ATOM     19  C   UNL     1      33.191 -22.418 -17.753  0.00  0.00    +0.066 C 
BRANCH  19  22
ATOM     20  O   UNL     1      33.188 -24.215 -14.574  0.00  0.00    -0.449 OA
ATOM     21  N   UNL     1      34.660 -23.660 -16.199  0.00  0.00    -0.373 NA
ATOM     22  C   UNL     1      33.421 -23.190 -16.487  0.00  0.00    +0.130 C 
ATOM     23  C   UNL     1      32.520 -23.509 -15.529  0.00  0.00    +0.216 C 
ATOM     24  C   UNL     1      34.463 -24.262 -15.047  0.00  0.00    +0.277 C 
ATOM     25  C   UNL     1      31.088 -23.280 -15.309  0.00  0.00    +0.055 C 
BRANCH  24  26
ATOM     26  C   UNL     1      35.399 -24.966 -14.215  0.00  0.00    +0.066 C 
ATOM     27  C   UNL     1      36.155 -26.018 -14.738  0.00  0.00    +0.006 C 
ATOM     28  C   UNL     1      35.558 -24.602 -12.874  0.00  0.00    +0.006 C 
ATOM     29  C   UNL     1      37.062 -26.702 -13.929  0.00  0.00    +0.000 C 
ATOM     30  C   UNL     1      36.466 -25.286 -12.065  0.00  0.00    +0.000 C 
ATOM     31  C   UNL     1      37.217 -26.336 -12.593  0.00  0.00    +0.000 C 
ENDBRANCH  24  26
ENDBRANCH  19  22
ENDBRANCH  18  19
ENDBRANCH   2  18
TORSDOF 7
ENDMDL
MODEL 6
REMARK VINA RESULT:     -11.6      3.029      5.415
REMARK  Name = 60870
REMARK  7 active torsions:
REMARK  status: ('A' for Active; 'I' for Inactive)
REMARK    1  A    between atoms: C_2  and  C_4
REMARK    2  A    between atoms: C_2  and  C_18
REMARK    3  A    between atoms: C_3  and  C_9
REMARK    4  A    between atoms: C_9  and  C_14
REMARK    5  A    between atoms: C_18  and  C_19
REMARK    6  A    between atoms: C_19  and  C_22
REMARK    7  A    between atoms: C_24  and  C_26
REMARK                            x       y       z     vdW  Elec       q    Type
REMARK                         _______ _______ _______ _____ _____    ______ ____
ROOT
ATOM      1  O   UNL     1      34.086 -15.291 -26.116  0.00  0.00    -0.291 OA
ATOM      2  C   UNL     1      33.796 -15.394 -24.907  0.00  0.00    +0.173 C 
ENDROOT
BRANCH   2   4
ATOM      3  C   UNL     1      34.677 -18.930 -22.763  0.00  0.00    -0.021 C 
ATOM      4  C   UNL     1      34.100 -16.611 -24.170  0.00  0.00    +0.035 C 
ATOM      5  C   UNL     1      34.031 -19.018 -23.987  0.00  0.00    -0.004 C 
ATOM      6  C   UNL     1      35.040 -17.702 -22.231  0.00  0.00    -0.004 C 
ATOM      7  C   UNL     1      33.740 -17.851 -24.695  0.00  0.00    +0.003 C 
ATOM      8  C   UNL     1      34.750 -16.535 -22.938  0.00  0.00    +0.003 C 
BRANCH   3   9
ATOM      9  C   UNL     1      34.992 -20.191 -21.999  0.00  0.00    +0.047 C 
BRANCH   9  14
ATOM     10  S   UNL     1      35.728 -21.088 -19.501  0.00  0.00    -0.048 S 
ATOM     11  O   UNL     1      32.228 -20.149 -20.830  0.00  0.00    -0.274 OA
ATOM     12  O   UNL     1      34.589 -22.869 -17.939  0.00  0.00    -0.263 OA
ATOM     13  N   UNL     1      33.229 -21.583 -19.316  0.00  0.00    -0.246 N 
ATOM     14  C   UNL     1      34.625 -20.071 -20.530  0.00  0.00    +0.137 C 
ATOM     15  C   UNL     1      33.227 -20.583 -20.266  0.00  0.00    +0.239 C 
ATOM     16  C   UNL     1      34.419 -22.000 -18.780  0.00  0.00    +0.279 C 
ATOM     17  H   UNL     1      32.383 -21.993 -19.026  0.00  0.00    +0.158 HD
ENDBRANCH   9  14
ENDBRANCH   3   9
ENDBRANCH   2   4
BRANCH   2  18
ATOM     18  C   UNL     1      33.111 -14.213 -24.193  0.00  0.00    +0.076 C 
BRANCH  18  19
ATOM     19  C   UNL     1      34.090 -13.137 -23.714  0.00  0.00    +0.066 C 
BRANCH  19  22
ATOM     20  O   UNL     1      32.154 -10.640 -21.884  0.00  0.00    -0.449 OA
ATOM     21  N   UNL     1      33.581 -10.718 -23.638  0.00  0.00    -0.373 NA
ATOM     22  C   UNL     1      33.387 -11.955 -23.115  0.00  0.00    +0.130 C 
ATOM     23  C   UNL     1      32.536 -11.936 -22.063  0.00  0.00    +0.216 C 
ATOM     24  C   UNL     1      32.821  -9.974 -22.866  0.00  0.00    +0.277 C 
ATOM     25  C   UNL     1      31.976 -12.929 -21.140  0.00  0.00    +0.055 C 
BRANCH  24  26
ATOM     26  C   UNL     1      32.592  -8.556 -22.906  0.00  0.00    +0.066 C 
ATOM     27  C   UNL     1      31.296  -8.048 -22.790  0.00  0.00    +0.006 C 
ATOM     28  C   UNL     1      33.667  -7.676 -23.065  0.00  0.00    +0.006 C 
ATOM     29  C   UNL     1      31.075  -6.671 -22.830  0.00  0.00    +0.000 C 
ATOM     30  C   UNL     1      33.446  -6.299 -23.106  0.00  0.00    +0.000 C 
ATOM     31  C   UNL     1      32.149  -5.797 -22.989  0.00  0.00    +0.000 C 
ENDBRANCH  24  26
ENDBRANCH  19  22
ENDBRANCH  18  19
ENDBRANCH   2  18
TORSDOF 7
ENDMDL
MODEL 7
REMARK VINA RESULT:     -11.5      3.718      6.679
REMARK  Name = 60870
REMARK  7 active torsions:
REMARK  status: ('A' for Active; 'I' for Inactive)
REMARK    1  A    between atoms: C_2  and  C_4
REMARK    2  A    between atoms: C_2  and  C_18
REMARK    3  A    between atoms: C_3  and  C_9
REMARK    4  A    between atoms: C_9  and  C_14
REMARK    5  A    between atoms: C_18  and  C_19
REMARK    6  A    between atoms: C_19  and  C_22
REMARK    7  A    between atoms: C_24  and  C_26
REMARK                            x       y       z     vdW  Elec       q    Type
REMARK                         _______ _______ _______ _____ _____    ______ ____
ROOT
ATOM      1  O   UNL     1      32.070 -23.923 -15.450  0.00  0.00    -0.291 OA
ATOM      2  C   UNL     1      33.089 -23.398 -15.944  0.00  0.00    +0.173 C 
ENDROOT
BRANCH   2   4
ATOM      3  C   UNL     1      36.909 -24.095 -14.272  0.00  0.00    -0.021 C 
ATOM      4  C   UNL     1      34.403 -23.638 -15.367  0.00  0.00    +0.035 C 
ATOM      5  C   UNL     1      36.462 -22.792 -14.429  0.00  0.00    -0.004 C 
ATOM      6  C   UNL     1      36.125 -25.174 -14.652  0.00  0.00    -0.004 C 
ATOM      7  C   UNL     1      35.201 -22.562 -14.980  0.00  0.00    +0.003 C 
ATOM      8  C   UNL     1      34.864 -24.944 -15.203  0.00  0.00    +0.003 C 
BRANCH   3   9
ATOM      9  C   UNL     1      38.271 -24.343 -13.675  0.00  0.00    +0.047 C 
BRANCH   9  14
ATOM     10  S   UNL     1      36.969 -25.914 -11.824  0.00  0.00    -0.048 S 
ATOM     11  O   UNL     1      38.314 -22.314 -11.465  0.00  0.00    -0.274 OA
ATOM     12  O   UNL     1      35.053 -25.300 -10.133  0.00  0.00    -0.263 OA
ATOM     13  N   UNL     1      36.612 -23.663 -10.670  0.00  0.00    -0.246 N 
ATOM     14  C   UNL     1      38.196 -24.618 -12.184  0.00  0.00    +0.137 C 
ATOM     15  C   UNL     1      37.740 -23.396 -11.418  0.00  0.00    +0.239 C 
ATOM     16  C   UNL     1      36.046 -24.909 -10.727  0.00  0.00    +0.279 C 
ATOM     17  H   UNL     1      36.218 -22.964 -10.101  0.00  0.00    +0.158 HD
ENDBRANCH   9  14
ENDBRANCH   3   9
ENDBRANCH   2   4
BRANCH   2  18
ATOM     18  C   UNL     1      32.945 -22.489 -17.179  0.00  0.00    +0.076 C 
BRANCH  18  19
ATOM     19  C   UNL     1      33.749 -22.971 -18.389  0.00  0.00    +0.066 C 
BRANCH  19  22
ATOM     20  O   UNL     1      36.005 -20.394 -19.655  0.00  0.00    -0.449 OA
ATOM     21  N   UNL     1      33.906 -21.141 -20.046  0.00  0.00    -0.373 NA
ATOM     22  C   UNL     1      34.498 -21.855 -19.056  0.00  0.00    +0.130 C 
ATOM     23  C   UNL     1      35.757 -21.427 -18.802  0.00  0.00    +0.216 C 
ATOM     24  C   UNL     1      34.849 -20.283 -20.365  0.00  0.00    +0.277 C 
ATOM     25  C   UNL     1      36.834 -21.804 -17.880  0.00  0.00    +0.055 C 
BRANCH  24  26
ATOM     26  C   UNL     1      34.839 -19.245 -21.358  0.00  0.00    +0.066 C 
ATOM     27  C   UNL     1      35.267 -17.955 -21.033  0.00  0.00    +0.006 C 
ATOM     28  C   UNL     1      34.397 -19.519 -22.656  0.00  0.00    +0.006 C 
ATOM     29  C   UNL     1      35.255 -16.947 -21.997  0.00  0.00    +0.000 C 
ATOM     30  C   UNL     1      34.385 -18.511 -23.620  0.00  0.00    +0.000 C 
ATOM     31  C   UNL     1      34.814 -17.225 -23.291  0.00  0.00    +0.000 C 
ENDBRANCH  24  26
ENDBRANCH  19  22
ENDBRANCH  18  19
ENDBRANCH   2  18
TORSDOF 7
ENDMDL
MODEL 8
REMARK VINA RESULT:     -11.4      1.858      2.688
REMARK  Name = 60870
REMARK  7 active torsions:
REMARK  status: ('A' for Active; 'I' for Inactive)
REMARK    1  A    between atoms: C_2  and  C_4
REMARK    2  A    between atoms: C_2  and  C_18
REMARK    3  A    between atoms: C_3  and  C_9
REMARK    4  A    between atoms: C_9  and  C_14
REMARK    5  A    between atoms: C_18  and  C_19
REMARK    6  A    between atoms: C_19  and  C_22
REMARK    7  A    between atoms: C_24  and  C_26
REMARK                            x       y       z     vdW  Elec       q    Type
REMARK                         _______ _______ _______ _____ _____    ______ ____
ROOT
ATOM      1  O   UNL     1      35.322 -17.704 -20.786  0.00  0.00    -0.291 OA
ATOM      2  C   UNL     1      35.321 -18.871 -21.227  0.00  0.00    +0.173 C 
ENDROOT
BRANCH   2   4
ATOM      3  C   UNL     1      33.994 -22.088 -18.825  0.00  0.00    -0.021 C 
ATOM      4  C   UNL     1      34.865 -19.979 -20.402  0.00  0.00    +0.035 C 
ATOM      5  C   UNL     1      33.062 -21.290 -19.471  0.00  0.00    -0.004 C 
ATOM      6  C   UNL     1      35.354 -21.849 -18.954  0.00  0.00    -0.004 C 
ATOM      7  C   UNL     1      33.500 -20.229 -20.264  0.00  0.00    +0.003 C 
ATOM      8  C   UNL     1      35.792 -20.788 -19.747  0.00  0.00    +0.003 C 
BRANCH   3   9
ATOM      9  C   UNL     1      33.521 -23.235 -17.969  0.00  0.00    +0.047 C 
BRANCH   9  14
ATOM     10  S   UNL     1      34.111 -23.737 -15.326  0.00  0.00    -0.048 S 
ATOM     11  O   UNL     1      30.791 -22.576 -16.914  0.00  0.00    -0.274 OA
ATOM     12  O   UNL     1      32.719 -25.006 -13.493  0.00  0.00    -0.263 OA
ATOM     13  N   UNL     1      31.566 -23.824 -15.128  0.00  0.00    -0.246 N 
ATOM     14  C   UNL     1      33.172 -22.786 -16.561  0.00  0.00    +0.137 C 
ATOM     15  C   UNL     1      31.713 -23.033 -16.248  0.00  0.00    +0.239 C 
ATOM     16  C   UNL     1      32.681 -24.298 -14.487  0.00  0.00    +0.279 C 
ATOM     17  H   UNL     1      30.669 -24.046 -14.791  0.00  0.00    +0.158 HD
ENDBRANCH   9  14
ENDBRANCH   3   9
ENDBRANCH   2   4
BRANCH   2  18
ATOM     18  C   UNL     1      35.808 -19.133 -22.665  0.00  0.00    +0.076 C 
BRANCH  18  19
ATOM     19  C   UNL     1      34.678 -19.475 -23.640  0.00  0.00    +0.066 C 
BRANCH  19  22
ATOM     20  O   UNL     1      32.645 -16.859 -25.175  0.00  0.00    -0.449 OA
ATOM     21  N   UNL     1      34.534 -17.024 -23.941  0.00  0.00    -0.373 NA
ATOM     22  C   UNL     1      34.003 -18.250 -24.181  0.00  0.00    +0.130 C 
ATOM     23  C   UNL     1      32.870 -18.178 -24.919  0.00  0.00    +0.216 C 
ATOM     24  C   UNL     1      33.684 -16.234 -24.558  0.00  0.00    +0.277 C 
ATOM     25  C   UNL     1      31.903 -19.138 -25.462  0.00  0.00    +0.055 C 
BRANCH  24  26
ATOM     26  C   UNL     1      33.692 -14.802 -24.673  0.00  0.00    +0.066 C 
ATOM     27  C   UNL     1      33.974 -14.007 -23.559  0.00  0.00    +0.006 C 
ATOM     28  C   UNL     1      33.415 -14.195 -25.902  0.00  0.00    +0.006 C 
ATOM     29  C   UNL     1      33.980 -12.616 -23.672  0.00  0.00    +0.000 C 
ATOM     30  C   UNL     1      33.421 -12.804 -26.015  0.00  0.00    +0.000 C 
ATOM     31  C   UNL     1      33.703 -12.015 -24.899  0.00  0.00    +0.000 C 
ENDBRANCH  24  26
ENDBRANCH  19  22
ENDBRANCH  18  19
ENDBRANCH   2  18
TORSDOF 7
ENDMDL
MODEL 9
REMARK VINA RESULT:     -11.4      3.339      4.722
REMARK  Name = 60870
REMARK  7 active torsions:
REMARK  status: ('A' for Active; 'I' for Inactive)
REMARK    1  A    between atoms: C_2  and  C_4
REMARK    2  A    between atoms: C_2  and  C_18
REMARK    3  A    between atoms: C_3  and  C_9
REMARK    4  A    between atoms: C_9  and  C_14
REMARK    5  A    between atoms: C_18  and  C_19
REMARK    6  A    between atoms: C_19  and  C_22
REMARK    7  A    between atoms: C_24  and  C_26
REMARK                            x       y       z     vdW  Elec       q    Type
REMARK                         _______ _______ _______ _____ _____    ______ ____
ROOT
ATOM      1  O   UNL     1      32.880 -22.479 -19.511  0.00  0.00    -0.291 OA
ATOM      2  C   UNL     1      33.803 -21.722 -19.148  0.00  0.00    +0.173 C 
ENDROOT
BRANCH   2   4
ATOM      3  C   UNL     1      36.338 -22.787 -15.936  0.00  0.00    -0.021 C 
ATOM      4  C   UNL     1      34.675 -22.089 -18.043  0.00  0.00    +0.035 C 
ATOM      5  C   UNL     1      35.003 -23.160 -15.903  0.00  0.00    -0.004 C 
ATOM      6  C   UNL     1      36.856 -22.072 -17.005  0.00  0.00    -0.004 C 
ATOM      7  C   UNL     1      34.166 -22.809 -16.963  0.00  0.00    +0.003 C 
ATOM      8  C   UNL     1      36.020 -21.721 -18.065  0.00  0.00    +0.003 C 
BRANCH   3   9
ATOM      9  C   UNL     1      37.242 -23.167 -14.791  0.00  0.00    +0.047 C 
BRANCH   9  14
ATOM     10  S   UNL     1      36.140 -25.226 -13.330  0.00  0.00    -0.048 S 
ATOM     11  O   UNL     1      39.725 -24.851 -14.710  0.00  0.00    -0.274 OA
ATOM     12  O   UNL     1      37.127 -26.583 -11.307  0.00  0.00    -0.263 OA
ATOM     13  N   UNL     1      38.596 -25.803 -12.931  0.00  0.00    -0.246 N 
ATOM     14  C   UNL     1      37.317 -24.672 -14.603  0.00  0.00    +0.137 C 
ATOM     15  C   UNL     1      38.683 -25.100 -14.115  0.00  0.00    +0.239 C 
ATOM     16  C   UNL     1      37.370 -25.991 -12.348  0.00  0.00    +0.279 C 
ATOM     17  H   UNL     1      39.407 -26.167 -12.509  0.00  0.00    +0.158 HD
ENDBRANCH   9  14
ENDBRANCH   3   9
ENDBRANCH   2   4
BRANCH   2  18
ATOM     18  C   UNL     1      34.015 -20.386 -19.885  0.00  0.00    +0.076 C 
BRANCH  18  19
ATOM     19  C   UNL     1      34.735 -20.537 -21.228  0.00  0.00    +0.066 C 
BRANCH  19  22
ATOM     20  O   UNL     1      36.049 -17.393 -22.542  0.00  0.00    -0.449 OA
ATOM     21  N   UNL     1      34.094 -18.531 -22.525  0.00  0.00    -0.373 NA
ATOM     22  C   UNL     1      35.056 -19.212 -21.853  0.00  0.00    +0.130 C 
ATOM     23  C   UNL     1      36.238 -18.551 -21.848  0.00  0.00    +0.216 C 
ATOM     24  C   UNL     1      34.741 -17.455 -22.913  0.00  0.00    +0.277 C 
ATOM     25  C   UNL     1      37.578 -18.790 -21.302  0.00  0.00    +0.055 C 
BRANCH  24  26
ATOM     26  C   UNL     1      34.268 -16.333 -23.676  0.00  0.00    +0.066 C 
ATOM     27  C   UNL     1      33.815 -16.512 -24.985  0.00  0.00    +0.006 C 
ATOM     28  C   UNL     1      34.261 -15.053 -23.112  0.00  0.00    +0.006 C 
ATOM     29  C   UNL     1      33.357 -15.422 -25.726  0.00  0.00    +0.000 C 
ATOM     30  C   UNL     1      33.803 -13.963 -23.852  0.00  0.00    +0.000 C 
ATOM     31  C   UNL     1      33.352 -14.148 -25.159  0.00  0.00    +0.000 C 
ENDBRANCH  24  26
ENDBRANCH  19  22
ENDBRANCH  18  19
ENDBRANCH   2  18
TORSDOF 7
ENDMDL
