MODEL 1
REMARK VINA RESULT:     -12.3      0.000      0.000
REMARK  Name = 5288607
REMARK  4 active torsions:
REMARK  status: ('A' for Active; 'I' for Inactive)
REMARK    1  A    between atoms: N_2  and  C_19
REMARK    2  A    between atoms: C_3  and  C_6
REMARK    3  A    between atoms: C_5  and  C_16
REMARK    4  A    between atoms: C_19  and  C_21
REMARK                            x       y       z     vdW  Elec       q    Type
REMARK                         _______ _______ _______ _____ _____    ______ ____
ROOT
ATOM      1  O   UNL     1      34.571 -16.169 -25.801  0.00  0.00    -0.270 OA
ATOM      2  N   UNL     1      33.496 -14.586 -24.482  0.00  0.00    -0.270 N 
ATOM      3  C   UNL     1      34.276 -15.727 -24.691  0.00  0.00    +0.249 C 
ATOM      4  C   UNL     1      32.984 -13.851 -25.632  0.00  0.00    +0.116 C 
ENDROOT
BRANCH   3   6
ATOM      5  C   UNL     1      34.787 -17.794 -23.439  0.00  0.00    +0.006 C 
ATOM      6  C   UNL     1      34.735 -16.441 -23.462  0.00  0.00    +0.058 C 
BRANCH   5  16
ATOM      7  O   UNL     1      36.067 -22.384 -17.387  0.00  0.00    -0.275 OA
ATOM      8  N   UNL     1      36.449 -20.833 -19.035  0.00  0.00    -0.270 N 
ATOM      9  N   UNL     1      36.921 -19.290 -20.766  0.00  0.00    -0.229 NA
ATOM     10  C   UNL     1      33.708 -20.984 -19.743  0.00  0.00    +0.039 C 
ATOM     11  C   UNL     1      34.683 -20.174 -20.544  0.00  0.00    +0.010 C 
ATOM     12  C   UNL     1      34.399 -22.175 -19.097  0.00  0.00    +0.090 C 
ATOM     13  C   UNL     1      36.016 -20.086 -20.148  0.00  0.00    +0.130 C 
ATOM     14  C   UNL     1      34.271 -19.406 -21.635  0.00  0.00    +0.000 C 
ATOM     15  C   UNL     1      35.690 -21.795 -18.400  0.00  0.00    +0.227 C 
ATOM     16  C   UNL     1      35.186 -18.599 -22.298  0.00  0.00    +0.019 C 
ATOM     17  C   UNL     1      36.487 -18.574 -21.826  0.00  0.00    +0.100 C 
ATOM     18  H   UNL     1      37.353 -20.656 -18.687  0.00  0.00    +0.156 HD
ENDBRANCH   5  16
ENDBRANCH   3   6
BRANCH   2  19
ATOM     19  C   UNL     1      33.105 -14.063 -23.176  0.00  0.00    +0.122 C 
BRANCH  19  21
ATOM     20  N   UNL     1      34.055 -10.563 -23.594  0.00  0.00    -0.284 N 
ATOM     21  C   UNL     1      33.289 -12.584 -23.152  0.00  0.00    +0.014 C 
ATOM     22  C   UNL     1      32.562 -11.666 -22.357  0.00  0.00    +0.013 C 
ATOM     23  C   UNL     1      33.063 -10.397 -22.653  0.00  0.00    +0.051 C 
ATOM     24  C   UNL     1      34.198 -11.889 -23.901  0.00  0.00    +0.063 C 
ATOM     25  C   UNL     1      31.524 -11.782 -21.412  0.00  0.00    +0.001 C 
ATOM     26  C   UNL     1      32.576  -9.233 -22.049  0.00  0.00    +0.015 C 
ATOM     27  C   UNL     1      34.841  -9.498 -24.182  0.00  0.00    +0.117 C 
ATOM     28  C   UNL     1      31.027 -10.626 -20.799  0.00  0.00    +0.000 C 
ATOM     29  C   UNL     1      31.546  -9.373 -21.114  0.00  0.00    +0.001 C 
ENDBRANCH  19  21
ENDBRANCH   2  19
TORSDOF 4
ENDMDL
MODEL 2
REMARK VINA RESULT:     -11.8      1.371      2.304
REMARK  Name = 5288607
REMARK  4 active torsions:
REMARK  status: ('A' for Active; 'I' for Inactive)
REMARK    1  A    between atoms: N_2  and  C_19
REMARK    2  A    between atoms: C_3  and  C_6
REMARK    3  A    between atoms: C_5  and  C_16
REMARK    4  A    between atoms: C_19  and  C_21
REMARK                            x       y       z     vdW  Elec       q    Type
REMARK                         _______ _______ _______ _____ _____    ______ ____
ROOT
ATOM      1  O   UNL     1      33.167 -17.778 -25.284  0.00  0.00    -0.270 OA
ATOM      2  N   UNL     1      34.129 -15.729 -24.754  0.00  0.00    -0.270 N 
ATOM      3  C   UNL     1      33.898 -17.095 -24.566  0.00  0.00    +0.249 C 
ATOM      4  C   UNL     1      33.477 -15.040 -25.860  0.00  0.00    +0.116 C 
ENDROOT
BRANCH   3   6
ATOM      5  C   UNL     1      34.048 -18.817 -22.802  0.00  0.00    +0.006 C 
ATOM      6  C   UNL     1      34.578 -17.720 -23.392  0.00  0.00    +0.058 C 
BRANCH   5  16
ATOM      7  O   UNL     1      36.150 -22.764 -16.530  0.00  0.00    -0.275 OA
ATOM      8  N   UNL     1      36.286 -21.354 -18.337  0.00  0.00    -0.270 N 
ATOM      9  N   UNL     1      36.506 -19.957 -20.234  0.00  0.00    -0.229 NA
ATOM     10  C   UNL     1      33.504 -21.701 -18.754  0.00  0.00    +0.039 C 
ATOM     11  C   UNL     1      34.351 -20.922 -19.715  0.00  0.00    +0.010 C 
ATOM     12  C   UNL     1      34.319 -22.793 -18.078  0.00  0.00    +0.090 C 
ATOM     13  C   UNL     1      35.709 -20.735 -19.463  0.00  0.00    +0.130 C 
ATOM     14  C   UNL     1      33.795 -20.279 -20.822  0.00  0.00    +0.000 C 
ATOM     15  C   UNL     1      35.646 -22.290 -17.549  0.00  0.00    +0.227 C 
ATOM     16  C   UNL     1      34.597 -19.494 -21.641  0.00  0.00    +0.019 C 
ATOM     17  C   UNL     1      35.933 -19.363 -21.304  0.00  0.00    +0.100 C 
ATOM     18  H   UNL     1      37.207 -21.103 -18.097  0.00  0.00    +0.156 HD
ENDBRANCH   5  16
ENDBRANCH   3   6
BRANCH   2  19
ATOM     19  C   UNL     1      34.965 -14.892 -23.896  0.00  0.00    +0.122 C 
BRANCH  19  21
ATOM     20  N   UNL     1      32.765 -13.355 -21.421  0.00  0.00    -0.284 N 
ATOM     21  C   UNL     1      34.101 -14.029 -23.043  0.00  0.00    +0.014 C 
ATOM     22  C   UNL     1      33.813 -12.661 -23.264  0.00  0.00    +0.013 C 
ATOM     23  C   UNL     1      32.969 -12.258 -22.227  0.00  0.00    +0.051 C 
ATOM     24  C   UNL     1      33.449 -14.435 -21.910  0.00  0.00    +0.063 C 
ATOM     25  C   UNL     1      34.184 -11.717 -24.242  0.00  0.00    +0.001 C 
ATOM     26  C   UNL     1      32.475 -10.953 -22.119  0.00  0.00    +0.015 C 
ATOM     27  C   UNL     1      31.949 -13.379 -20.225  0.00  0.00    +0.117 C 
ATOM     28  C   UNL     1      33.698 -10.408 -24.147  0.00  0.00    +0.000 C 
ATOM     29  C   UNL     1      32.857 -10.034 -23.101  0.00  0.00    +0.001 C 
ENDBRANCH  19  21
ENDBRANCH   2  19
TORSDOF 4
ENDMDL
MODEL 3
REMARK VINA RESULT:     -11.7      5.951     12.525
REMARK  Name = 5288607
REMARK  4 active torsions:
REMARK  status: ('A' for Active; 'I' for Inactive)
REMARK    1  A    between atoms: N_2  and  C_19
REMARK    2  A    between atoms: C_3  and  C_6
REMARK    3  A    between atoms: C_5  and  C_16
REMARK    4  A    between atoms: C_19  and  C_21
REMARK                            x       y       z     vdW  Elec       q    Type
REMARK                         _______ _______ _______ _____ _____    ______ ____
ROOT
ATOM      1  O   UNL     1      30.859 -24.456 -15.910  0.00  0.00    -0.270 OA
ATOM      2  N   UNL     1      32.313 -24.045 -14.144  0.00  0.00    -0.270 N 
ATOM      3  C   UNL     1      31.815 -23.843 -15.434  0.00  0.00    +0.249 C 
ATOM      4  C   UNL     1      31.683 -25.038 -13.282  0.00  0.00    +0.116 C 
ENDROOT
BRANCH   3   6
ATOM      5  C   UNL     1      33.462 -23.226 -17.168  0.00  0.00    +0.006 C 
ATOM      6  C   UNL     1      32.535 -22.831 -16.264  0.00  0.00    +0.058 C 
BRANCH   5  16
ATOM      7  O   UNL     1      36.854 -18.317 -22.039  0.00  0.00    -0.275 OA
ATOM      8  N   UNL     1      36.604 -19.851 -20.349  0.00  0.00    -0.270 N 
ATOM      9  N   UNL     1      36.391 -21.364 -18.543  0.00  0.00    -0.229 NA
ATOM     10  C   UNL     1      33.870 -20.106 -21.053  0.00  0.00    +0.039 C 
ATOM     11  C   UNL     1      34.439 -20.796 -19.850  0.00  0.00    +0.010 C 
ATOM     12  C   UNL     1      34.616 -18.811 -21.335  0.00  0.00    +0.090 C 
ATOM     13  C   UNL     1      35.796 -20.684 -19.551  0.00  0.00    +0.130 C 
ATOM     14  C   UNL     1      33.662 -21.647 -19.062  0.00  0.00    +0.000 C 
ATOM     15  C   UNL     1      36.121 -18.984 -21.309  0.00  0.00    +0.227 C 
ATOM     16  C   UNL     1      34.246 -22.339 -18.008  0.00  0.00    +0.019 C 
ATOM     17  C   UNL     1      35.603 -22.167 -17.794  0.00  0.00    +0.100 C 
ATOM     18  H   UNL     1      37.578 -19.888 -20.212  0.00  0.00    +0.156 HD
ENDBRANCH   5  16
ENDBRANCH   3   6
BRANCH   2  19
ATOM     19  C   UNL     1      33.465 -23.355 -13.570  0.00  0.00    +0.122 C 
BRANCH  19  21
ATOM     20  N   UNL     1      36.071 -25.794 -14.337  0.00  0.00    -0.284 N 
ATOM     21  C   UNL     1      34.671 -24.224 -13.670  0.00  0.00    +0.014 C 
ATOM     22  C   UNL     1      35.827 -24.143 -12.858  0.00  0.00    +0.013 C 
ATOM     23  C   UNL     1      36.696 -25.143 -13.298  0.00  0.00    +0.051 C 
ATOM     24  C   UNL     1      34.840 -25.242 -14.568  0.00  0.00    +0.063 C 
ATOM     25  C   UNL     1      36.230 -23.317 -11.789  0.00  0.00    +0.001 C 
ATOM     26  C   UNL     1      37.953 -25.360 -12.721  0.00  0.00    +0.015 C 
ATOM     27  C   UNL     1      36.623 -26.903 -15.087  0.00  0.00    +0.117 C 
ATOM     28  C   UNL     1      37.482 -23.523 -11.201  0.00  0.00    +0.000 C 
ATOM     29  C   UNL     1      38.329 -24.529 -11.661  0.00  0.00    +0.001 C 
ENDBRANCH  19  21
ENDBRANCH   2  19
TORSDOF 4
ENDMDL
MODEL 4
REMARK VINA RESULT:     -11.3      1.789      2.808
REMARK  Name = 5288607
REMARK  4 active torsions:
REMARK  status: ('A' for Active; 'I' for Inactive)
REMARK    1  A    between atoms: N_2  and  C_19
REMARK    2  A    between atoms: C_3  and  C_6
REMARK    3  A    between atoms: C_5  and  C_16
REMARK    4  A    between atoms: C_19  and  C_21
REMARK                            x       y       z     vdW  Elec       q    Type
REMARK                         _______ _______ _______ _____ _____    ______ ____
ROOT
ATOM      1  O   UNL     1      34.158 -19.097 -24.275  0.00  0.00    -0.270 OA
ATOM      2  N   UNL     1      34.543 -16.943 -23.492  0.00  0.00    -0.270 N 
ATOM      3  C   UNL     1      34.495 -18.334 -23.369  0.00  0.00    +0.249 C 
ATOM      4  C   UNL     1      34.176 -16.324 -24.760  0.00  0.00    +0.116 C 
ENDROOT
BRANCH   3   6
ATOM      5  C   UNL     1      34.418 -20.113 -21.658  0.00  0.00    +0.006 C 
ATOM      6  C   UNL     1      34.855 -18.887 -22.029  0.00  0.00    +0.058 C 
BRANCH   5  16
ATOM      7  O   UNL     1      34.922 -23.695 -14.857  0.00  0.00    -0.275 OA
ATOM      8  N   UNL     1      35.541 -22.489 -16.710  0.00  0.00    -0.270 N 
ATOM      9  N   UNL     1      36.253 -21.314 -18.636  0.00  0.00    -0.229 NA
ATOM     10  C   UNL     1      32.839 -22.515 -17.567  0.00  0.00    +0.039 C 
ATOM     11  C   UNL     1      33.929 -21.943 -18.423  0.00  0.00    +0.010 C 
ATOM     12  C   UNL     1      33.374 -23.634 -16.687  0.00  0.00    +0.090 C 
ATOM     13  C   UNL     1      35.242 -21.909 -17.958  0.00  0.00    +0.130 C 
ATOM     14  C   UNL     1      33.652 -21.341 -19.651  0.00  0.00    +0.000 C 
ATOM     15  C   UNL     1      34.658 -23.257 -15.977  0.00  0.00    +0.227 C 
ATOM     16  C   UNL     1      34.676 -20.743 -20.375  0.00  0.00    +0.019 C 
ATOM     17  C   UNL     1      35.947 -20.754 -19.827  0.00  0.00    +0.100 C 
ATOM     18  H   UNL     1      36.438 -22.336 -16.336  0.00  0.00    +0.156 HD
ENDBRANCH   5  16
ENDBRANCH   3   6
BRANCH   2  19
ATOM     19  C   UNL     1      34.907 -16.016 -22.422  0.00  0.00    +0.122 C 
BRANCH  19  21
ATOM     20  N   UNL     1      33.792 -12.775 -23.678  0.00  0.00    -0.284 N 
ATOM     21  C   UNL     1      34.305 -14.680 -22.690  0.00  0.00    +0.014 C 
ATOM     22  C   UNL     1      33.426 -13.975 -21.834  0.00  0.00    +0.013 C 
ATOM     23  C   UNL     1      33.116 -12.776 -22.479  0.00  0.00    +0.051 C 
ATOM     24  C   UNL     1      34.517 -13.928 -23.813  0.00  0.00    +0.063 C 
ATOM     25  C   UNL     1      32.857 -14.232 -20.570  0.00  0.00    +0.001 C 
ATOM     26  C   UNL     1      32.262 -11.817 -21.922  0.00  0.00    +0.015 C 
ATOM     27  C   UNL     1      33.751 -11.715 -24.664  0.00  0.00    +0.117 C 
ATOM     28  C   UNL     1      32.002 -13.282 -20.000  0.00  0.00    +0.000 C 
ATOM     29  C   UNL     1      31.710 -12.095 -20.667  0.00  0.00    +0.001 C 
ENDBRANCH  19  21
ENDBRANCH   2  19
TORSDOF 4
ENDMDL
MODEL 5
REMARK VINA RESULT:     -10.4      5.987     11.932
REMARK  Name = 5288607
REMARK  4 active torsions:
REMARK  status: ('A' for Active; 'I' for Inactive)
REMARK    1  A    between atoms: N_2  and  C_19
REMARK    2  A    between atoms: C_3  and  C_6
REMARK    3  A    between atoms: C_5  and  C_16
REMARK    4  A    between atoms: C_19  and  C_21
REMARK                            x       y       z     vdW  Elec       q    Type
REMARK                         _______ _______ _______ _____ _____    ______ ____
ROOT
ATOM      1  O   UNL     1      33.035  -7.090 -19.353  0.00  0.00    -0.270 OA
ATOM      2  N   UNL     1      31.940  -8.857 -20.394  0.00  0.00    -0.270 N 
ATOM      3  C   UNL     1      32.517  -7.584 -20.355  0.00  0.00    +0.249 C 
ATOM      4  C   UNL     1      31.933  -9.675 -19.188  0.00  0.00    +0.116 C 
ENDROOT
BRANCH   3   6
ATOM      5  C   UNL     1      33.534  -6.736 -22.440  0.00  0.00    +0.006 C 
ATOM      6  C   UNL     1      32.456  -6.797 -21.623  0.00  0.00    +0.058 C 
BRANCH   5  16
ATOM      7  O   UNL     1      34.761  -3.032 -29.081  0.00  0.00    -0.275 OA
ATOM      8  N   UNL     1      33.687  -3.775 -27.193  0.00  0.00    -0.270 N 
ATOM      9  N   UNL     1      32.505  -4.578 -25.307  0.00  0.00    -0.229 NA
ATOM     10  C   UNL     1      36.106  -4.992 -26.357  0.00  0.00    +0.039 C 
ATOM     11  C   UNL     1      34.829  -5.179 -25.595  0.00  0.00    +0.010 C 
ATOM     12  C   UNL     1      35.826  -4.782 -27.837  0.00  0.00    +0.090 C 
ATOM     13  C   UNL     1      33.664  -4.535 -26.008  0.00  0.00    +0.130 C 
ATOM     14  C   UNL     1      34.789  -5.906 -24.404  0.00  0.00    +0.000 C 
ATOM     15  C   UNL     1      34.738  -3.758 -28.088  0.00  0.00    +0.227 C 
ATOM     16  C   UNL     1      33.607  -5.983 -23.679  0.00  0.00    +0.019 C 
ATOM     17  C   UNL     1      32.504  -5.304 -24.168  0.00  0.00    +0.100 C 
ATOM     18  H   UNL     1      32.900  -3.219 -27.397  0.00  0.00    +0.156 HD
ENDBRANCH   5  16
ENDBRANCH   3   6
BRANCH   2  19
ATOM     19  C   UNL     1      31.292  -9.450 -21.561  0.00  0.00    +0.122 C 
BRANCH  19  21
ATOM     20  N   UNL     1      33.752 -11.039 -23.741  0.00  0.00    -0.284 N 
ATOM     21  C   UNL     1      32.258 -10.326 -22.281  0.00  0.00    +0.014 C 
ATOM     22  C   UNL     1      32.574 -11.666 -21.954  0.00  0.00    +0.013 C 
ATOM     23  C   UNL     1      33.519 -12.094 -22.888  0.00  0.00    +0.051 C 
ATOM     24  C   UNL     1      32.990  -9.961 -23.379  0.00  0.00    +0.063 C 
ATOM     25  C   UNL     1      32.154 -12.565 -20.953  0.00  0.00    +0.001 C 
ATOM     26  C   UNL     1      34.067 -13.381 -22.873  0.00  0.00    +0.015 C 
ATOM     27  C   UNL     1      34.669 -11.051 -24.862  0.00  0.00    +0.117 C 
ATOM     28  C   UNL     1      32.692 -13.856 -20.926  0.00  0.00    +0.000 C 
ATOM     29  C   UNL     1      33.633 -14.256 -21.871  0.00  0.00    +0.001 C 
ENDBRANCH  19  21
ENDBRANCH   2  19
TORSDOF 4
ENDMDL
MODEL 6
REMARK VINA RESULT:     -10.3      4.307     10.945
REMARK  Name = 5288607
REMARK  4 active torsions:
REMARK  status: ('A' for Active; 'I' for Inactive)
REMARK    1  A    between atoms: N_2  and  C_19
REMARK    2  A    between atoms: C_3  and  C_6
REMARK    3  A    between atoms: C_5  and  C_16
REMARK    4  A    between atoms: C_19  and  C_21
REMARK                            x       y       z     vdW  Elec       q    Type
REMARK                         _______ _______ _______ _____ _____    ______ ____
ROOT
ATOM      1  O   UNL     1      30.572 -11.611 -20.631  0.00  0.00    -0.270 OA
ATOM      2  N   UNL     1      32.606 -12.643 -21.078  0.00  0.00    -0.270 N 
ATOM      3  C   UNL     1      31.666 -11.616 -21.197  0.00  0.00    +0.249 C 
ATOM      4  C   UNL     1      32.303 -13.795 -20.238  0.00  0.00    +0.116 C 
ENDROOT
BRANCH   3   6
ATOM      5  C   UNL     1      31.780  -9.209 -21.737  0.00  0.00    +0.006 C 
ATOM      6  C   UNL     1      32.039 -10.487 -22.101  0.00  0.00    +0.058 C 
BRANCH   5  16
ATOM      7  O   UNL     1      34.134  -3.296 -26.077  0.00  0.00    -0.275 OA
ATOM      8  N   UNL     1      32.760  -4.624 -24.803  0.00  0.00    -0.270 N 
ATOM      9  N   UNL     1      31.279  -5.995 -23.569  0.00  0.00    -0.229 NA
ATOM     10  C   UNL     1      34.977  -6.303 -24.254  0.00  0.00    +0.039 C 
ATOM     11  C   UNL     1      33.594  -6.653 -23.795  0.00  0.00    +0.010 C 
ATOM     12  C   UNL     1      34.930  -5.492 -25.540  0.00  0.00    +0.090 C 
ATOM     13  C   UNL     1      32.530  -5.788 -24.046  0.00  0.00    +0.130 C 
ATOM     14  C   UNL     1      33.347  -7.789 -23.021  0.00  0.00    +0.000 C 
ATOM     15  C   UNL     1      33.934  -4.353 -25.478  0.00  0.00    +0.227 C 
ATOM     16  C   UNL     1      32.067  -8.033 -22.540  0.00  0.00    +0.019 C 
ATOM     17  C   UNL     1      31.077  -7.112 -22.836  0.00  0.00    +0.100 C 
ATOM     18  H   UNL     1      32.036  -3.959 -24.855  0.00  0.00    +0.156 HD
ENDBRANCH   5  16
ENDBRANCH   3   6
BRANCH   2  19
ATOM     19  C   UNL     1      33.894 -12.688 -21.766  0.00  0.00    +0.122 C 
BRANCH  19  21
ATOM     20  N   UNL     1      33.450 -14.542 -24.879  0.00  0.00    -0.284 N 
ATOM     21  C   UNL     1      33.828 -13.662 -22.891  0.00  0.00    +0.014 C 
ATOM     22  C   UNL     1      34.254 -15.011 -22.852  0.00  0.00    +0.013 C 
ATOM     23  C   UNL     1      34.006 -15.545 -24.118  0.00  0.00    +0.051 C 
ATOM     24  C   UNL     1      33.338 -13.395 -24.141  0.00  0.00    +0.063 C 
ATOM     25  C   UNL     1      34.830 -15.838 -21.868  0.00  0.00    +0.001 C 
ATOM     26  C   UNL     1      34.306 -16.871 -24.450  0.00  0.00    +0.015 C 
ATOM     27  C   UNL     1      33.039 -14.667 -26.262  0.00  0.00    +0.117 C 
ATOM     28  C   UNL     1      35.135 -17.166 -22.185  0.00  0.00    +0.000 C 
ATOM     29  C   UNL     1      34.876 -17.673 -23.456  0.00  0.00    +0.001 C 
ENDBRANCH  19  21
ENDBRANCH   2  19
TORSDOF 4
ENDMDL
MODEL 7
REMARK VINA RESULT:     -10.0      4.316     11.424
REMARK  Name = 5288607
REMARK  4 active torsions:
REMARK  status: ('A' for Active; 'I' for Inactive)
REMARK    1  A    between atoms: N_2  and  C_19
REMARK    2  A    between atoms: C_3  and  C_6
REMARK    3  A    between atoms: C_5  and  C_16
REMARK    4  A    between atoms: C_19  and  C_21
REMARK                            x       y       z     vdW  Elec       q    Type
REMARK                         _______ _______ _______ _____ _____    ______ ____
ROOT
ATOM      1  O   UNL     1      30.606 -10.856 -20.307  0.00  0.00    -0.270 OA
ATOM      2  N   UNL     1      32.257 -12.111 -21.356  0.00  0.00    -0.270 N 
ATOM      3  C   UNL     1      31.491 -10.959 -21.156  0.00  0.00    +0.249 C 
ATOM      4  C   UNL     1      32.016 -13.282 -20.522  0.00  0.00    +0.116 C 
ENDROOT
BRANCH   3   6
ATOM      5  C   UNL     1      31.670  -8.541 -21.625  0.00  0.00    +0.006 C 
ATOM      6  C   UNL     1      31.778  -9.814 -22.072  0.00  0.00    +0.058 C 
BRANCH   5  16
ATOM      7  O   UNL     1      33.587  -2.626 -26.171  0.00  0.00    -0.275 OA
ATOM      8  N   UNL     1      32.418  -3.883 -24.647  0.00  0.00    -0.270 N 
ATOM      9  N   UNL     1      31.130  -5.170 -23.136  0.00  0.00    -0.229 NA
ATOM     10  C   UNL     1      34.478  -5.829 -24.748  0.00  0.00    +0.039 C 
ATOM     11  C   UNL     1      33.218  -6.058 -23.968  0.00  0.00    +0.010 C 
ATOM     12  C   UNL     1      34.215  -4.928 -25.946  0.00  0.00    +0.090 C 
ATOM     13  C   UNL     1      32.240  -5.067 -23.905  0.00  0.00    +0.130 C 
ATOM     14  C   UNL     1      33.033  -7.212 -23.205  0.00  0.00    +0.000 C 
ATOM     15  C   UNL     1      33.413  -3.695 -25.586  0.00  0.00    +0.227 C 
ATOM     16  C   UNL     1      31.891  -7.349 -22.425  0.00  0.00    +0.019 C 
ATOM     17  C   UNL     1      30.980  -6.307 -22.423  0.00  0.00    +0.100 C 
ATOM     18  H   UNL     1      31.791  -3.142 -24.486  0.00  0.00    +0.156 HD
ENDBRANCH   5  16
ENDBRANCH   3   6
BRANCH   2  19
ATOM     19  C   UNL     1      33.288 -12.268 -22.379  0.00  0.00    +0.122 C 
BRANCH  19  21
ATOM     20  N   UNL     1      34.573 -15.634 -21.789  0.00  0.00    -0.284 N 
ATOM     21  C   UNL     1      33.748 -13.685 -22.413  0.00  0.00    +0.014 C 
ATOM     22  C   UNL     1      33.719 -14.544 -23.537  0.00  0.00    +0.013 C 
ATOM     23  C   UNL     1      34.244 -15.768 -23.119  0.00  0.00    +0.051 C 
ATOM     24  C   UNL     1      34.276 -14.371 -21.353  0.00  0.00    +0.063 C 
ATOM     25  C   UNL     1      33.297 -14.409 -24.875  0.00  0.00    +0.001 C 
ATOM     26  C   UNL     1      34.368 -16.869 -23.974  0.00  0.00    +0.015 C 
ATOM     27  C   UNL     1      35.151 -16.670 -20.958  0.00  0.00    +0.117 C 
ATOM     28  C   UNL     1      33.416 -15.500 -25.742  0.00  0.00    +0.000 C 
ATOM     29  C   UNL     1      33.944 -16.710 -25.297  0.00  0.00    +0.001 C 
ENDBRANCH  19  21
ENDBRANCH   2  19
TORSDOF 4
ENDMDL
MODEL 8
REMARK VINA RESULT:      -9.9      3.828     10.815
REMARK  Name = 5288607
REMARK  4 active torsions:
REMARK  status: ('A' for Active; 'I' for Inactive)
REMARK    1  A    between atoms: N_2  and  C_19
REMARK    2  A    between atoms: C_3  and  C_6
REMARK    3  A    between atoms: C_5  and  C_16
REMARK    4  A    between atoms: C_19  and  C_21
REMARK                            x       y       z     vdW  Elec       q    Type
REMARK                         _______ _______ _______ _____ _____    ______ ____
ROOT
ATOM      1  O   UNL     1      37.192 -21.449 -17.919  0.00  0.00    -0.270 OA
ATOM      2  N   UNL     1      35.164 -22.428 -17.346  0.00  0.00    -0.270 N 
ATOM      3  C   UNL     1      36.005 -21.669 -18.163  0.00  0.00    +0.249 C 
ATOM      4  C   UNL     1      35.693 -23.009 -16.119  0.00  0.00    +0.116 C 
ENDROOT
BRANCH   3   6
ATOM      5  C   UNL     1      36.012 -20.101 -20.072  0.00  0.00    +0.006 C 
ATOM      6  C   UNL     1      35.379 -21.082 -19.385  0.00  0.00    +0.058 C 
BRANCH   5  16
ATOM      7  O   UNL     1      33.516 -15.794 -25.949  0.00  0.00    -0.275 OA
ATOM      8  N   UNL     1      33.958 -17.649 -24.671  0.00  0.00    -0.270 N 
ATOM      9  N   UNL     1      34.464 -19.600 -23.432  0.00  0.00    -0.229 NA
ATOM     10  C   UNL     1      34.879 -15.941 -22.603  0.00  0.00    +0.039 C 
ATOM     11  C   UNL     1      34.988 -17.433 -22.498  0.00  0.00    +0.010 C 
ATOM     12  C   UNL     1      34.955 -15.496 -24.056  0.00  0.00    +0.090 C 
ATOM     13  C   UNL     1      34.490 -18.248 -23.513  0.00  0.00    +0.130 C 
ATOM     14  C   UNL     1      35.489 -18.048 -21.349  0.00  0.00    +0.000 C 
ATOM     15  C   UNL     1      34.050 -16.303 -24.964  0.00  0.00    +0.227 C 
ATOM     16  C   UNL     1      35.493 -19.434 -21.252  0.00  0.00    +0.019 C 
ATOM     17  C   UNL     1      34.970 -20.158 -22.310  0.00  0.00    +0.100 C 
ATOM     18  H   UNL     1      33.488 -18.228 -25.313  0.00  0.00    +0.156 HD
ENDBRANCH   5  16
ENDBRANCH   3   6
BRANCH   2  19
ATOM     19  C   UNL     1      33.746 -22.674 -17.598  0.00  0.00    +0.122 C 
BRANCH  19  21
ATOM     20  N   UNL     1      32.785 -24.004 -14.337  0.00  0.00    -0.284 N 
ATOM     21  C   UNL     1      33.088 -23.146 -16.347  0.00  0.00    +0.014 C 
ATOM     22  C   UNL     1      31.703 -23.095 -16.063  0.00  0.00    +0.013 C 
ATOM     23  C   UNL     1      31.536 -23.642 -14.789  0.00  0.00    +0.051 C 
ATOM     24  C   UNL     1      33.733 -23.707 -15.278  0.00  0.00    +0.063 C 
ATOM     25  C   UNL     1      30.566 -22.637 -16.758  0.00  0.00    +0.001 C 
ATOM     26  C   UNL     1      30.284 -23.754 -14.173  0.00  0.00    +0.015 C 
ATOM     27  C   UNL     1      33.070 -24.612 -13.054  0.00  0.00    +0.117 C 
ATOM     28  C   UNL     1      29.308 -22.744 -16.156  0.00  0.00    +0.000 C 
ATOM     29  C   UNL     1      29.171 -23.294 -14.884  0.00  0.00    +0.001 C 
ENDBRANCH  19  21
ENDBRANCH   2  19
TORSDOF 4
ENDMDL
MODEL 9
REMARK VINA RESULT:      -9.8      2.208      9.249
REMARK  Name = 5288607
REMARK  4 active torsions:
REMARK  status: ('A' for Active; 'I' for Inactive)
REMARK    1  A    between atoms: N_2  and  C_19
REMARK    2  A    between atoms: C_3  and  C_6
REMARK    3  A    between atoms: C_5  and  C_16
REMARK    4  A    between atoms: C_19  and  C_21
REMARK                            x       y       z     vdW  Elec       q    Type
REMARK                         _______ _______ _______ _____ _____    ______ ____
ROOT
ATOM      1  O   UNL     1      34.133 -17.511 -25.053  0.00  0.00    -0.270 OA
ATOM      2  N   UNL     1      35.254 -18.135 -23.115  0.00  0.00    -0.270 N 
ATOM      3  C   UNL     1      34.584 -17.230 -23.942  0.00  0.00    +0.249 C 
ATOM      4  C   UNL     1      35.450 -19.507 -23.567  0.00  0.00    +0.116 C 
ENDROOT
BRANCH   3   6
ATOM      5  C   UNL     1      33.453 -15.036 -23.859  0.00  0.00    +0.006 C 
ATOM      6  C   UNL     1      34.452 -15.837 -23.419  0.00  0.00    +0.058 C 
BRANCH   5  16
ATOM      7  O   UNL     1      31.833  -8.061 -21.017  0.00  0.00    -0.275 OA
ATOM      8  N   UNL     1      32.698  -9.680 -22.397  0.00  0.00    -0.270 N 
ATOM      9  N   UNL     1      33.683 -11.310 -23.801  0.00  0.00    -0.229 NA
ATOM     10  C   UNL     1      31.271 -11.632 -20.917  0.00  0.00    +0.039 C 
ATOM     11  C   UNL     1      32.229 -12.016 -22.004  0.00  0.00    +0.010 C 
ATOM     12  C   UNL     1      31.698 -10.330 -20.256  0.00  0.00    +0.090 C 
ATOM     13  C   UNL     1      32.887 -11.033 -22.741  0.00  0.00    +0.130 C 
ATOM     14  C   UNL     1      32.412 -13.348 -22.379  0.00  0.00    +0.000 C 
ATOM     15  C   UNL     1      32.044  -9.250 -21.260  0.00  0.00    +0.227 C 
ATOM     16  C   UNL     1      33.241 -13.659 -23.450  0.00  0.00    +0.019 C 
ATOM     17  C   UNL     1      33.845 -12.612 -24.124  0.00  0.00    +0.100 C 
ATOM     18  H   UNL     1      33.057  -8.997 -23.007  0.00  0.00    +0.156 HD
ENDBRANCH   5  16
ENDBRANCH   3   6
BRANCH   2  19
ATOM     19  C   UNL     1      35.827 -17.815 -21.809  0.00  0.00    +0.122 C 
BRANCH  19  21
ATOM     20  N   UNL     1      36.402 -20.678 -19.618  0.00  0.00    -0.284 N 
ATOM     21  C   UNL     1      35.778 -19.019 -20.932  0.00  0.00    +0.014 C 
ATOM     22  C   UNL     1      34.618 -19.747 -20.580  0.00  0.00    +0.013 C 
ATOM     23  C   UNL     1      35.036 -20.789 -19.750  0.00  0.00    +0.051 C 
ATOM     24  C   UNL     1      36.860 -19.606 -20.334  0.00  0.00    +0.063 C 
ATOM     25  C   UNL     1      33.246 -19.628 -20.880  0.00  0.00    +0.001 C 
ATOM     26  C   UNL     1      34.148 -21.722 -19.202  0.00  0.00    +0.015 C 
ATOM     27  C   UNL     1      37.245 -21.560 -18.838  0.00  0.00    +0.117 C 
ATOM     28  C   UNL     1      32.346 -20.554 -20.341  0.00  0.00    +0.000 C 
ATOM     29  C   UNL     1      32.792 -21.584 -19.515  0.00  0.00    +0.001 C 
ENDBRANCH  19  21
ENDBRANCH   2  19
TORSDOF 4
ENDMDL
