MODEL 1
REMARK VINA RESULT:     -12.4      0.000      0.000
REMARK  Name = 204109
REMARK  5 active torsions:
REMARK  status: ('A' for Active; 'I' for Inactive)
REMARK    1  A    between atoms: C_1  and  C_20
REMARK    2  A    between atoms: C_9  and  O_11
REMARK    3  A    between atoms: O_11  and  C_12
REMARK    4  A    between atoms: C_12  and  C_14
REMARK    5  A    between atoms: C_20  and  C_25
REMARK                            x       y       z     vdW  Elec       q    Type
REMARK                         _______ _______ _______ _____ _____    ______ ____
ROOT
ATOM      1  C   UNL     1      35.793 -18.856 -21.436  0.00  0.00    -0.021 C 
ATOM      2  C   UNL     1      34.390 -20.395 -20.177  0.00  0.00    -0.000 C 
ATOM      3  C   UNL     1      34.532 -19.356 -21.111  0.00  0.00    -0.004 C 
ATOM      4  C   UNL     1      35.546 -20.934 -19.564  0.00  0.00    +0.003 C 
ATOM      5  C   UNL     1      36.929 -19.386 -20.832  0.00  0.00    -0.004 C 
ATOM      6  C   UNL     1      36.808 -20.420 -19.902  0.00  0.00    -0.000 C 
ATOM      7  C   UNL     1      35.405 -21.974 -18.630  0.00  0.00    +0.037 C 
ATOM      8  C   UNL     1      33.129 -20.910 -19.839  0.00  0.00    +0.003 C 
ATOM      9  C   UNL     1      34.143 -22.474 -18.305  0.00  0.00    +0.139 C 
ATOM     10  C   UNL     1      33.007 -21.943 -18.909  0.00  0.00    +0.037 C 
ENDROOT
BRANCH   9  11
ATOM     11  O   UNL     1      34.022 -23.482 -17.399  0.00  0.00    -0.471 OA
BRANCH  11  12
ATOM     12  C   UNL     1      34.159 -23.138 -16.022  0.00  0.00    +0.234 C 
BRANCH  12  14
ATOM     13  F   UNL     1      34.277 -24.708 -13.675  0.00  0.00    -0.204 F 
ATOM     14  C   UNL     1      32.948 -23.506 -15.233  0.00  0.00    +0.049 C 
ATOM     15  C   UNL     1      33.072 -24.285 -14.083  0.00  0.00    +0.140 C 
ATOM     16  C   UNL     1      31.690 -23.071 -15.649  0.00  0.00    +0.002 C 
ATOM     17  C   UNL     1      31.938 -24.628 -13.347  0.00  0.00    +0.029 C 
ATOM     18  C   UNL     1      30.555 -23.415 -14.913  0.00  0.00    -0.000 C 
ATOM     19  C   UNL     1      30.679 -24.192 -13.762  0.00  0.00    +0.002 C 
ENDBRANCH  12  14
ENDBRANCH  11  12
ENDBRANCH   9  11
BRANCH   1  20
ATOM     20  C   UNL     1      35.924 -17.752 -22.430  0.00  0.00    +0.047 C 
BRANCH  20  25
ATOM     21  S   UNL     1      34.268 -17.531 -24.628  0.00  0.00    -0.048 S 
ATOM     22  O   UNL     1      34.716 -15.110 -21.656  0.00  0.00    -0.274 OA
ATOM     23  O   UNL     1      33.754 -15.457 -26.159  0.00  0.00    -0.263 OA
ATOM     24  N   UNL     1      34.202 -15.081 -23.910  0.00  0.00    -0.246 N 
ATOM     25  C   UNL     1      34.569 -17.198 -22.865  0.00  0.00    +0.137 C 
ATOM     26  C   UNL     1      34.513 -15.694 -22.715  0.00  0.00    +0.239 C 
ATOM     27  C   UNL     1      34.028 -15.845 -25.034  0.00  0.00    +0.279 C 
ATOM     28  H   UNL     1      34.107 -14.102 -23.957  0.00  0.00    +0.158 HD
ENDBRANCH  20  25
ENDBRANCH   1  20
TORSDOF 5
ENDMDL
MODEL 2
REMARK VINA RESULT:     -12.2      4.665      9.880
REMARK  Name = 204109
REMARK  5 active torsions:
REMARK  status: ('A' for Active; 'I' for Inactive)
REMARK    1  A    between atoms: C_1  and  C_20
REMARK    2  A    between atoms: C_9  and  O_11
REMARK    3  A    between atoms: O_11  and  C_12
REMARK    4  A    between atoms: C_12  and  C_14
REMARK    5  A    between atoms: C_20  and  C_25
REMARK                            x       y       z     vdW  Elec       q    Type
REMARK                         _______ _______ _______ _____ _____    ______ ____
ROOT
ATOM      1  C   UNL     1      33.747 -22.347 -18.420  0.00  0.00    -0.021 C 
ATOM      2  C   UNL     1      35.334 -20.926 -19.595  0.00  0.00    -0.000 C 
ATOM      3  C   UNL     1      35.060 -21.949 -18.673  0.00  0.00    -0.004 C 
ATOM      4  C   UNL     1      34.261 -20.297 -20.270  0.00  0.00    +0.003 C 
ATOM      5  C   UNL     1      32.692 -21.729 -19.084  0.00  0.00    -0.004 C 
ATOM      6  C   UNL     1      32.945 -20.711 -20.005  0.00  0.00    -0.000 C 
ATOM      7  C   UNL     1      34.535 -19.274 -21.192  0.00  0.00    +0.037 C 
ATOM      8  C   UNL     1      36.650 -20.512 -19.861  0.00  0.00    +0.003 C 
ATOM      9  C   UNL     1      35.848 -18.876 -21.444  0.00  0.00    +0.139 C 
ATOM     10  C   UNL     1      36.903 -19.494 -20.780  0.00  0.00    +0.037 C 
ENDROOT
BRANCH   9  11
ATOM     11  O   UNL     1      36.099 -17.883 -22.342  0.00  0.00    -0.471 OA
BRANCH  11  12
ATOM     12  C   UNL     1      35.063 -17.572 -23.272  0.00  0.00    +0.234 C 
BRANCH  12  14
ATOM     13  F   UNL     1      34.116 -16.059 -25.463  0.00  0.00    -0.204 F 
ATOM     14  C   UNL     1      34.606 -16.158 -23.142  0.00  0.00    +0.049 C 
ATOM     15  C   UNL     1      34.149 -15.465 -24.262  0.00  0.00    +0.140 C 
ATOM     16  C   UNL     1      34.636 -15.530 -21.897  0.00  0.00    +0.002 C 
ATOM     17  C   UNL     1      33.721 -14.142 -24.137  0.00  0.00    +0.029 C 
ATOM     18  C   UNL     1      34.209 -14.207 -21.772  0.00  0.00    -0.000 C 
ATOM     19  C   UNL     1      33.751 -13.514 -22.892  0.00  0.00    +0.002 C 
ENDBRANCH  12  14
ENDBRANCH  11  12
ENDBRANCH   9  11
BRANCH   1  20
ATOM     20  C   UNL     1      33.474 -23.435 -17.438  0.00  0.00    +0.047 C 
BRANCH  20  25
ATOM     21  S   UNL     1      33.893 -23.714 -14.723  0.00  0.00    -0.048 S 
ATOM     22  O   UNL     1      30.652 -22.810 -16.613  0.00  0.00    -0.274 OA
ATOM     23  O   UNL     1      32.422 -24.900 -12.896  0.00  0.00    -0.263 OA
ATOM     24  N   UNL     1      31.345 -23.890 -14.690  0.00  0.00    -0.246 N 
ATOM     25  C   UNL     1      33.009 -22.896 -16.087  0.00  0.00    +0.137 C 
ATOM     26  C   UNL     1      31.542 -23.178 -15.855  0.00  0.00    +0.239 C 
ATOM     27  C   UNL     1      32.428 -24.270 -13.942  0.00  0.00    +0.279 C 
ATOM     28  H   UNL     1      30.434 -24.123 -14.398  0.00  0.00    +0.158 HD
ENDBRANCH  20  25
ENDBRANCH   1  20
TORSDOF 5
ENDMDL
MODEL 3
REMARK VINA RESULT:     -12.1      1.680      2.538
REMARK  Name = 204109
REMARK  5 active torsions:
REMARK  status: ('A' for Active; 'I' for Inactive)
REMARK    1  A    between atoms: C_1  and  C_20
REMARK    2  A    between atoms: C_9  and  O_11
REMARK    3  A    between atoms: O_11  and  C_12
REMARK    4  A    between atoms: C_12  and  C_14
REMARK    5  A    between atoms: C_20  and  C_25
REMARK                            x       y       z     vdW  Elec       q    Type
REMARK                         _______ _______ _______ _____ _____    ______ ____
ROOT
ATOM      1  C   UNL     1      35.776 -18.852 -21.452  0.00  0.00    -0.021 C 
ATOM      2  C   UNL     1      34.376 -20.382 -20.178  0.00  0.00    -0.000 C 
ATOM      3  C   UNL     1      34.514 -19.344 -21.114  0.00  0.00    -0.004 C 
ATOM      4  C   UNL     1      35.534 -20.929 -19.576  0.00  0.00    +0.003 C 
ATOM      5  C   UNL     1      36.914 -19.391 -20.859  0.00  0.00    -0.004 C 
ATOM      6  C   UNL     1      36.796 -20.423 -19.928  0.00  0.00    -0.000 C 
ATOM      7  C   UNL     1      35.396 -21.967 -18.640  0.00  0.00    +0.037 C 
ATOM      8  C   UNL     1      33.114 -20.888 -19.827  0.00  0.00    +0.003 C 
ATOM      9  C   UNL     1      34.134 -22.458 -18.303  0.00  0.00    +0.139 C 
ATOM     10  C   UNL     1      32.995 -21.920 -18.895  0.00  0.00    +0.037 C 
ENDROOT
BRANCH   9  11
ATOM     11  O   UNL     1      34.015 -23.465 -17.394  0.00  0.00    -0.471 OA
BRANCH  11  12
ATOM     12  C   UNL     1      34.084 -23.108 -16.015  0.00  0.00    +0.234 C 
BRANCH  12  14
ATOM     13  F   UNL     1      36.532 -21.733 -15.695  0.00  0.00    -0.204 F 
ATOM     14  C   UNL     1      35.269 -23.712 -15.343  0.00  0.00    +0.049 C 
ATOM     15  C   UNL     1      36.450 -22.982 -15.216  0.00  0.00    +0.140 C 
ATOM     16  C   UNL     1      35.196 -25.011 -14.841  0.00  0.00    +0.002 C 
ATOM     17  C   UNL     1      37.558 -23.550 -14.585  0.00  0.00    +0.029 C 
ATOM     18  C   UNL     1      36.303 -25.580 -14.211  0.00  0.00    -0.000 C 
ATOM     19  C   UNL     1      37.484 -24.849 -14.082  0.00  0.00    +0.002 C 
ENDBRANCH  12  14
ENDBRANCH  11  12
ENDBRANCH   9  11
BRANCH   1  20
ATOM     20  C   UNL     1      35.904 -17.750 -22.448  0.00  0.00    +0.047 C 
BRANCH  20  25
ATOM     21  S   UNL     1      34.238 -17.540 -24.640  0.00  0.00    -0.048 S 
ATOM     22  O   UNL     1      34.703 -15.102 -21.684  0.00  0.00    -0.274 OA
ATOM     23  O   UNL     1      33.720 -15.474 -26.181  0.00  0.00    -0.263 OA
ATOM     24  N   UNL     1      34.180 -15.085 -23.936  0.00  0.00    -0.246 N 
ATOM     25  C   UNL     1      34.548 -17.197 -22.880  0.00  0.00    +0.137 C 
ATOM     26  C   UNL     1      34.495 -15.692 -22.738  0.00  0.00    +0.239 C 
ATOM     27  C   UNL     1      33.999 -15.856 -25.054  0.00  0.00    +0.279 C 
ATOM     28  H   UNL     1      34.086 -14.107 -23.988  0.00  0.00    +0.158 HD
ENDBRANCH  20  25
ENDBRANCH   1  20
TORSDOF 5
ENDMDL
MODEL 4
REMARK VINA RESULT:     -12.0      4.659      9.770
REMARK  Name = 204109
REMARK  5 active torsions:
REMARK  status: ('A' for Active; 'I' for Inactive)
REMARK    1  A    between atoms: C_1  and  C_20
REMARK    2  A    between atoms: C_9  and  O_11
REMARK    3  A    between atoms: O_11  and  C_12
REMARK    4  A    between atoms: C_12  and  C_14
REMARK    5  A    between atoms: C_20  and  C_25
REMARK                            x       y       z     vdW  Elec       q    Type
REMARK                         _______ _______ _______ _____ _____    ______ ____
ROOT
ATOM      1  C   UNL     1      33.568 -22.894 -17.427  0.00  0.00    -0.021 C 
ATOM      2  C   UNL     1      33.578 -21.330 -19.290  0.00  0.00    -0.000 C 
ATOM      3  C   UNL     1      32.883 -22.160 -18.395  0.00  0.00    -0.004 C 
ATOM      4  C   UNL     1      34.988 -21.243 -19.200  0.00  0.00    +0.003 C 
ATOM      5  C   UNL     1      34.954 -22.809 -17.339  0.00  0.00    -0.004 C 
ATOM      6  C   UNL     1      35.661 -21.988 -18.219  0.00  0.00    -0.000 C 
ATOM      7  C   UNL     1      35.683 -20.413 -20.094  0.00  0.00    +0.037 C 
ATOM      8  C   UNL     1      32.905 -20.584 -20.271  0.00  0.00    +0.003 C 
ATOM      9  C   UNL     1      34.998 -19.679 -21.064  0.00  0.00    +0.139 C 
ATOM     10  C   UNL     1      33.611 -19.764 -21.151  0.00  0.00    +0.037 C 
ENDROOT
BRANCH   9  11
ATOM     11  O   UNL     1      35.685 -18.877 -21.923  0.00  0.00    -0.471 OA
BRANCH  11  12
ATOM     12  C   UNL     1      35.656 -17.474 -21.667  0.00  0.00    +0.234 C 
BRANCH  12  14
ATOM     13  F   UNL     1      34.768 -14.810 -21.351  0.00  0.00    -0.204 F 
ATOM     14  C   UNL     1      34.940 -16.728 -22.741  0.00  0.00    +0.049 C 
ATOM     15  C   UNL     1      34.526 -15.414 -22.523  0.00  0.00    +0.140 C 
ATOM     16  C   UNL     1      34.682 -17.346 -23.964  0.00  0.00    +0.002 C 
ATOM     17  C   UNL     1      33.856 -14.717 -23.529  0.00  0.00    +0.029 C 
ATOM     18  C   UNL     1      34.011 -16.650 -24.970  0.00  0.00    -0.000 C 
ATOM     19  C   UNL     1      33.599 -15.336 -24.753  0.00  0.00    +0.002 C 
ENDBRANCH  12  14
ENDBRANCH  11  12
ENDBRANCH   9  11
BRANCH   1  20
ATOM     20  C   UNL     1      32.814 -23.771 -16.485  0.00  0.00    +0.047 C 
BRANCH  20  25
ATOM     21  S   UNL     1      32.535 -23.603 -13.743  0.00  0.00    -0.048 S 
ATOM     22  O   UNL     1      29.962 -22.819 -16.512  0.00  0.00    -0.274 OA
ATOM     23  O   UNL     1      30.546 -24.351 -12.195  0.00  0.00    -0.263 OA
ATOM     24  N   UNL     1      30.050 -23.594 -14.336  0.00  0.00    -0.246 N 
ATOM     25  C   UNL     1      32.100 -22.975 -15.395  0.00  0.00    +0.137 C 
ATOM     26  C   UNL     1      30.598 -23.111 -15.506  0.00  0.00    +0.239 C 
ATOM     27  C   UNL     1      30.873 -23.913 -13.288  0.00  0.00    +0.279 C 
ATOM     28  H   UNL     1      29.076 -23.710 -14.255  0.00  0.00    +0.158 HD
ENDBRANCH  20  25
ENDBRANCH   1  20
TORSDOF 5
ENDMDL
MODEL 5
REMARK VINA RESULT:     -12.0      5.023     10.185
REMARK  Name = 204109
REMARK  5 active torsions:
REMARK  status: ('A' for Active; 'I' for Inactive)
REMARK    1  A    between atoms: C_1  and  C_20
REMARK    2  A    between atoms: C_9  and  O_11
REMARK    3  A    between atoms: O_11  and  C_12
REMARK    4  A    between atoms: C_12  and  C_14
REMARK    5  A    between atoms: C_20  and  C_25
REMARK                            x       y       z     vdW  Elec       q    Type
REMARK                         _______ _______ _______ _____ _____    ______ ____
ROOT
ATOM      1  C   UNL     1      34.632 -23.511 -16.110  0.00  0.00    -0.021 C 
ATOM      2  C   UNL     1      35.143 -22.090 -18.018  0.00  0.00    -0.000 C 
ATOM      3  C   UNL     1      35.562 -22.851 -16.914  0.00  0.00    -0.004 C 
ATOM      4  C   UNL     1      33.761 -21.998 -18.310  0.00  0.00    +0.003 C 
ATOM      5  C   UNL     1      33.274 -23.420 -16.398  0.00  0.00    -0.004 C 
ATOM      6  C   UNL     1      32.839 -22.670 -17.491  0.00  0.00    -0.000 C 
ATOM      7  C   UNL     1      33.342 -21.237 -19.414  0.00  0.00    +0.037 C 
ATOM      8  C   UNL     1      36.064 -21.418 -18.838  0.00  0.00    +0.003 C 
ATOM      9  C   UNL     1      34.272 -20.576 -20.217  0.00  0.00    +0.139 C 
ATOM     10  C   UNL     1      35.631 -20.667 -19.930  0.00  0.00    +0.037 C 
ENDROOT
BRANCH   9  11
ATOM     11  O   UNL     1      33.851 -19.843 -21.285  0.00  0.00    -0.471 OA
BRANCH  11  12
ATOM     12  C   UNL     1      34.783 -19.646 -22.346  0.00  0.00    +0.234 C 
BRANCH  12  14
ATOM     13  F   UNL     1      35.486 -17.297 -20.941  0.00  0.00    -0.204 F 
ATOM     14  C   UNL     1      34.669 -18.284 -22.941  0.00  0.00    +0.049 C 
ATOM     15  C   UNL     1      35.033 -17.163 -22.195  0.00  0.00    +0.140 C 
ATOM     16  C   UNL     1      34.197 -18.132 -24.244  0.00  0.00    +0.002 C 
ATOM     17  C   UNL     1      34.925 -15.888 -22.754  0.00  0.00    +0.029 C 
ATOM     18  C   UNL     1      34.089 -16.858 -24.803  0.00  0.00    -0.000 C 
ATOM     19  C   UNL     1      34.454 -15.737 -24.059  0.00  0.00    +0.002 C 
ENDBRANCH  12  14
ENDBRANCH  11  12
ENDBRANCH   9  11
BRANCH   1  20
ATOM     20  C   UNL     1      35.095 -24.315 -14.942  0.00  0.00    +0.047 C 
BRANCH  20  25
ATOM     21  S   UNL     1      36.924 -23.417 -13.080  0.00  0.00    -0.048 S 
ATOM     22  O   UNL     1      33.202 -24.320 -12.607  0.00  0.00    -0.274 OA
ATOM     23  O   UNL     1      37.367 -24.222 -10.617  0.00  0.00    -0.263 OA
ATOM     24  N   UNL     1      35.196 -24.336 -11.438  0.00  0.00    -0.246 N 
ATOM     25  C   UNL     1      35.204 -23.479 -13.669  0.00  0.00    +0.137 C 
ATOM     26  C   UNL     1      34.403 -24.088 -12.539  0.00  0.00    +0.239 C 
ATOM     27  C   UNL     1      36.537 -24.059 -11.498  0.00  0.00    +0.279 C 
ATOM     28  H   UNL     1      34.803 -24.709 -10.617  0.00  0.00    +0.158 HD
ENDBRANCH  20  25
ENDBRANCH   1  20
TORSDOF 5
ENDMDL
MODEL 6
REMARK VINA RESULT:     -11.9      1.166      2.039
REMARK  Name = 204109
REMARK  5 active torsions:
REMARK  status: ('A' for Active; 'I' for Inactive)
REMARK    1  A    between atoms: C_1  and  C_20
REMARK    2  A    between atoms: C_9  and  O_11
REMARK    3  A    between atoms: O_11  and  C_12
REMARK    4  A    between atoms: C_12  and  C_14
REMARK    5  A    between atoms: C_20  and  C_25
REMARK                            x       y       z     vdW  Elec       q    Type
REMARK                         _______ _______ _______ _____ _____    ______ ____
ROOT
ATOM      1  C   UNL     1      34.852 -19.946 -20.970  0.00  0.00    -0.021 C 
ATOM      2  C   UNL     1      35.191 -21.337 -19.002  0.00  0.00    -0.000 C 
ATOM      3  C   UNL     1      35.702 -20.525 -20.027  0.00  0.00    -0.004 C 
ATOM      4  C   UNL     1      33.796 -21.565 -18.932  0.00  0.00    +0.003 C 
ATOM      5  C   UNL     1      33.480 -20.171 -20.900  0.00  0.00    -0.004 C 
ATOM      6  C   UNL     1      32.953 -20.974 -19.888  0.00  0.00    -0.000 C 
ATOM      7  C   UNL     1      33.284 -22.376 -17.906  0.00  0.00    +0.037 C 
ATOM      8  C   UNL     1      36.032 -21.927 -18.045  0.00  0.00    +0.003 C 
ATOM      9  C   UNL     1      34.135 -22.955 -16.964  0.00  0.00    +0.139 C 
ATOM     10  C   UNL     1      35.507 -22.730 -17.033  0.00  0.00    +0.037 C 
ENDROOT
BRANCH   9  11
ATOM     11  O   UNL     1      33.624 -23.739 -15.975  0.00  0.00    -0.471 OA
BRANCH  11  12
ATOM     12  C   UNL     1      32.795 -23.103 -15.005  0.00  0.00    +0.234 C 
BRANCH  12  14
ATOM     13  F   UNL     1      32.127 -25.328 -13.394  0.00  0.00    -0.204 F 
ATOM     14  C   UNL     1      31.427 -23.694 -14.969  0.00  0.00    +0.049 C 
ATOM     15  C   UNL     1      31.160 -24.793 -14.152  0.00  0.00    +0.140 C 
ATOM     16  C   UNL     1      30.413 -23.146 -15.754  0.00  0.00    +0.002 C 
ATOM     17  C   UNL     1      29.878 -25.344 -14.120  0.00  0.00    +0.029 C 
ATOM     18  C   UNL     1      29.131 -23.697 -15.723  0.00  0.00    -0.000 C 
ATOM     19  C   UNL     1      28.864 -24.795 -14.906  0.00  0.00    +0.002 C 
ENDBRANCH  12  14
ENDBRANCH  11  12
ENDBRANCH   9  11
BRANCH   1  20
ATOM     20  C   UNL     1      35.412 -19.087 -22.052  0.00  0.00    +0.047 C 
BRANCH  20  25
ATOM     21  S   UNL     1      34.210 -18.213 -24.378  0.00  0.00    -0.048 S 
ATOM     22  O   UNL     1      35.116 -16.219 -21.201  0.00  0.00    -0.274 OA
ATOM     23  O   UNL     1      34.635 -16.037 -25.790  0.00  0.00    -0.263 OA
ATOM     24  N   UNL     1      34.916 -15.927 -23.485  0.00  0.00    -0.246 N 
ATOM     25  C   UNL     1      34.396 -18.073 -22.574  0.00  0.00    +0.137 C 
ATOM     26  C   UNL     1      34.850 -16.654 -22.315  0.00  0.00    +0.239 C 
ATOM     27  C   UNL     1      34.621 -16.538 -24.676  0.00  0.00    +0.279 C 
ATOM     28  H   UNL     1      35.173 -14.977 -23.466  0.00  0.00    +0.158 HD
ENDBRANCH  20  25
ENDBRANCH   1  20
TORSDOF 5
ENDMDL
MODEL 7
REMARK VINA RESULT:     -11.5      2.336      3.167
REMARK  Name = 204109
REMARK  5 active torsions:
REMARK  status: ('A' for Active; 'I' for Inactive)
REMARK    1  A    between atoms: C_1  and  C_20
REMARK    2  A    between atoms: C_9  and  O_11
REMARK    3  A    between atoms: O_11  and  C_12
REMARK    4  A    between atoms: C_12  and  C_14
REMARK    5  A    between atoms: C_20  and  C_25
REMARK                            x       y       z     vdW  Elec       q    Type
REMARK                         _______ _______ _______ _____ _____    ______ ____
ROOT
ATOM      1  C   UNL     1      34.934 -18.570 -22.439  0.00  0.00    -0.021 C 
ATOM      2  C   UNL     1      34.727 -20.181 -20.627  0.00  0.00    -0.000 C 
ATOM      3  C   UNL     1      34.153 -19.429 -21.665  0.00  0.00    -0.004 C 
ATOM      4  C   UNL     1      36.113 -20.060 -20.370  0.00  0.00    +0.003 C 
ATOM      5  C   UNL     1      36.298 -18.451 -22.185  0.00  0.00    -0.004 C 
ATOM      6  C   UNL     1      36.885 -19.191 -21.159  0.00  0.00    -0.000 C 
ATOM      7  C   UNL     1      36.687 -20.812 -19.333  0.00  0.00    +0.037 C 
ATOM      8  C   UNL     1      33.956 -21.051 -19.839  0.00  0.00    +0.003 C 
ATOM      9  C   UNL     1      35.905 -21.672 -18.559  0.00  0.00    +0.139 C 
ATOM     10  C   UNL     1      34.542 -21.791 -18.813  0.00  0.00    +0.037 C 
ENDROOT
BRANCH   9  11
ATOM     11  O   UNL     1      36.476 -22.395 -17.557  0.00  0.00    -0.471 OA
BRANCH  11  12
ATOM     12  C   UNL     1      36.278 -21.928 -16.224  0.00  0.00    +0.234 C 
BRANCH  12  14
ATOM     13  F   UNL     1      38.701 -23.275 -15.669  0.00  0.00    -0.204 F 
ATOM     14  C   UNL     1      36.380 -23.032 -15.227  0.00  0.00    +0.049 C 
ATOM     15  C   UNL     1      37.606 -23.657 -14.998  0.00  0.00    +0.140 C 
ATOM     16  C   UNL     1      35.247 -23.439 -14.524  0.00  0.00    +0.002 C 
ATOM     17  C   UNL     1      37.698 -24.690 -14.064  0.00  0.00    +0.029 C 
ATOM     18  C   UNL     1      35.339 -24.472 -13.590  0.00  0.00    -0.000 C 
ATOM     19  C   UNL     1      36.564 -25.097 -13.360  0.00  0.00    +0.002 C 
ENDBRANCH  12  14
ENDBRANCH  11  12
ENDBRANCH   9  11
BRANCH   1  20
ATOM     20  C   UNL     1      34.308 -17.779 -23.537  0.00  0.00    +0.047 C 
BRANCH  20  25
ATOM     21  S   UNL     1      34.470 -15.453 -22.057  0.00  0.00    -0.048 S 
ATOM     22  O   UNL     1      34.181 -15.899 -25.880  0.00  0.00    -0.274 OA
ATOM     23  O   UNL     1      33.123 -13.207 -22.280  0.00  0.00    -0.263 OA
ATOM     24  N   UNL     1      33.571 -14.419 -24.212  0.00  0.00    -0.246 N 
ATOM     25  C   UNL     1      34.839 -16.348 -23.598  0.00  0.00    +0.137 C 
ATOM     26  C   UNL     1      34.173 -15.559 -24.702  0.00  0.00    +0.239 C 
ATOM     27  C   UNL     1      33.606 -14.164 -22.866  0.00  0.00    +0.279 C 
ATOM     28  H   UNL     1      33.119 -13.794 -24.823  0.00  0.00    +0.158 HD
ENDBRANCH  20  25
ENDBRANCH   1  20
TORSDOF 5
ENDMDL
MODEL 8
REMARK VINA RESULT:     -11.4      4.688      9.927
REMARK  Name = 204109
REMARK  5 active torsions:
REMARK  status: ('A' for Active; 'I' for Inactive)
REMARK    1  A    between atoms: C_1  and  C_20
REMARK    2  A    between atoms: C_9  and  O_11
REMARK    3  A    between atoms: O_11  and  C_12
REMARK    4  A    between atoms: C_12  and  C_14
REMARK    5  A    between atoms: C_20  and  C_25
REMARK                            x       y       z     vdW  Elec       q    Type
REMARK                         _______ _______ _______ _____ _____    ______ ____
ROOT
ATOM      1  C   UNL     1      34.245 -22.678 -17.499  0.00  0.00    -0.021 C 
ATOM      2  C   UNL     1      33.846 -21.239 -19.419  0.00  0.00    -0.000 C 
ATOM      3  C   UNL     1      33.366 -22.075 -18.398  0.00  0.00    -0.004 C 
ATOM      4  C   UNL     1      35.238 -21.013 -19.530  0.00  0.00    +0.003 C 
ATOM      5  C   UNL     1      35.615 -22.455 -17.608  0.00  0.00    -0.004 C 
ATOM      6  C   UNL     1      36.110 -21.627 -18.616  0.00  0.00    -0.000 C 
ATOM      7  C   UNL     1      35.719 -20.177 -20.551  0.00  0.00    +0.037 C 
ATOM      8  C   UNL     1      32.975 -20.624 -20.333  0.00  0.00    +0.003 C 
ATOM      9  C   UNL     1      34.839 -19.573 -21.451  0.00  0.00    +0.139 C 
ATOM     10  C   UNL     1      33.469 -19.797 -21.341  0.00  0.00    +0.037 C 
ENDROOT
BRANCH   9  11
ATOM     11  O   UNL     1      35.319 -18.765 -22.435  0.00  0.00    -0.471 OA
BRANCH  11  12
ATOM     12  C   UNL     1      35.538 -17.396 -22.102  0.00  0.00    +0.234 C 
BRANCH  12  14
ATOM     13  F   UNL     1      34.452 -18.227 -24.576  0.00  0.00    -0.204 F 
ATOM     14  C   UNL     1      34.790 -16.477 -23.008  0.00  0.00    +0.049 C 
ATOM     15  C   UNL     1      34.278 -16.948 -24.216  0.00  0.00    +0.140 C 
ATOM     16  C   UNL     1      34.604 -15.143 -22.644  0.00  0.00    +0.002 C 
ATOM     17  C   UNL     1      33.579 -16.086 -25.061  0.00  0.00    +0.029 C 
ATOM     18  C   UNL     1      33.906 -14.280 -23.489  0.00  0.00    -0.000 C 
ATOM     19  C   UNL     1      33.392 -14.752 -24.697  0.00  0.00    +0.002 C 
ENDBRANCH  12  14
ENDBRANCH  11  12
ENDBRANCH   9  11
BRANCH   1  20
ATOM     20  C   UNL     1      33.718 -23.563 -16.420  0.00  0.00    +0.047 C 
BRANCH  20  25
ATOM     21  S   UNL     1      35.137 -23.749 -14.059  0.00  0.00    -0.048 S 
ATOM     22  O   UNL     1      31.471 -22.684 -14.626  0.00  0.00    -0.274 OA
ATOM     23  O   UNL     1      34.424 -24.735 -11.728  0.00  0.00    -0.263 OA
ATOM     24  N   UNL     1      32.794 -23.726 -13.042  0.00  0.00    -0.246 N 
ATOM     25  C   UNL     1      33.840 -22.928 -15.036  0.00  0.00    +0.137 C 
ATOM     26  C   UNL     1      32.563 -23.085 -14.242  0.00  0.00    +0.239 C 
ATOM     27  C   UNL     1      34.059 -24.155 -12.740  0.00  0.00    +0.279 C 
ATOM     28  H   UNL     1      32.055 -23.875 -12.409  0.00  0.00    +0.158 HD
ENDBRANCH  20  25
ENDBRANCH   1  20
TORSDOF 5
ENDMDL
MODEL 9
REMARK VINA RESULT:     -11.4      2.862      4.011
REMARK  Name = 204109
REMARK  5 active torsions:
REMARK  status: ('A' for Active; 'I' for Inactive)
REMARK    1  A    between atoms: C_1  and  C_20
REMARK    2  A    between atoms: C_9  and  O_11
REMARK    3  A    between atoms: O_11  and  C_12
REMARK    4  A    between atoms: C_12  and  C_14
REMARK    5  A    between atoms: C_20  and  C_25
REMARK                            x       y       z     vdW  Elec       q    Type
REMARK                         _______ _______ _______ _____ _____    ______ ____
ROOT
ATOM      1  C   UNL     1      34.113 -20.586 -20.252  0.00  0.00    -0.021 C 
ATOM      2  C   UNL     1      33.484 -21.938 -18.330  0.00  0.00    -0.000 C 
ATOM      3  C   UNL     1      33.131 -21.166 -19.448  0.00  0.00    -0.004 C 
ATOM      4  C   UNL     1      34.853 -22.126 -18.023  0.00  0.00    +0.003 C 
ATOM      5  C   UNL     1      35.459 -20.770 -19.950  0.00  0.00    -0.004 C 
ATOM      6  C   UNL     1      35.829 -21.536 -18.844  0.00  0.00    -0.000 C 
ATOM      7  C   UNL     1      35.207 -22.899 -16.906  0.00  0.00    +0.037 C 
ATOM      8  C   UNL     1      32.510 -22.529 -17.509  0.00  0.00    +0.003 C 
ATOM      9  C   UNL     1      34.225 -23.478 -16.101  0.00  0.00    +0.139 C 
ATOM     10  C   UNL     1      32.879 -23.294 -16.403  0.00  0.00    +0.037 C 
ENDROOT
BRANCH   9  11
ATOM     11  O   UNL     1      34.583 -24.226 -15.021  0.00  0.00    -0.471 OA
BRANCH  11  12
ATOM     12  C   UNL     1      35.356 -23.580 -14.011  0.00  0.00    +0.234 C 
BRANCH  12  14
ATOM     13  F   UNL     1      37.841 -23.469 -15.353  0.00  0.00    -0.204 F 
ATOM     14  C   UNL     1      36.533 -24.399 -13.603  0.00  0.00    +0.049 C 
ATOM     15  C   UNL     1      37.733 -24.299 -14.306  0.00  0.00    +0.140 C 
ATOM     16  C   UNL     1      36.432 -25.267 -12.515  0.00  0.00    +0.002 C 
ATOM     17  C   UNL     1      38.833 -25.067 -13.921  0.00  0.00    +0.029 C 
ATOM     18  C   UNL     1      37.531 -26.035 -12.131  0.00  0.00    -0.000 C 
ATOM     19  C   UNL     1      38.732 -25.934 -12.833  0.00  0.00    +0.002 C 
ENDBRANCH  12  14
ENDBRANCH  11  12
ENDBRANCH   9  11
BRANCH   1  20
ATOM     20  C   UNL     1      33.719 -19.768 -21.435  0.00  0.00    +0.047 C 
BRANCH  20  25
ATOM     21  S   UNL     1      35.163 -17.419 -21.301  0.00  0.00    -0.048 S 
ATOM     22  O   UNL     1      34.427 -19.661 -24.355  0.00  0.00    -0.274 OA
ATOM     23  O   UNL     1      35.165 -15.338 -22.908  0.00  0.00    -0.263 OA
ATOM     24  N   UNL     1      34.788 -17.439 -23.828  0.00  0.00    -0.246 N 
ATOM     25  C   UNL     1      34.910 -19.049 -22.067  0.00  0.00    +0.137 C 
ATOM     26  C   UNL     1      34.677 -18.783 -23.537  0.00  0.00    +0.239 C 
ATOM     27  C   UNL     1      35.041 -16.550 -22.816  0.00  0.00    +0.279 C 
ATOM     28  H   UNL     1      34.685 -17.121 -24.753  0.00  0.00    +0.158 HD
ENDBRANCH  20  25
ENDBRANCH   1  20
TORSDOF 5
ENDMDL
