MODEL 1
REMARK VINA RESULT:     -11.5      0.000      0.000
REMARK  Name = 6323454
REMARK  1 active torsions:
REMARK  status: ('A' for Active; 'I' for Inactive)
REMARK    1  A    between atoms: C_18  and  O_22
REMARK                            x       y       z     vdW  Elec       q    Type
REMARK                         _______ _______ _______ _____ _____    ______ ____
ROOT
ATOM      1  O   UNL     1      33.679 -24.655 -12.897  0.00  0.00    -0.350 OA
ATOM      2  O   UNL     1      36.854 -23.118 -12.826  0.00  0.00    -0.445 OA
ATOM      3  O   UNL     1      37.512 -22.724 -15.509  0.00  0.00    -0.287 OA
ATOM      4  O   UNL     1      37.554 -23.055 -10.630  0.00  0.00    -0.250 OA
ATOM      5  O   UNL     1      32.408 -23.533 -16.817  0.00  0.00    -0.287 OA
ATOM      6  C   UNL     1      34.691 -23.761 -12.485  0.00  0.00    +0.171 C 
ATOM      7  C   UNL     1      35.826 -23.859 -13.473  0.00  0.00    +0.221 C 
ATOM      8  C   UNL     1      35.347 -23.383 -14.810  0.00  0.00    +0.060 C 
ATOM      9  C   UNL     1      33.061 -24.206 -14.132  0.00  0.00    +0.141 C 
ATOM     10  C   UNL     1      34.050 -23.572 -15.121  0.00  0.00    +0.046 C 
ATOM     11  C   UNL     1      35.425 -24.087 -11.208  0.00  0.00    +0.143 C 
ATOM     12  C   UNL     1      36.729 -23.368 -11.473  0.00  0.00    +0.320 C 
ATOM     13  C   UNL     1      36.318 -22.804 -15.769  0.00  0.00    +0.195 C 
ATOM     14  C   UNL     1      33.545 -23.225 -16.479  0.00  0.00    +0.197 C 
ATOM     15  C   UNL     1      31.909 -23.268 -13.757  0.00  0.00    +0.037 C 
ATOM     16  C   UNL     1      35.796 -22.325 -17.061  0.00  0.00    +0.045 C 
ATOM     17  C   UNL     1      34.460 -22.529 -17.402  0.00  0.00    +0.075 C 
ATOM     18  C   UNL     1      33.980 -22.077 -18.639  0.00  0.00    +0.137 C 
ATOM     19  C   UNL     1      36.656 -21.674 -17.954  0.00  0.00    +0.003 C 
ATOM     20  C   UNL     1      34.838 -21.425 -19.525  0.00  0.00    +0.037 C 
ATOM     21  C   UNL     1      36.173 -21.224 -19.184  0.00  0.00    +0.003 C 
ENDROOT
BRANCH  18  22
ATOM     22  O   UNL     1      32.685 -22.236 -19.032  0.00  0.00    -0.505 OA
ATOM     23  H   UNL     1      32.242 -21.541 -19.477  0.00  0.00    +0.292 HD
ENDBRANCH  18  22
TORSDOF 1
ENDMDL
MODEL 2
REMARK VINA RESULT:     -10.6      1.634      4.265
REMARK  Name = 6323454
REMARK  1 active torsions:
REMARK  status: ('A' for Active; 'I' for Inactive)
REMARK    1  A    between atoms: C_18  and  O_22
REMARK                            x       y       z     vdW  Elec       q    Type
REMARK                         _______ _______ _______ _____ _____    ______ ____
ROOT
ATOM      1  O   UNL     1      33.117 -24.149 -12.705  0.00  0.00    -0.350 OA
ATOM      2  O   UNL     1      30.681 -24.429 -15.240  0.00  0.00    -0.445 OA
ATOM      3  O   UNL     1      31.558 -22.715 -17.260  0.00  0.00    -0.287 OA
ATOM      4  O   UNL     1      28.986 -25.773 -14.441  0.00  0.00    -0.250 OA
ATOM      5  O   UNL     1      36.380 -22.605 -14.989  0.00  0.00    -0.287 OA
ATOM      6  C   UNL     1      32.215 -24.780 -13.589  0.00  0.00    +0.171 C 
ATOM      7  C   UNL     1      31.742 -23.748 -14.582  0.00  0.00    +0.221 C 
ATOM      8  C   UNL     1      32.910 -23.298 -15.405  0.00  0.00    +0.060 C 
ATOM      9  C   UNL     1      34.347 -23.785 -13.389  0.00  0.00    +0.141 C 
ATOM     10  C   UNL     1      34.128 -23.296 -14.828  0.00  0.00    +0.046 C 
ATOM     11  C   UNL     1      30.890 -25.227 -13.023  0.00  0.00    +0.143 C 
ATOM     12  C   UNL     1      30.055 -25.203 -14.283  0.00  0.00    +0.320 C 
ATOM     13  C   UNL     1      32.682 -22.796 -16.781  0.00  0.00    +0.195 C 
ATOM     14  C   UNL     1      35.305 -22.749 -15.560  0.00  0.00    +0.197 C 
ATOM     15  C   UNL     1      35.294 -24.986 -13.304  0.00  0.00    +0.037 C 
ATOM     16  C   UNL     1      33.864 -22.389 -17.562  0.00  0.00    +0.045 C 
ATOM     17  C   UNL     1      35.127 -22.367 -16.973  0.00  0.00    +0.075 C 
ATOM     18  C   UNL     1      36.239 -21.967 -17.725  0.00  0.00    +0.137 C 
ATOM     19  C   UNL     1      33.709 -22.010 -18.901  0.00  0.00    +0.003 C 
ATOM     20  C   UNL     1      36.083 -21.594 -19.060  0.00  0.00    +0.037 C 
ATOM     21  C   UNL     1      34.820 -21.615 -19.647  0.00  0.00    +0.003 C 
ENDROOT
BRANCH  18  22
ATOM     22  O   UNL     1      37.503 -21.930 -17.213  0.00  0.00    -0.505 OA
ATOM     23  H   UNL     1      38.237 -21.826 -17.786  0.00  0.00    +0.292 HD
ENDBRANCH  18  22
TORSDOF 1
ENDMDL
MODEL 3
REMARK VINA RESULT:     -10.5      1.937      5.634
REMARK  Name = 6323454
REMARK  1 active torsions:
REMARK  status: ('A' for Active; 'I' for Inactive)
REMARK    1  A    between atoms: C_18  and  O_22
REMARK                            x       y       z     vdW  Elec       q    Type
REMARK                         _______ _______ _______ _____ _____    ______ ____
ROOT
ATOM      1  O   UNL     1      31.930 -22.986 -14.650  0.00  0.00    -0.350 OA
ATOM      2  O   UNL     1      34.229 -22.946 -17.325  0.00  0.00    -0.445 OA
ATOM      3  O   UNL     1      36.732 -23.190 -16.114  0.00  0.00    -0.287 OA
ATOM      4  O   UNL     1      33.047 -22.541 -19.262  0.00  0.00    -0.250 OA
ATOM      5  O   UNL     1      34.339 -24.821 -11.638  0.00  0.00    -0.287 OA
ATOM      6  C   UNL     1      32.475 -23.307 -15.912  0.00  0.00    +0.171 C 
ATOM      7  C   UNL     1      33.888 -22.784 -15.954  0.00  0.00    +0.221 C 
ATOM      8  C   UNL     1      34.705 -23.514 -14.932  0.00  0.00    +0.060 C 
ATOM      9  C   UNL     1      32.578 -23.746 -13.595  0.00  0.00    +0.141 C 
ATOM     10  C   UNL     1      34.085 -23.942 -13.814  0.00  0.00    +0.046 C 
ATOM     11  C   UNL     1      31.898 -22.603 -17.115  0.00  0.00    +0.143 C 
ATOM     12  C   UNL     1      33.083 -22.686 -18.050  0.00  0.00    +0.320 C 
ATOM     13  C   UNL     1      36.165 -23.666 -15.138  0.00  0.00    +0.195 C 
ATOM     14  C   UNL     1      34.869 -24.569 -12.713  0.00  0.00    +0.197 C 
ATOM     15  C   UNL     1      31.819 -25.069 -13.448  0.00  0.00    +0.037 C 
ATOM     16  C   UNL     1      36.923 -24.414 -14.119  0.00  0.00    +0.045 C 
ATOM     17  C   UNL     1      36.297 -24.849 -12.951  0.00  0.00    +0.075 C 
ATOM     18  C   UNL     1      37.033 -25.549 -11.987  0.00  0.00    +0.137 C 
ATOM     19  C   UNL     1      38.282 -24.676 -14.324  0.00  0.00    +0.003 C 
ATOM     20  C   UNL     1      38.387 -25.812 -12.195  0.00  0.00    +0.037 C 
ATOM     21  C   UNL     1      39.011 -25.376 -13.361  0.00  0.00    +0.003 C 
ENDROOT
BRANCH  18  22
ATOM     22  O   UNL     1      36.482 -26.008 -10.827  0.00  0.00    -0.505 OA
ATOM     23  H   UNL     1      35.551 -26.071 -10.744  0.00  0.00    +0.292 HD
ENDBRANCH  18  22
TORSDOF 1
ENDMDL
MODEL 4
REMARK VINA RESULT:     -10.3      1.840      6.255
REMARK  Name = 6323454
REMARK  1 active torsions:
REMARK  status: ('A' for Active; 'I' for Inactive)
REMARK    1  A    between atoms: C_18  and  O_22
REMARK                            x       y       z     vdW  Elec       q    Type
REMARK                         _______ _______ _______ _____ _____    ______ ____
ROOT
ATOM      1  O   UNL     1      36.987 -22.378 -17.642  0.00  0.00    -0.350 OA
ATOM      2  O   UNL     1      34.018 -21.337 -19.238  0.00  0.00    -0.445 OA
ATOM      3  O   UNL     1      31.981 -22.709 -17.914  0.00  0.00    -0.287 OA
ATOM      4  O   UNL     1      34.611 -19.994 -21.016  0.00  0.00    -0.250 OA
ATOM      5  O   UNL     1      35.375 -23.801 -13.951  0.00  0.00    -0.287 OA
ATOM      6  C   UNL     1      36.054 -21.490 -18.221  0.00  0.00    +0.171 C 
ATOM      7  C   UNL     1      34.770 -22.248 -18.445  0.00  0.00    +0.221 C 
ATOM      8  C   UNL     1      34.210 -22.656 -17.116  0.00  0.00    +0.060 C 
ATOM      9  C   UNL     1      36.592 -22.736 -16.290  0.00  0.00    +0.141 C 
ATOM     10  C   UNL     1      35.077 -22.907 -16.115  0.00  0.00    +0.046 C 
ATOM     11  C   UNL     1      36.330 -21.017 -19.626  0.00  0.00    +0.143 C 
ATOM     12  C   UNL     1      34.919 -20.700 -20.068  0.00  0.00    +0.320 C 
ATOM     13  C   UNL     1      32.748 -22.850 -16.970  0.00  0.00    +0.195 C 
ATOM     14  C   UNL     1      34.584 -23.428 -14.809  0.00  0.00    +0.197 C 
ATOM     15  C   UNL     1      37.188 -21.689 -15.343  0.00  0.00    +0.037 C 
ATOM     16  C   UNL     1      32.241 -23.226 -15.637  0.00  0.00    +0.045 C 
ATOM     17  C   UNL     1      33.127 -23.505 -14.597  0.00  0.00    +0.075 C 
ATOM     18  C   UNL     1      32.631 -23.872 -13.340  0.00  0.00    +0.137 C 
ATOM     19  C   UNL     1      30.861 -23.316 -15.425  0.00  0.00    +0.003 C 
ATOM     20  C   UNL     1      31.254 -23.956 -13.129  0.00  0.00    +0.037 C 
ATOM     21  C   UNL     1      30.371 -23.680 -14.170  0.00  0.00    +0.003 C 
ENDROOT
BRANCH  18  22
ATOM     22  O   UNL     1      33.440 -24.150 -12.279  0.00  0.00    -0.505 OA
ATOM     23  H   UNL     1      34.362 -23.990 -12.338  0.00  0.00    +0.292 HD
ENDBRANCH  18  22
TORSDOF 1
ENDMDL
MODEL 5
REMARK VINA RESULT:     -10.2      1.850      5.210
REMARK  Name = 6323454
REMARK  1 active torsions:
REMARK  status: ('A' for Active; 'I' for Inactive)
REMARK    1  A    between atoms: C_18  and  O_22
REMARK                            x       y       z     vdW  Elec       q    Type
REMARK                         _______ _______ _______ _____ _____    ______ ____
ROOT
ATOM      1  O   UNL     1      36.636 -23.985 -14.429  0.00  0.00    -0.350 OA
ATOM      2  O   UNL     1      35.429 -21.995 -17.079  0.00  0.00    -0.445 OA
ATOM      3  O   UNL     1      32.766 -22.769 -17.393  0.00  0.00    -0.287 OA
ATOM      4  O   UNL     1      37.205 -20.783 -17.913  0.00  0.00    -0.250 OA
ATOM      5  O   UNL     1      32.939 -25.087 -12.596  0.00  0.00    -0.287 OA
ATOM      6  C   UNL     1      36.421 -22.821 -15.198  0.00  0.00    +0.171 C 
ATOM      7  C   UNL     1      35.374 -23.139 -16.236  0.00  0.00    +0.221 C 
ATOM      8  C   UNL     1      34.082 -23.443 -15.542  0.00  0.00    +0.060 C 
ATOM      9  C   UNL     1      35.471 -24.293 -13.616  0.00  0.00    +0.141 C 
ATOM     10  C   UNL     1      34.137 -24.008 -14.320  0.00  0.00    +0.046 C 
ATOM     11  C   UNL     1      37.547 -22.365 -16.092  0.00  0.00    +0.143 C 
ATOM     12  C   UNL     1      36.754 -21.608 -17.134  0.00  0.00    +0.320 C 
ATOM     13  C   UNL     1      32.800 -23.195 -16.246  0.00  0.00    +0.195 C 
ATOM     14  C   UNL     1      32.886 -24.439 -13.634  0.00  0.00    +0.197 C 
ATOM     15  C   UNL     1      35.621 -23.538 -12.291  0.00  0.00    +0.037 C 
ATOM     16  C   UNL     1      31.554 -23.485 -15.513  0.00  0.00    +0.045 C 
ATOM     17  C   UNL     1      31.597 -24.084 -14.255  0.00  0.00    +0.075 C 
ATOM     18  C   UNL     1      30.404 -24.363 -13.576  0.00  0.00    +0.137 C 
ATOM     19  C   UNL     1      30.322 -23.166 -16.096  0.00  0.00    +0.003 C 
ATOM     20  C   UNL     1      29.177 -24.041 -14.157  0.00  0.00    +0.037 C 
ATOM     21  C   UNL     1      29.136 -23.444 -15.415  0.00  0.00    +0.003 C 
ENDROOT
BRANCH  18  22
ATOM     22  O   UNL     1      30.375 -24.940 -12.341  0.00  0.00    -0.505 OA
ATOM     23  H   UNL     1      29.673 -25.518 -12.111  0.00  0.00    +0.292 HD
ENDBRANCH  18  22
TORSDOF 1
ENDMDL
MODEL 6
REMARK VINA RESULT:      -9.6      2.201      5.219
REMARK  Name = 6323454
REMARK  1 active torsions:
REMARK  status: ('A' for Active; 'I' for Inactive)
REMARK    1  A    between atoms: C_18  and  O_22
REMARK                            x       y       z     vdW  Elec       q    Type
REMARK                         _______ _______ _______ _____ _____    ______ ____
ROOT
ATOM      1  O   UNL     1      30.581 -23.846 -13.569  0.00  0.00    -0.350 OA
ATOM      2  O   UNL     1      29.715 -23.451 -16.965  0.00  0.00    -0.445 OA
ATOM      3  O   UNL     1      31.857 -22.057 -18.087  0.00  0.00    -0.287 OA
ATOM      4  O   UNL     1      27.578 -24.269 -17.245  0.00  0.00    -0.250 OA
ATOM      5  O   UNL     1      34.808 -23.277 -13.818  0.00  0.00    -0.287 OA
ATOM      6  C   UNL     1      30.105 -24.206 -14.848  0.00  0.00    +0.171 C 
ATOM      7  C   UNL     1      30.448 -23.089 -15.801  0.00  0.00    +0.221 C 
ATOM      8  C   UNL     1      31.938 -22.984 -15.909  0.00  0.00    +0.060 C 
ATOM      9  C   UNL     1      32.034 -23.841 -13.538  0.00  0.00    +0.141 C 
ATOM     10  C   UNL     1      32.675 -23.317 -14.831  0.00  0.00    +0.046 C 
ATOM     11  C   UNL     1      28.610 -24.265 -15.039  0.00  0.00    +0.143 C 
ATOM     12  C   UNL     1      28.534 -24.017 -16.529  0.00  0.00    +0.320 C 
ATOM     13  C   UNL     1      32.544 -22.444 -17.149  0.00  0.00    +0.195 C 
ATOM     14  C   UNL     1      34.153 -23.121 -14.841  0.00  0.00    +0.197 C 
ATOM     15  C   UNL     1      32.493 -25.257 -13.175  0.00  0.00    +0.037 C 
ATOM     16  C   UNL     1      34.015 -22.384 -17.219  0.00  0.00    +0.045 C 
ATOM     17  C   UNL     1      34.789 -22.710 -16.106  0.00  0.00    +0.075 C 
ATOM     18  C   UNL     1      36.186 -22.638 -16.184  0.00  0.00    +0.137 C 
ATOM     19  C   UNL     1      34.633 -21.984 -18.409  0.00  0.00    +0.003 C 
ATOM     20  C   UNL     1      36.800 -22.242 -17.373  0.00  0.00    +0.037 C 
ATOM     21  C   UNL     1      36.025 -21.915 -18.483  0.00  0.00    +0.003 C 
ENDROOT
BRANCH  18  22
ATOM     22  O   UNL     1      37.001 -22.951 -15.137  0.00  0.00    -0.505 OA
ATOM     23  H   UNL     1      37.058 -23.836 -14.836  0.00  0.00    +0.292 HD
ENDBRANCH  18  22
TORSDOF 1
ENDMDL
MODEL 7
REMARK VINA RESULT:      -9.4      1.960      4.782
REMARK  Name = 6323454
REMARK  1 active torsions:
REMARK  status: ('A' for Active; 'I' for Inactive)
REMARK    1  A    between atoms: C_18  and  O_22
REMARK                            x       y       z     vdW  Elec       q    Type
REMARK                         _______ _______ _______ _____ _____    ______ ____
ROOT
ATOM      1  O   UNL     1      35.720 -22.374 -16.317  0.00  0.00    -0.350 OA
ATOM      2  O   UNL     1      35.728 -24.670 -13.638  0.00  0.00    -0.445 OA
ATOM      3  O   UNL     1      33.093 -24.700 -12.720  0.00  0.00    -0.287 OA
ATOM      4  O   UNL     1      37.909 -25.335 -13.289  0.00  0.00    -0.250 OA
ATOM      5  O   UNL     1      31.552 -22.351 -17.251  0.00  0.00    -0.287 OA
ATOM      6  C   UNL     1      36.012 -23.563 -15.613  0.00  0.00    +0.171 C 
ATOM      7  C   UNL     1      35.174 -23.577 -14.360  0.00  0.00    +0.221 C 
ATOM      8  C   UNL     1      33.728 -23.646 -14.744  0.00  0.00    +0.060 C 
ATOM      9  C   UNL     1      34.366 -22.401 -16.843  0.00  0.00    +0.141 C 
ATOM     10  C   UNL     1      33.353 -23.069 -15.903  0.00  0.00    +0.046 C 
ATOM     11  C   UNL     1      37.388 -23.691 -15.011  0.00  0.00    +0.143 C 
ATOM     12  C   UNL     1      37.087 -24.661 -13.890  0.00  0.00    +0.320 C 
ATOM     13  C   UNL     1      32.753 -24.263 -13.813  0.00  0.00    +0.195 C 
ATOM     14  C   UNL     1      31.912 -23.005 -16.279  0.00  0.00    +0.197 C 
ATOM     15  C   UNL     1      34.423 -23.059 -18.226  0.00  0.00    +0.037 C 
ATOM     16  C   UNL     1      31.346 -24.332 -14.246  0.00  0.00    +0.045 C 
ATOM     17  C   UNL     1      30.942 -23.725 -15.434  0.00  0.00    +0.075 C 
ATOM     18  C   UNL     1      29.599 -23.789 -15.828  0.00  0.00    +0.137 C 
ATOM     19  C   UNL     1      30.411 -25.001 -13.448  0.00  0.00    +0.003 C 
ATOM     20  C   UNL     1      28.669 -24.460 -15.032  0.00  0.00    +0.037 C 
ATOM     21  C   UNL     1      29.074 -25.064 -13.844  0.00  0.00    +0.003 C 
ENDROOT
BRANCH  18  22
ATOM     22  O   UNL     1      29.139 -23.225 -16.980  0.00  0.00    -0.505 OA
ATOM     23  H   UNL     1      28.346 -23.538 -17.370  0.00  0.00    +0.292 HD
ENDBRANCH  18  22
TORSDOF 1
ENDMDL
MODEL 8
REMARK VINA RESULT:      -9.1      1.749      5.964
REMARK  Name = 6323454
REMARK  1 active torsions:
REMARK  status: ('A' for Active; 'I' for Inactive)
REMARK    1  A    between atoms: C_18  and  O_22
REMARK                            x       y       z     vdW  Elec       q    Type
REMARK                         _______ _______ _______ _____ _____    ______ ____
ROOT
ATOM      1  O   UNL     1      32.511 -23.569 -17.299  0.00  0.00    -0.350 OA
ATOM      2  O   UNL     1      30.801 -23.105 -14.249  0.00  0.00    -0.445 OA
ATOM      3  O   UNL     1      32.529 -24.116 -12.305  0.00  0.00    -0.287 OA
ATOM      4  O   UNL     1      28.699 -22.292 -14.738  0.00  0.00    -0.250 OA
ATOM      5  O   UNL     1      36.509 -23.957 -15.847  0.00  0.00    -0.287 OA
ATOM      6  C   UNL     1      31.744 -22.906 -16.317  0.00  0.00    +0.171 C 
ATOM      7  C   UNL     1      31.787 -23.735 -15.058  0.00  0.00    +0.221 C 
ATOM      8  C   UNL     1      33.196 -23.774 -14.552  0.00  0.00    +0.060 C 
ATOM      9  C   UNL     1      33.923 -23.548 -16.957  0.00  0.00    +0.141 C 
ATOM     10  C   UNL     1      34.194 -23.710 -15.454  0.00  0.00    +0.046 C 
ATOM     11  C   UNL     1      30.253 -22.835 -16.534  0.00  0.00    +0.143 C 
ATOM     12  C   UNL     1      29.793 -22.697 -15.101  0.00  0.00    +0.320 C 
ATOM     13  C   UNL     1      33.445 -23.965 -13.103  0.00  0.00    +0.195 C 
ATOM     14  C   UNL     1      35.612 -23.862 -15.019  0.00  0.00    +0.197 C 
ATOM     15  C   UNL     1      34.519 -22.261 -17.536  0.00  0.00    +0.037 C 
ATOM     16  C   UNL     1      34.848 -23.971 -12.648  0.00  0.00    +0.045 C 
ATOM     17  C   UNL     1      35.890 -23.921 -13.572  0.00  0.00    +0.075 C 
ATOM     18  C   UNL     1      37.218 -23.938 -13.126  0.00  0.00    +0.137 C 
ATOM     19  C   UNL     1      35.128 -24.040 -11.278  0.00  0.00    +0.003 C 
ATOM     20  C   UNL     1      37.495 -24.004 -11.760  0.00  0.00    +0.037 C 
ATOM     21  C   UNL     1      36.452 -24.055 -10.838  0.00  0.00    +0.003 C 
ENDROOT
BRANCH  18  22
ATOM     22  O   UNL     1      38.284 -23.885 -13.974  0.00  0.00    -0.505 OA
ATOM     23  H   UNL     1      38.528 -24.643 -14.467  0.00  0.00    +0.292 HD
ENDBRANCH  18  22
TORSDOF 1
ENDMDL
MODEL 9
REMARK VINA RESULT:      -8.6      1.593      6.399
REMARK  Name = 6323454
REMARK  1 active torsions:
REMARK  status: ('A' for Active; 'I' for Inactive)
REMARK    1  A    between atoms: C_18  and  O_22
REMARK                            x       y       z     vdW  Elec       q    Type
REMARK                         _______ _______ _______ _____ _____    ______ ____
ROOT
ATOM      1  O   UNL     1      35.209 -22.940 -17.357  0.00  0.00    -0.350 OA
ATOM      2  O   UNL     1      32.211 -23.239 -15.522  0.00  0.00    -0.445 OA
ATOM      3  O   UNL     1      32.959 -24.476 -13.135  0.00  0.00    -0.287 OA
ATOM      4  O   UNL     1      30.486 -22.518 -16.872  0.00  0.00    -0.250 OA
ATOM      5  O   UNL     1      38.048 -23.285 -14.184  0.00  0.00    -0.287 OA
ATOM      6  C   UNL     1      33.969 -22.552 -16.803  0.00  0.00    +0.171 C 
ATOM      7  C   UNL     1      33.552 -23.611 -15.814  0.00  0.00    +0.221 C 
ATOM      8  C   UNL     1      34.539 -23.636 -14.687  0.00  0.00    +0.060 C 
ATOM      9  C   UNL     1      36.265 -22.873 -16.361  0.00  0.00    +0.141 C 
ATOM     10  C   UNL     1      35.818 -23.311 -14.959  0.00  0.00    +0.046 C 
ATOM     11  C   UNL     1      32.770 -22.560 -17.718  0.00  0.00    +0.143 C 
ATOM     12  C   UNL     1      31.672 -22.751 -16.697  0.00  0.00    +0.320 C 
ATOM     13  C   UNL     1      34.103 -24.094 -13.346  0.00  0.00    +0.195 C 
ATOM     14  C   UNL     1      36.865 -23.432 -13.905  0.00  0.00    +0.197 C 
ATOM     15  C   UNL     1      36.837 -21.452 -16.389  0.00  0.00    +0.037 C 
ATOM     16  C   UNL     1      35.103 -24.077 -12.263  0.00  0.00    +0.045 C 
ATOM     17  C   UNL     1      36.433 -23.758 -12.533  0.00  0.00    +0.075 C 
ATOM     18  C   UNL     1      37.373 -23.756 -11.495  0.00  0.00    +0.137 C 
ATOM     19  C   UNL     1      34.710 -24.396 -10.957  0.00  0.00    +0.003 C 
ATOM     20  C   UNL     1      36.979 -24.072 -10.194  0.00  0.00    +0.037 C 
ATOM     21  C   UNL     1      35.650 -24.392  -9.926  0.00  0.00    +0.003 C 
ENDROOT
BRANCH  18  22
ATOM     22  O   UNL     1      38.687 -23.447 -11.689  0.00  0.00    -0.505 OA
ATOM     23  H   UNL     1      38.923 -22.745 -12.264  0.00  0.00    +0.292 HD
ENDBRANCH  18  22
TORSDOF 1
ENDMDL
