MODEL 1
REMARK VINA RESULT:     -12.7      0.000      0.000
REMARK  Name = 1712
REMARK  5 active torsions:
REMARK  status: ('A' for Active; 'I' for Inactive)
REMARK    1  A    between atoms: C_1  and  N_18
REMARK    2  A    between atoms: C_2  and  S_7
REMARK    3  A    between atoms: S_7  and  N_10
REMARK    4  A    between atoms: N_18  and  C_20
REMARK    5  A    between atoms: C_20  and  C_26
REMARK                            x       y       z     vdW  Elec       q    Type
REMARK                         _______ _______ _______ _____ _____    ______ ____
ROOT
ATOM      1  C   UNL     1      35.120 -20.078 -20.589  0.00  0.00    +0.045 C 
ATOM      2  C   UNL     1      34.213 -22.008 -18.753  0.00  0.00    +0.125 C 
ATOM      3  C   UNL     1      36.031 -20.853 -19.848  0.00  0.00    +0.016 C 
ATOM      4  C   UNL     1      33.744 -20.292 -20.388  0.00  0.00    +0.016 C 
ATOM      5  C   UNL     1      35.581 -21.810 -18.938  0.00  0.00    +0.021 C 
ATOM      6  C   UNL     1      33.295 -21.249 -19.478  0.00  0.00    +0.021 C 
ENDROOT
BRANCH   2   7
ATOM      7  S   UNL     1      33.651 -23.205 -17.614  0.00  0.00    +0.075 S 
ATOM      8  O   UNL     1      34.561 -23.198 -16.475  0.00  0.00    -0.150 OA
ATOM      9  O   UNL     1      33.426 -24.457 -18.325  0.00  0.00    -0.150 OA
BRANCH   7  10
ATOM     10  N   UNL     1      32.140 -22.558 -17.095  0.00  0.00    -0.199 N 
ATOM     11  H   UNL     1      31.685 -21.856 -17.613  0.00  0.00    +0.175 HD
ATOM     12  N   UNL     1      32.233 -22.785 -14.748  0.00  0.00    -0.228 NA
ATOM     13  C   UNL     1      31.565 -23.074 -15.882  0.00  0.00    +0.147 C 
ATOM     14  C   UNL     1      30.399 -23.813 -15.943  0.00  0.00    +0.036 C 
ATOM     15  C   UNL     1      29.878 -24.291 -14.746  0.00  0.00    +0.005 C 
ATOM     16  C   UNL     1      31.697 -23.267 -13.605  0.00  0.00    +0.100 C 
ATOM     17  C   UNL     1      30.533 -24.017 -13.551  0.00  0.00    +0.021 C 
ENDBRANCH   7  10
ENDBRANCH   2   7
BRANCH   1  18
ATOM     18  N   UNL     1      35.566 -19.127 -21.494  0.00  0.00    -0.328 N 
ATOM     19  H   UNL     1      36.240 -19.400 -22.159  0.00  0.00    +0.147 HD
BRANCH  18  20
ATOM     20  C   UNL     1      35.104 -17.762 -21.517  0.00  0.00    +0.127 C 
BRANCH  20  26
ATOM     21  S   UNL     1      34.361 -14.231 -21.551  0.00  0.00    -0.104 S 
ATOM     22  O   UNL     1      34.815 -19.659 -23.744  0.00  0.00    -0.210 OA
ATOM     23  N   UNL     1      34.046 -17.925 -25.096  0.00  0.00    -0.333 NA
ATOM     24  N   UNL     1      33.467 -12.716 -23.458  0.00  0.00    -0.262 NA
ATOM     25  C   UNL     1      34.210 -16.299 -23.454  0.00  0.00    +0.033 C 
ATOM     26  C   UNL     1      34.619 -17.427 -22.878  0.00  0.00    +0.092 C 
ATOM     27  C   UNL     1      33.866 -16.673 -24.835  0.00  0.00    +0.142 C 
ATOM     28  C   UNL     1      34.055 -14.962 -23.057  0.00  0.00    +0.114 C 
ATOM     29  C   UNL     1      34.518 -18.487 -23.927  0.00  0.00    +0.202 C 
ATOM     30  C   UNL     1      33.588 -13.996 -23.934  0.00  0.00    +0.069 C 
ATOM     31  C   UNL     1      33.369 -15.606 -25.745  0.00  0.00    +0.034 C 
ATOM     32  C   UNL     1      33.249 -14.347 -25.280  0.00  0.00    +0.018 C 
ATOM     33  C   UNL     1      33.850 -12.720 -22.198  0.00  0.00    +0.183 C 
ENDBRANCH  20  26
ENDBRANCH  18  20
ENDBRANCH   1  18
TORSDOF 5
ENDMDL
MODEL 2
REMARK VINA RESULT:     -12.6      2.419     10.337
REMARK  Name = 1712
REMARK  5 active torsions:
REMARK  status: ('A' for Active; 'I' for Inactive)
REMARK    1  A    between atoms: C_1  and  N_18
REMARK    2  A    between atoms: C_2  and  S_7
REMARK    3  A    between atoms: S_7  and  N_10
REMARK    4  A    between atoms: N_18  and  C_20
REMARK    5  A    between atoms: C_20  and  C_26
REMARK                            x       y       z     vdW  Elec       q    Type
REMARK                         _______ _______ _______ _____ _____    ______ ____
ROOT
ATOM      1  C   UNL     1      35.165 -19.147 -20.972  0.00  0.00    +0.045 C 
ATOM      2  C   UNL     1      34.507 -17.637 -23.253  0.00  0.00    +0.125 C 
ATOM      3  C   UNL     1      34.666 -19.771 -22.130  0.00  0.00    +0.016 C 
ATOM      4  C   UNL     1      35.326 -17.750 -20.983  0.00  0.00    +0.016 C 
ATOM      5  C   UNL     1      34.340 -19.022 -23.261  0.00  0.00    +0.021 C 
ATOM      6  C   UNL     1      35.000 -17.001 -22.114  0.00  0.00    +0.021 C 
ENDROOT
BRANCH   2   7
ATOM      7  S   UNL     1      34.099 -16.700 -24.668  0.00  0.00    +0.075 S 
ATOM      8  O   UNL     1      33.283 -17.540 -25.538  0.00  0.00    -0.150 OA
ATOM      9  O   UNL     1      35.319 -16.109 -25.205  0.00  0.00    -0.150 OA
BRANCH   7  10
ATOM     10  N   UNL     1      33.091 -15.458 -24.026  0.00  0.00    -0.199 N 
ATOM     11  H   UNL     1      32.336 -15.675 -23.433  0.00  0.00    +0.175 HD
ATOM     12  N   UNL     1      33.190 -13.774 -25.675  0.00  0.00    -0.228 NA
ATOM     13  C   UNL     1      33.387 -14.096 -24.382  0.00  0.00    +0.147 C 
ATOM     14  C   UNL     1      33.840 -13.223 -23.412  0.00  0.00    +0.036 C 
ATOM     15  C   UNL     1      34.112 -11.916 -23.801  0.00  0.00    +0.005 C 
ATOM     16  C   UNL     1      33.467 -12.496 -26.016  0.00  0.00    +0.100 C 
ATOM     17  C   UNL     1      33.924 -11.538 -25.126  0.00  0.00    +0.021 C 
ENDBRANCH   7  10
ENDBRANCH   2   7
BRANCH   1  18
ATOM     18  N   UNL     1      35.490 -19.892 -19.848  0.00  0.00    -0.328 N 
ATOM     19  H   UNL     1      35.715 -19.408 -19.020  0.00  0.00    +0.147 HD
BRANCH  18  20
ATOM     20  C   UNL     1      35.519 -21.333 -19.821  0.00  0.00    +0.127 C 
BRANCH  20  26
ATOM     21  S   UNL     1      37.329 -22.255 -16.839  0.00  0.00    -0.104 S 
ATOM     22  O   UNL     1      32.618 -21.516 -20.266  0.00  0.00    -0.210 OA
ATOM     23  N   UNL     1      32.362 -22.367 -18.113  0.00  0.00    -0.333 NA
ATOM     24  N   UNL     1      36.482 -23.217 -14.584  0.00  0.00    -0.262 NA
ATOM     25  C   UNL     1      34.618 -22.292 -17.594  0.00  0.00    +0.033 C 
ATOM     26  C   UNL     1      34.525 -21.829 -18.838  0.00  0.00    +0.092 C 
ATOM     27  C   UNL     1      33.238 -22.611 -17.196  0.00  0.00    +0.142 C 
ATOM     28  C   UNL     1      35.656 -22.517 -16.676  0.00  0.00    +0.114 C 
ATOM     29  C   UNL     1      33.072 -21.872 -19.187  0.00  0.00    +0.202 C 
ATOM     30  C   UNL     1      35.407 -23.030 -15.413  0.00  0.00    +0.069 C 
ATOM     31  C   UNL     1      33.013 -23.159 -15.831  0.00  0.00    +0.034 C 
ATOM     32  C   UNL     1      34.069 -23.344 -15.013  0.00  0.00    +0.018 C 
ATOM     33  C   UNL     1      37.561 -22.839 -15.236  0.00  0.00    +0.183 C 
ENDBRANCH  20  26
ENDBRANCH  18  20
ENDBRANCH   1  18
TORSDOF 5
ENDMDL
MODEL 3
REMARK VINA RESULT:     -11.9      1.859      2.202
REMARK  Name = 1712
REMARK  5 active torsions:
REMARK  status: ('A' for Active; 'I' for Inactive)
REMARK    1  A    between atoms: C_1  and  N_18
REMARK    2  A    between atoms: C_2  and  S_7
REMARK    3  A    between atoms: S_7  and  N_10
REMARK    4  A    between atoms: N_18  and  C_20
REMARK    5  A    between atoms: C_20  and  C_26
REMARK                            x       y       z     vdW  Elec       q    Type
REMARK                         _______ _______ _______ _____ _____    ______ ____
ROOT
ATOM      1  C   UNL     1      34.966 -20.292 -20.408  0.00  0.00    +0.045 C 
ATOM      2  C   UNL     1      33.822 -22.003 -18.489  0.00  0.00    +0.125 C 
ATOM      3  C   UNL     1      35.776 -21.077 -19.567  0.00  0.00    +0.016 C 
ATOM      4  C   UNL     1      33.570 -20.384 -20.265  0.00  0.00    +0.016 C 
ATOM      5  C   UNL     1      35.209 -21.925 -18.616  0.00  0.00    +0.021 C 
ATOM      6  C   UNL     1      33.003 -21.232 -19.314  0.00  0.00    +0.021 C 
ENDROOT
BRANCH   2   7
ATOM      7  S   UNL     1      33.113 -23.063 -17.298  0.00  0.00    +0.075 S 
ATOM      8  O   UNL     1      33.613 -24.410 -17.547  0.00  0.00    -0.150 OA
ATOM      9  O   UNL     1      31.672 -22.842 -17.275  0.00  0.00    -0.150 OA
BRANCH   7  10
ATOM     10  N   UNL     1      33.806 -22.499 -15.824  0.00  0.00    -0.199 N 
ATOM     11  H   UNL     1      33.650 -21.580 -15.510  0.00  0.00    +0.175 HD
ATOM     12  N   UNL     1      35.786 -23.768 -15.637  0.00  0.00    -0.228 NA
ATOM     13  C   UNL     1      34.618 -23.413 -15.066  0.00  0.00    +0.147 C 
ATOM     14  C   UNL     1      34.173 -23.860 -13.837  0.00  0.00    +0.036 C 
ATOM     15  C   UNL     1      34.991 -24.741 -13.139  0.00  0.00    +0.005 C 
ATOM     16  C   UNL     1      36.554 -24.627 -14.929  0.00  0.00    +0.100 C 
ATOM     17  C   UNL     1      36.206 -25.136 -13.689  0.00  0.00    +0.021 C 
ENDBRANCH   7  10
ENDBRANCH   2   7
BRANCH   1  18
ATOM     18  N   UNL     1      35.529 -19.450 -21.355  0.00  0.00    -0.328 N 
ATOM     19  H   UNL     1      36.140 -19.842 -22.021  0.00  0.00    +0.147 HD
BRANCH  18  20
ATOM     20  C   UNL     1      35.275 -18.032 -21.420  0.00  0.00    +0.127 C 
BRANCH  20  26
ATOM     21  S   UNL     1      34.441 -14.522 -21.372  0.00  0.00    -0.104 S 
ATOM     22  O   UNL     1      34.991 -19.894 -23.678  0.00  0.00    -0.210 OA
ATOM     23  N   UNL     1      34.152 -18.156 -24.980  0.00  0.00    -0.333 NA
ATOM     24  N   UNL     1      33.470 -12.995 -23.231  0.00  0.00    -0.262 NA
ATOM     25  C   UNL     1      34.306 -16.557 -23.310  0.00  0.00    +0.033 C 
ATOM     26  C   UNL     1      34.755 -17.685 -22.764  0.00  0.00    +0.092 C 
ATOM     27  C   UNL     1      33.945 -16.913 -24.692  0.00  0.00    +0.142 C 
ATOM     28  C   UNL     1      34.124 -15.232 -22.885  0.00  0.00    +0.114 C 
ATOM     29  C   UNL     1      34.661 -18.727 -23.832  0.00  0.00    +0.202 C 
ATOM     30  C   UNL     1      33.615 -14.263 -23.734  0.00  0.00    +0.069 C 
ATOM     31  C   UNL     1      33.402 -15.843 -25.572  0.00  0.00    +0.034 C 
ATOM     32  C   UNL     1      33.259 -14.596 -25.079  0.00  0.00    +0.018 C 
ATOM     33  C   UNL     1      33.878 -13.013 -21.979  0.00  0.00    +0.183 C 
ENDBRANCH  20  26
ENDBRANCH  18  20
ENDBRANCH   1  18
TORSDOF 5
ENDMDL
MODEL 4
REMARK VINA RESULT:     -11.9      2.091     10.558
REMARK  Name = 1712
REMARK  5 active torsions:
REMARK  status: ('A' for Active; 'I' for Inactive)
REMARK    1  A    between atoms: C_1  and  N_18
REMARK    2  A    between atoms: C_2  and  S_7
REMARK    3  A    between atoms: S_7  and  N_10
REMARK    4  A    between atoms: N_18  and  C_20
REMARK    5  A    between atoms: C_20  and  C_26
REMARK                            x       y       z     vdW  Elec       q    Type
REMARK                         _______ _______ _______ _____ _____    ______ ____
ROOT
ATOM      1  C   UNL     1      34.406 -21.797 -19.067  0.00  0.00    +0.045 C 
ATOM      2  C   UNL     1      35.650 -19.865 -20.690  0.00  0.00    +0.125 C 
ATOM      3  C   UNL     1      33.642 -20.924 -19.863  0.00  0.00    +0.016 C 
ATOM      4  C   UNL     1      35.807 -21.679 -19.102  0.00  0.00    +0.016 C 
ATOM      5  C   UNL     1      34.259 -19.967 -20.668  0.00  0.00    +0.021 C 
ATOM      6  C   UNL     1      36.424 -20.721 -19.906  0.00  0.00    +0.021 C 
ENDROOT
BRANCH   2   7
ATOM      7  S   UNL     1      36.422 -18.665 -21.696  0.00  0.00    +0.075 S 
ATOM      8  O   UNL     1      36.512 -19.208 -23.047  0.00  0.00    -0.150 OA
ATOM      9  O   UNL     1      37.643 -18.218 -21.036  0.00  0.00    -0.150 OA
BRANCH   7  10
ATOM     10  N   UNL     1      35.272 -17.382 -21.711  0.00  0.00    -0.199 N 
ATOM     11  H   UNL     1      34.996 -16.940 -20.876  0.00  0.00    +0.175 HD
ATOM     12  N   UNL     1      33.935 -17.876 -23.590  0.00  0.00    -0.228 NA
ATOM     13  C   UNL     1      34.729 -16.976 -22.979  0.00  0.00    +0.147 C 
ATOM     14  C   UNL     1      35.040 -15.728 -23.483  0.00  0.00    +0.036 C 
ATOM     15  C   UNL     1      34.493 -15.377 -24.712  0.00  0.00    +0.005 C 
ATOM     16  C   UNL     1      33.422 -17.500 -24.783  0.00  0.00    +0.100 C 
ATOM     17  C   UNL     1      33.667 -16.274 -25.380  0.00  0.00    +0.021 C 
ENDBRANCH   7  10
ENDBRANCH   2   7
BRANCH   1  18
ATOM     18  N   UNL     1      33.793 -22.750 -18.267  0.00  0.00    -0.328 N 
ATOM     19  H   UNL     1      34.154 -23.667 -18.277  0.00  0.00    +0.147 HD
BRANCH  18  20
ATOM     20  C   UNL     1      32.655 -22.479 -17.424  0.00  0.00    +0.127 C 
BRANCH  20  26
ATOM     21  S   UNL     1      29.319 -23.278 -16.308  0.00  0.00    -0.104 S 
ATOM     22  O   UNL     1      35.186 -23.182 -16.104  0.00  0.00    -0.210 OA
ATOM     23  N   UNL     1      33.986 -24.252 -14.418  0.00  0.00    -0.333 NA
ATOM     24  N   UNL     1      28.509 -24.579 -14.215  0.00  0.00    -0.262 NA
ATOM     25  C   UNL     1      31.905 -23.782 -15.320  0.00  0.00    +0.033 C 
ATOM     26  C   UNL     1      32.785 -23.241 -16.159  0.00  0.00    +0.092 C 
ATOM     27  C   UNL     1      32.713 -24.398 -14.256  0.00  0.00    +0.142 C 
ATOM     28  C   UNL     1      30.507 -23.878 -15.248  0.00  0.00    +0.114 C 
ATOM     29  C   UNL     1      34.135 -23.536 -15.588  0.00  0.00    +0.202 C 
ATOM     30  C   UNL     1      29.879 -24.536 -14.203  0.00  0.00    +0.069 C 
ATOM     31  C   UNL     1      32.001 -25.095 -13.151  0.00  0.00    +0.034 C 
ATOM     32  C   UNL     1      30.654 -25.139 -13.161  0.00  0.00    +0.018 C 
ATOM     33  C   UNL     1      28.098 -23.940 -15.291  0.00  0.00    +0.183 C 
ENDBRANCH  20  26
ENDBRANCH  18  20
ENDBRANCH   1  18
TORSDOF 5
ENDMDL
MODEL 5
REMARK VINA RESULT:     -11.8      2.384     10.498
REMARK  Name = 1712
REMARK  5 active torsions:
REMARK  status: ('A' for Active; 'I' for Inactive)
REMARK    1  A    between atoms: C_1  and  N_18
REMARK    2  A    between atoms: C_2  and  S_7
REMARK    3  A    between atoms: S_7  and  N_10
REMARK    4  A    between atoms: N_18  and  C_20
REMARK    5  A    between atoms: C_20  and  C_26
REMARK                            x       y       z     vdW  Elec       q    Type
REMARK                         _______ _______ _______ _____ _____    ______ ____
ROOT
ATOM      1  C   UNL     1      33.735 -21.731 -19.211  0.00  0.00    +0.045 C 
ATOM      2  C   UNL     1      35.132 -19.712 -20.586  0.00  0.00    +0.125 C 
ATOM      3  C   UNL     1      35.138 -21.655 -19.150  0.00  0.00    +0.016 C 
ATOM      4  C   UNL     1      33.048 -20.772 -19.977  0.00  0.00    +0.016 C 
ATOM      5  C   UNL     1      35.831 -20.654 -19.831  0.00  0.00    +0.021 C 
ATOM      6  C   UNL     1      33.740 -19.771 -20.659  0.00  0.00    +0.021 C 
ENDROOT
BRANCH   2   7
ATOM      7  S   UNL     1      35.998 -18.460 -21.439  0.00  0.00    +0.075 S 
ATOM      8  O   UNL     1      37.417 -18.619 -21.143  0.00  0.00    -0.150 OA
ATOM      9  O   UNL     1      35.362 -17.179 -21.161  0.00  0.00    -0.150 OA
BRANCH   7  10
ATOM     10  N   UNL     1      35.747 -18.881 -23.092  0.00  0.00    -0.199 N 
ATOM     11  H   UNL     1      36.225 -19.639 -23.499  0.00  0.00    +0.175 HD
ATOM     12  N   UNL     1      35.193 -16.820 -24.097  0.00  0.00    -0.228 NA
ATOM     13  C   UNL     1      34.820 -18.091 -23.857  0.00  0.00    +0.147 C 
ATOM     14  C   UNL     1      33.638 -18.661 -24.290  0.00  0.00    +0.036 C 
ATOM     15  C   UNL     1      32.772 -17.862 -25.027  0.00  0.00    +0.005 C 
ATOM     16  C   UNL     1      34.326 -16.072 -24.815  0.00  0.00    +0.100 C 
ATOM     17  C   UNL     1      33.115 -16.542 -25.299  0.00  0.00    +0.021 C 
ENDBRANCH   7  10
ENDBRANCH   2   7
BRANCH   1  18
ATOM     18  N   UNL     1      33.046 -22.725 -18.532  0.00  0.00    -0.328 N 
ATOM     19  H   UNL     1      32.085 -22.832 -18.717  0.00  0.00    +0.147 HD
BRANCH  18  20
ATOM     20  C   UNL     1      33.656 -23.610 -17.571  0.00  0.00    +0.127 C 
BRANCH  20  26
ATOM     21  S   UNL     1      35.970 -24.696 -15.026  0.00  0.00    -0.104 S 
ATOM     22  O   UNL     1      30.916 -22.618 -17.174  0.00  0.00    -0.210 OA
ATOM     23  N   UNL     1      31.167 -22.904 -14.876  0.00  0.00    -0.333 NA
ATOM     24  N   UNL     1      35.707 -24.814 -12.448  0.00  0.00    -0.262 NA
ATOM     25  C   UNL     1      33.336 -23.707 -15.006  0.00  0.00    +0.033 C 
ATOM     26  C   UNL     1      32.972 -23.465 -16.263  0.00  0.00    +0.092 C 
ATOM     27  C   UNL     1      32.170 -23.339 -14.188  0.00  0.00    +0.142 C 
ATOM     28  C   UNL     1      34.486 -24.193 -14.365  0.00  0.00    +0.114 C 
ATOM     29  C   UNL     1      31.572 -22.945 -16.195  0.00  0.00    +0.202 C 
ATOM     30  C   UNL     1      34.542 -24.331 -12.987  0.00  0.00    +0.069 C 
ATOM     31  C   UNL     1      32.271 -23.501 -12.712  0.00  0.00    +0.034 C 
ATOM     32  C   UNL     1      33.415 -23.976 -12.179  0.00  0.00    +0.018 C 
ATOM     33  C   UNL     1      36.541 -25.045 -13.439  0.00  0.00    +0.183 C 
ENDBRANCH  20  26
ENDBRANCH  18  20
ENDBRANCH   1  18
TORSDOF 5
ENDMDL
MODEL 6
REMARK VINA RESULT:     -11.5      2.320     10.620
REMARK  Name = 1712
REMARK  5 active torsions:
REMARK  status: ('A' for Active; 'I' for Inactive)
REMARK    1  A    between atoms: C_1  and  N_18
REMARK    2  A    between atoms: C_2  and  S_7
REMARK    3  A    between atoms: S_7  and  N_10
REMARK    4  A    between atoms: N_18  and  C_20
REMARK    5  A    between atoms: C_20  and  C_26
REMARK                            x       y       z     vdW  Elec       q    Type
REMARK                         _______ _______ _______ _____ _____    ______ ____
ROOT
ATOM      1  C   UNL     1      33.551 -21.613 -19.078  0.00  0.00    +0.045 C 
ATOM      2  C   UNL     1      35.172 -19.937 -20.653  0.00  0.00    +0.125 C 
ATOM      3  C   UNL     1      32.979 -20.646 -19.925  0.00  0.00    +0.016 C 
ATOM      4  C   UNL     1      34.953 -21.721 -19.038  0.00  0.00    +0.016 C 
ATOM      5  C   UNL     1      33.783 -19.815 -20.706  0.00  0.00    +0.021 C 
ATOM      6  C   UNL     1      35.756 -20.890 -19.819  0.00  0.00    +0.021 C 
ENDROOT
BRANCH   2   7
ATOM      7  S   UNL     1      36.177 -18.897 -21.629  0.00  0.00    +0.075 S 
ATOM      8  O   UNL     1      36.271 -19.488 -22.959  0.00  0.00    -0.150 OA
ATOM      9  O   UNL     1      37.406 -18.615 -20.897  0.00  0.00    -0.150 OA
BRANCH   7  10
ATOM     10  N   UNL     1      35.235 -17.458 -21.749  0.00  0.00    -0.199 N 
ATOM     11  H   UNL     1      35.039 -16.914 -20.953  0.00  0.00    +0.175 HD
ATOM     12  N   UNL     1      33.817 -17.892 -23.583  0.00  0.00    -0.228 NA
ATOM     13  C   UNL     1      34.746 -17.077 -23.047  0.00  0.00    +0.147 C 
ATOM     14  C   UNL     1      35.237 -15.936 -23.651  0.00  0.00    +0.036 C 
ATOM     15  C   UNL     1      34.735 -15.606 -24.904  0.00  0.00    +0.005 C 
ATOM     16  C   UNL     1      33.353 -17.540 -24.803  0.00  0.00    +0.100 C 
ATOM     17  C   UNL     1      33.774 -16.418 -25.498  0.00  0.00    +0.021 C 
ENDBRANCH   7  10
ENDBRANCH   2   7
BRANCH   1  18
ATOM     18  N   UNL     1      32.752 -22.440 -18.303  0.00  0.00    -0.328 N 
ATOM     19  H   UNL     1      31.779 -22.285 -18.309  0.00  0.00    +0.147 HD
BRANCH  18  20
ATOM     20  C   UNL     1      33.263 -23.513 -17.486  0.00  0.00    +0.127 C 
BRANCH  20  26
ATOM     21  S   UNL     1      35.799 -24.517 -15.125  0.00  0.00    -0.104 S 
ATOM     22  O   UNL     1      30.505 -22.688 -16.887  0.00  0.00    -0.210 OA
ATOM     23  N   UNL     1      30.924 -23.006 -14.618  0.00  0.00    -0.333 NA
ATOM     24  N   UNL     1      35.715 -24.703 -12.539  0.00  0.00    -0.262 NA
ATOM     25  C   UNL     1      33.121 -23.681 -14.909  0.00  0.00    +0.033 C 
ATOM     26  C   UNL     1      32.661 -23.434 -16.134  0.00  0.00    +0.092 C 
ATOM     27  C   UNL     1      31.993 -23.397 -14.007  0.00  0.00    +0.142 C 
ATOM     28  C   UNL     1      34.336 -24.114 -14.356  0.00  0.00    +0.114 C 
ATOM     29  C   UNL     1      31.242 -22.997 -15.961  0.00  0.00    +0.202 C 
ATOM     30  C   UNL     1      34.492 -24.276 -12.989  0.00  0.00    +0.069 C 
ATOM     31  C   UNL     1      32.202 -23.583 -12.546  0.00  0.00    +0.034 C 
ATOM     32  C   UNL     1      33.403 -24.003 -12.101  0.00  0.00    +0.018 C 
ATOM     33  C   UNL     1      36.493 -24.866 -13.588  0.00  0.00    +0.183 C 
ENDBRANCH  20  26
ENDBRANCH  18  20
ENDBRANCH   1  18
TORSDOF 5
ENDMDL
MODEL 7
REMARK VINA RESULT:     -11.5      5.779     12.347
REMARK  Name = 1712
REMARK  5 active torsions:
REMARK  status: ('A' for Active; 'I' for Inactive)
REMARK    1  A    between atoms: C_1  and  N_18
REMARK    2  A    between atoms: C_2  and  S_7
REMARK    3  A    between atoms: S_7  and  N_10
REMARK    4  A    between atoms: N_18  and  C_20
REMARK    5  A    between atoms: C_20  and  C_26
REMARK                            x       y       z     vdW  Elec       q    Type
REMARK                         _______ _______ _______ _____ _____    ______ ____
ROOT
ATOM      1  C   UNL     1      32.848 -12.251 -22.318  0.00  0.00    +0.045 C 
ATOM      2  C   UNL     1      32.171  -9.520 -22.277  0.00  0.00    +0.125 C 
ATOM      3  C   UNL     1      33.461 -11.342 -23.201  0.00  0.00    +0.016 C 
ATOM      4  C   UNL     1      31.887 -11.759 -21.415  0.00  0.00    +0.016 C 
ATOM      5  C   UNL     1      33.125  -9.989 -23.180  0.00  0.00    +0.021 C 
ATOM      6  C   UNL     1      31.552 -10.406 -21.395  0.00  0.00    +0.021 C 
ENDROOT
BRANCH   2   7
ATOM      7  S   UNL     1      31.750  -7.826 -22.252  0.00  0.00    +0.075 S 
ATOM      8  O   UNL     1      31.140  -7.538 -20.959  0.00  0.00    -0.150 OA
ATOM      9  O   UNL     1      31.007  -7.512 -23.465  0.00  0.00    -0.150 OA
BRANCH   7  10
ATOM     10  N   UNL     1      33.288  -7.050 -22.301  0.00  0.00    -0.199 N 
ATOM     11  H   UNL     1      33.910  -7.110 -21.541  0.00  0.00    +0.175 HD
ATOM     12  N   UNL     1      32.915  -5.197 -23.713  0.00  0.00    -0.228 NA
ATOM     13  C   UNL     1      33.636  -6.312 -23.486  0.00  0.00    +0.147 C 
ATOM     14  C   UNL     1      34.655  -6.771 -24.298  0.00  0.00    +0.036 C 
ATOM     15  C   UNL     1      34.957  -6.026 -25.432  0.00  0.00    +0.005 C 
ATOM     16  C   UNL     1      33.236  -4.500 -24.825  0.00  0.00    +0.100 C 
ATOM     17  C   UNL     1      34.239  -4.867 -25.708  0.00  0.00    +0.021 C 
ENDBRANCH   7  10
ENDBRANCH   2   7
BRANCH   1  18
ATOM     18  N   UNL     1      33.182 -13.596 -22.338  0.00  0.00    -0.328 N 
ATOM     19  H   UNL     1      32.543 -14.239 -21.953  0.00  0.00    +0.147 HD
BRANCH  18  20
ATOM     20  C   UNL     1      34.412 -14.110 -22.888  0.00  0.00    +0.127 C 
BRANCH  20  26
ATOM     21  S   UNL     1      35.341 -17.087 -21.074  0.00  0.00    -0.104 S 
ATOM     22  O   UNL     1      33.280 -13.961 -25.597  0.00  0.00    -0.210 OA
ATOM     23  N   UNL     1      33.356 -16.285 -25.735  0.00  0.00    -0.333 NA
ATOM     24  N   UNL     1      35.203 -19.586 -21.755  0.00  0.00    -0.262 NA
ATOM     25  C   UNL     1      34.252 -16.585 -23.620  0.00  0.00    +0.033 C 
ATOM     26  C   UNL     1      34.116 -15.269 -23.763  0.00  0.00    +0.092 C 
ATOM     27  C   UNL     1      33.762 -17.165 -24.880  0.00  0.00    +0.142 C 
ATOM     28  C   UNL     1      34.719 -17.447 -22.616  0.00  0.00    +0.114 C 
ATOM     29  C   UNL     1      33.538 -15.060 -25.126  0.00  0.00    +0.202 C 
ATOM     30  C   UNL     1      34.728 -18.822 -22.789  0.00  0.00    +0.069 C 
ATOM     31  C   UNL     1      33.787 -18.645 -25.026  0.00  0.00    +0.034 C 
ATOM     32  C   UNL     1      34.254 -19.399 -24.011  0.00  0.00    +0.018 C 
ATOM     33  C   UNL     1      35.559 -18.770 -20.785  0.00  0.00    +0.183 C 
ENDBRANCH  20  26
ENDBRANCH  18  20
ENDBRANCH   1  18
TORSDOF 5
ENDMDL
MODEL 8
REMARK VINA RESULT:     -11.4      3.832      6.934
REMARK  Name = 1712
REMARK  5 active torsions:
REMARK  status: ('A' for Active; 'I' for Inactive)
REMARK    1  A    between atoms: C_1  and  N_18
REMARK    2  A    between atoms: C_2  and  S_7
REMARK    3  A    between atoms: S_7  and  N_10
REMARK    4  A    between atoms: N_18  and  C_20
REMARK    5  A    between atoms: C_20  and  C_26
REMARK                            x       y       z     vdW  Elec       q    Type
REMARK                         _______ _______ _______ _____ _____    ______ ____
ROOT
ATOM      1  C   UNL     1      33.913 -14.403 -23.643  0.00  0.00    +0.045 C 
ATOM      2  C   UNL     1      34.754 -16.981 -22.893  0.00  0.00    +0.125 C 
ATOM      3  C   UNL     1      33.817 -15.482 -24.540  0.00  0.00    +0.016 C 
ATOM      4  C   UNL     1      34.441 -14.645 -22.362  0.00  0.00    +0.016 C 
ATOM      5  C   UNL     1      34.234 -16.760 -24.168  0.00  0.00    +0.021 C 
ATOM      6  C   UNL     1      34.858 -15.923 -21.990  0.00  0.00    +0.021 C 
ENDROOT
BRANCH   2   7
ATOM      7  S   UNL     1      35.277 -18.580 -22.428  0.00  0.00    +0.075 S 
ATOM      8  O   UNL     1      36.734 -18.571 -22.364  0.00  0.00    -0.150 OA
ATOM      9  O   UNL     1      34.618 -19.555 -23.288  0.00  0.00    -0.150 OA
BRANCH   7  10
ATOM     10  N   UNL     1      34.672 -18.727 -20.821  0.00  0.00    -0.199 N 
ATOM     11  H   UNL     1      34.355 -17.939 -20.325  0.00  0.00    +0.175 HD
ATOM     12  N   UNL     1      35.847 -20.587 -19.969  0.00  0.00    -0.228 NA
ATOM     13  C   UNL     1      34.645 -20.037 -20.226  0.00  0.00    +0.147 C 
ATOM     14  C   UNL     1      33.430 -20.637 -19.960  0.00  0.00    +0.036 C 
ATOM     15  C   UNL     1      33.451 -21.902 -19.384  0.00  0.00    +0.005 C 
ATOM     16  C   UNL     1      35.828 -21.818 -19.410  0.00  0.00    +0.100 C 
ATOM     17  C   UNL     1      34.669 -22.511 -19.101  0.00  0.00    +0.021 C 
ENDBRANCH   7  10
ENDBRANCH   2   7
BRANCH   1  18
ATOM     18  N   UNL     1      33.497 -13.132 -24.012  0.00  0.00    -0.328 N 
ATOM     19  H   UNL     1      32.734 -13.055 -24.629  0.00  0.00    +0.147 HD
BRANCH  18  20
ATOM     20  C   UNL     1      34.120 -11.918 -23.547  0.00  0.00    +0.127 C 
BRANCH  20  26
ATOM     21  S   UNL     1      34.995  -8.456 -24.063  0.00  0.00    -0.104 S 
ATOM     22  O   UNL     1      31.861 -12.965 -21.982  0.00  0.00    -0.210 OA
ATOM     23  N   UNL     1      31.226 -10.782 -21.475  0.00  0.00    -0.333 NA
ATOM     24  N   UNL     1      33.862  -6.286 -23.204  0.00  0.00    -0.262 NA
ATOM     25  C   UNL     1      32.950  -9.788 -22.662  0.00  0.00    +0.033 C 
ATOM     26  C   UNL     1      33.121 -11.098 -22.819  0.00  0.00    +0.092 C 
ATOM     27  C   UNL     1      31.754  -9.653 -21.815  0.00  0.00    +0.142 C 
ATOM     28  C   UNL     1      33.608  -8.625 -23.092  0.00  0.00    +0.114 C 
ATOM     29  C   UNL     1      32.015 -11.754 -22.057  0.00  0.00    +0.202 C 
ATOM     30  C   UNL     1      33.156  -7.364 -22.738  0.00  0.00    +0.069 C 
ATOM     31  C   UNL     1      31.301  -8.282 -21.457  0.00  0.00    +0.034 C 
ATOM     32  C   UNL     1      31.994  -7.219 -21.915  0.00  0.00    +0.018 C 
ATOM     33  C   UNL     1      34.865  -6.745 -23.922  0.00  0.00    +0.183 C 
ENDBRANCH  20  26
ENDBRANCH  18  20
ENDBRANCH   1  18
TORSDOF 5
ENDMDL
MODEL 9
REMARK VINA RESULT:     -11.3      3.841      6.922
REMARK  Name = 1712
REMARK  5 active torsions:
REMARK  status: ('A' for Active; 'I' for Inactive)
REMARK    1  A    between atoms: C_1  and  N_18
REMARK    2  A    between atoms: C_2  and  S_7
REMARK    3  A    between atoms: S_7  and  N_10
REMARK    4  A    between atoms: N_18  and  C_20
REMARK    5  A    between atoms: C_20  and  C_26
REMARK                            x       y       z     vdW  Elec       q    Type
REMARK                         _______ _______ _______ _____ _____    ______ ____
ROOT
ATOM      1  C   UNL     1      33.986 -14.430 -23.894  0.00  0.00    +0.045 C 
ATOM      2  C   UNL     1      34.801 -16.982 -23.035  0.00  0.00    +0.125 C 
ATOM      3  C   UNL     1      33.956 -15.529 -24.771  0.00  0.00    +0.016 C 
ATOM      4  C   UNL     1      34.435 -14.638 -22.578  0.00  0.00    +0.016 C 
ATOM      5  C   UNL     1      34.359 -16.795 -24.345  0.00  0.00    +0.021 C 
ATOM      6  C   UNL     1      34.839 -15.903 -22.151  0.00  0.00    +0.021 C 
ENDROOT
BRANCH   2   7
ATOM      7  S   UNL     1      35.307 -18.565 -22.502  0.00  0.00    +0.075 S 
ATOM      8  O   UNL     1      36.762 -18.558 -22.405  0.00  0.00    -0.150 OA
ATOM      9  O   UNL     1      34.664 -19.568 -23.342  0.00  0.00    -0.150 OA
BRANCH   7  10
ATOM     10  N   UNL     1      34.665 -18.654 -20.905  0.00  0.00    -0.199 N 
ATOM     11  H   UNL     1      34.348 -17.846 -20.441  0.00  0.00    +0.175 HD
ATOM     12  N   UNL     1      35.796 -20.501 -19.970  0.00  0.00    -0.228 NA
ATOM     13  C   UNL     1      34.607 -19.943 -20.270  0.00  0.00    +0.147 C 
ATOM     14  C   UNL     1      33.378 -20.519 -20.013  0.00  0.00    +0.036 C 
ATOM     15  C   UNL     1      33.369 -21.766 -19.398  0.00  0.00    +0.005 C 
ATOM     16  C   UNL     1      35.747 -21.713 -19.373  0.00  0.00    +0.100 C 
ATOM     17  C   UNL     1      34.572 -22.381 -19.068  0.00  0.00    +0.021 C 
ENDBRANCH   7  10
ENDBRANCH   2   7
BRANCH   1  18
ATOM     18  N   UNL     1      33.584 -13.172 -24.317  0.00  0.00    -0.328 N 
ATOM     19  H   UNL     1      33.714 -12.937 -25.265  0.00  0.00    +0.147 HD
BRANCH  18  20
ATOM     20  C   UNL     1      32.987 -12.186 -23.450  0.00  0.00    +0.127 C 
BRANCH  20  26
ATOM     21  S   UNL     1      31.751  -9.946 -20.907  0.00  0.00    -0.104 S 
ATOM     22  O   UNL     1      34.960 -11.581 -25.544  0.00  0.00    -0.210 OA
ATOM     23  N   UNL     1      35.134  -9.408 -24.724  0.00  0.00    -0.333 NA
ATOM     24  N   UNL     1      32.325  -7.463 -20.425  0.00  0.00    -0.262 NA
ATOM     25  C   UNL     1      33.597  -9.711 -23.017  0.00  0.00    +0.033 C 
ATOM     26  C   UNL     1      33.662 -10.881 -23.647  0.00  0.00    +0.092 C 
ATOM     27  C   UNL     1      34.537  -8.833 -23.733  0.00  0.00    +0.142 C 
ATOM     28  C   UNL     1      32.890  -9.193 -21.921  0.00  0.00    +0.114 C 
ATOM     29  C   UNL     1      34.651 -10.700 -24.754  0.00  0.00    +0.202 C 
ATOM     30  C   UNL     1      33.059  -7.882 -21.505  0.00  0.00    +0.069 C 
ATOM     31  C   UNL     1      34.689  -7.433 -23.255  0.00  0.00    +0.034 C 
ATOM     32  C   UNL     1      33.969  -7.018 -22.193  0.00  0.00    +0.018 C 
ATOM     33  C   UNL     1      31.591  -8.478 -20.022  0.00  0.00    +0.183 C 
ENDBRANCH  20  26
ENDBRANCH  18  20
ENDBRANCH   1  18
TORSDOF 5
ENDMDL
