MODEL 1
REMARK VINA RESULT:     -12.0      0.000      0.000
REMARK  Name = 11691242
REMARK  5 active torsions:
REMARK  status: ('A' for Active; 'I' for Inactive)
REMARK    1  A    between atoms: N_1  and  C_25
REMARK    2  A    between atoms: C_5  and  N_11
REMARK    3  A    between atoms: N_12  and  C_17
REMARK    4  A    between atoms: C_18  and  O_23
REMARK    5  A    between atoms: C_25  and  C_28
REMARK                            x       y       z     vdW  Elec       q    Type
REMARK                         _______ _______ _______ _____ _____    ______ ____
ROOT
ATOM      1  N   UNL     1      35.103 -16.935 -22.534  0.00  0.00    -0.282 N 
ATOM      2  C   UNL     1      34.522 -16.141 -23.496  0.00  0.00    +0.053 C 
ATOM      3  C   UNL     1      34.072 -14.983 -22.857  0.00  0.00    +0.028 C 
ATOM      4  C   UNL     1      35.037 -16.321 -21.312  0.00  0.00    +0.066 C 
ATOM      5  C   UNL     1      33.430 -13.990 -23.624  0.00  0.00    +0.053 C 
ATOM      6  C   UNL     1      34.404 -15.111 -21.479  0.00  0.00    +0.019 C 
ATOM      7  C   UNL     1      34.361 -16.356 -24.869  0.00  0.00    +0.015 C 
ATOM      8  C   UNL     1      33.261 -14.192 -24.999  0.00  0.00    +0.015 C 
ATOM      9  C   UNL     1      33.720 -15.357 -25.610  0.00  0.00    +0.003 C 
ENDROOT
BRANCH   5  11
ATOM     10  O   UNL     1      34.341 -11.167 -23.968  0.00  0.00    -0.252 OA
ATOM     11  N   UNL     1      32.961 -12.815 -23.036  0.00  0.00    -0.268 N 
ATOM     12  N   UNL     1      32.667 -10.604 -22.436  0.00  0.00    -0.266 N 
ATOM     13  C   UNL     1      33.420 -11.489 -23.224  0.00  0.00    +0.308 C 
ATOM     14  H   UNL     1      32.212 -12.921 -22.406  0.00  0.00    +0.156 HD
ATOM     15  H   UNL     1      31.958 -11.011 -21.888  0.00  0.00    +0.157 HD
BRANCH  12  17
ATOM     16 BR   UNL     1      34.812  -6.228 -24.416  0.00  0.00    -0.049 Br
ATOM     17  C   UNL     1      32.802  -9.199 -22.332  0.00  0.00    +0.086 C 
ATOM     18  C   UNL     1      32.150  -8.514 -21.319  0.00  0.00    +0.152 C 
ATOM     19  C   UNL     1      33.592  -8.536 -23.258  0.00  0.00    +0.024 C 
ATOM     20  C   UNL     1      32.292  -7.130 -21.230  0.00  0.00    +0.039 C 
ATOM     21  C   UNL     1      33.734  -7.151 -23.168  0.00  0.00    +0.036 C 
ATOM     22  C   UNL     1      33.084  -6.448 -22.155  0.00  0.00    +0.010 C 
BRANCH  18  23
ATOM     23  O   UNL     1      31.373  -9.162 -20.406  0.00  0.00    -0.470 OA
ATOM     24  C   UNL     1      31.984  -9.508 -19.164  0.00  0.00    +0.253 C 
ENDBRANCH  18  23
ENDBRANCH  12  17
ENDBRANCH   5  11
BRANCH   1  25
ATOM     25  C   UNL     1      35.699 -18.234 -22.763  0.00  0.00    +0.122 C 
BRANCH  25  28
ATOM     26  N   UNL     1      34.967 -20.894 -19.483  0.00  0.00    -0.230 NA
ATOM     27  N   UNL     1      32.644 -20.882 -20.010  0.00  0.00    -0.343 N 
ATOM     28  C   UNL     1      35.441 -19.167 -21.611  0.00  0.00    +0.002 C 
ATOM     29  C   UNL     1      34.150 -19.590 -21.347  0.00  0.00    +0.031 C 
ATOM     30  C   UNL     1      36.498 -19.593 -20.828  0.00  0.00    +0.018 C 
ATOM     31  C   UNL     1      33.967 -20.450 -20.277  0.00  0.00    +0.125 C 
ATOM     32  C   UNL     1      36.210 -20.453 -19.780  0.00  0.00    +0.100 C 
ATOM     33  H   UNL     1      32.468 -21.493 -19.259  0.00  0.00    +0.144 HD
ATOM     34  H   UNL     1      31.901 -20.571 -20.577  0.00  0.00    +0.144 HD
ENDBRANCH  25  28
ENDBRANCH   1  25
TORSDOF 5
ENDMDL
MODEL 2
REMARK VINA RESULT:     -11.0      3.844     10.670
REMARK  Name = 11691242
REMARK  5 active torsions:
REMARK  status: ('A' for Active; 'I' for Inactive)
REMARK    1  A    between atoms: N_1  and  C_25
REMARK    2  A    between atoms: C_5  and  N_11
REMARK    3  A    between atoms: N_12  and  C_17
REMARK    4  A    between atoms: C_18  and  O_23
REMARK    5  A    between atoms: C_25  and  C_28
REMARK                            x       y       z     vdW  Elec       q    Type
REMARK                         _______ _______ _______ _____ _____    ______ ____
ROOT
ATOM      1  N   UNL     1      34.316  -8.229 -23.244  0.00  0.00    -0.282 N 
ATOM      2  C   UNL     1      33.469  -9.221 -22.805  0.00  0.00    +0.053 C 
ATOM      3  C   UNL     1      33.884 -10.412 -23.405  0.00  0.00    +0.028 C 
ATOM      4  C   UNL     1      35.249  -8.750 -24.100  0.00  0.00    +0.066 C 
ATOM      5  C   UNL     1      33.178 -11.598 -23.121  0.00  0.00    +0.053 C 
ATOM      6  C   UNL     1      35.008 -10.099 -24.221  0.00  0.00    +0.019 C 
ATOM      7  C   UNL     1      32.379  -9.157 -21.930  0.00  0.00    +0.015 C 
ATOM      8  C   UNL     1      32.085 -11.548 -22.248  0.00  0.00    +0.015 C 
ATOM      9  C   UNL     1      31.693 -10.346 -21.662  0.00  0.00    +0.003 C 
ENDROOT
BRANCH   5  11
ATOM     10  O   UNL     1      33.436 -14.308 -21.892  0.00  0.00    -0.252 OA
ATOM     11  N   UNL     1      33.550 -12.814 -23.694  0.00  0.00    -0.268 N 
ATOM     12  N   UNL     1      34.067 -15.041 -24.021  0.00  0.00    -0.266 N 
ATOM     13  C   UNL     1      33.662 -14.084 -23.077  0.00  0.00    +0.308 C 
ATOM     14  H   UNL     1      33.764 -12.787 -24.655  0.00  0.00    +0.156 HD
ATOM     15  H   UNL     1      34.211 -14.711 -24.937  0.00  0.00    +0.157 HD
BRANCH  12  17
ATOM     16 BR   UNL     1      36.572 -18.727 -21.226  0.00  0.00    -0.049 Br
ATOM     17  C   UNL     1      34.295 -16.423 -23.817  0.00  0.00    +0.086 C 
ATOM     18  C   UNL     1      33.659 -17.356 -24.622  0.00  0.00    +0.152 C 
ATOM     19  C   UNL     1      35.158 -16.814 -22.806  0.00  0.00    +0.024 C 
ATOM     20  C   UNL     1      33.892 -18.714 -24.409  0.00  0.00    +0.039 C 
ATOM     21  C   UNL     1      35.392 -18.173 -22.594  0.00  0.00    +0.036 C 
ATOM     22  C   UNL     1      34.759 -19.123 -23.395  0.00  0.00    +0.010 C 
BRANCH  18  23
ATOM     23  O   UNL     1      32.809 -16.976 -25.618  0.00  0.00    -0.470 OA
ATOM     24  C   UNL     1      31.648 -17.779 -25.821  0.00  0.00    +0.253 C 
ENDBRANCH  18  23
ENDBRANCH  12  17
ENDBRANCH   5  11
BRANCH   1  25
ATOM     25  C   UNL     1      34.242  -6.833 -22.870  0.00  0.00    +0.122 C 
BRANCH  25  28
ATOM     26  N   UNL     1      33.759  -4.317 -26.306  0.00  0.00    -0.230 NA
ATOM     27  N   UNL     1      36.028  -4.726 -26.906  0.00  0.00    -0.343 N 
ATOM     28  C   UNL     1      34.073  -5.949 -24.076  0.00  0.00    +0.002 C 
ATOM     29  C   UNL     1      35.140  -5.749 -24.933  0.00  0.00    +0.031 C 
ATOM     30  C   UNL     1      32.852  -5.346 -24.315  0.00  0.00    +0.018 C 
ATOM     31  C   UNL     1      34.933  -4.928 -26.030  0.00  0.00    +0.125 C 
ATOM     32  C   UNL     1      32.746  -4.543 -25.439  0.00  0.00    +0.100 C 
ATOM     33  H   UNL     1      35.924  -4.150 -27.698  0.00  0.00    +0.144 HD
ATOM     34  H   UNL     1      36.891  -5.163 -26.724  0.00  0.00    +0.144 HD
ENDBRANCH  25  28
ENDBRANCH   1  25
TORSDOF 5
ENDMDL
MODEL 3
REMARK VINA RESULT:     -10.8      1.690      2.445
REMARK  Name = 11691242
REMARK  5 active torsions:
REMARK  status: ('A' for Active; 'I' for Inactive)
REMARK    1  A    between atoms: N_1  and  C_25
REMARK    2  A    between atoms: C_5  and  N_11
REMARK    3  A    between atoms: N_12  and  C_17
REMARK    4  A    between atoms: C_18  and  O_23
REMARK    5  A    between atoms: C_25  and  C_28
REMARK                            x       y       z     vdW  Elec       q    Type
REMARK                         _______ _______ _______ _____ _____    ______ ____
ROOT
ATOM      1  N   UNL     1      34.959 -17.418 -22.496  0.00  0.00    -0.282 N 
ATOM      2  C   UNL     1      34.391 -16.590 -23.437  0.00  0.00    +0.053 C 
ATOM      3  C   UNL     1      34.254 -15.331 -22.846  0.00  0.00    +0.028 C 
ATOM      4  C   UNL     1      35.185 -16.730 -21.335  0.00  0.00    +0.066 C 
ATOM      5  C   UNL     1      33.690 -14.285 -23.602  0.00  0.00    +0.053 C 
ATOM      6  C   UNL     1      34.758 -15.436 -21.519  0.00  0.00    +0.019 C 
ATOM      7  C   UNL     1      33.993 -16.854 -24.751  0.00  0.00    +0.015 C 
ATOM      8  C   UNL     1      33.287 -14.535 -24.920  0.00  0.00    +0.015 C 
ATOM      9  C   UNL     1      33.437 -15.800 -25.483  0.00  0.00    +0.003 C 
ENDROOT
BRANCH   5  11
ATOM     10  O   UNL     1      33.858 -11.603 -24.907  0.00  0.00    -0.252 OA
ATOM     11  N   UNL     1      33.530 -13.008 -23.061  0.00  0.00    -0.268 N 
ATOM     12  N   UNL     1      33.388 -10.719 -22.793  0.00  0.00    -0.266 N 
ATOM     13  C   UNL     1      33.617 -11.755 -23.713  0.00  0.00    +0.308 C 
ATOM     14  H   UNL     1      33.329 -12.975 -22.098  0.00  0.00    +0.156 HD
ATOM     15  H   UNL     1      33.206 -10.997 -21.867  0.00  0.00    +0.157 HD
BRANCH  12  17
ATOM     16 BR   UNL     1      30.660  -6.225 -22.615  0.00  0.00    -0.049 Br
ATOM     17  C   UNL     1      33.384  -9.325 -23.035  0.00  0.00    +0.086 C 
ATOM     18  C   UNL     1      34.517  -8.707 -23.544  0.00  0.00    +0.152 C 
ATOM     19  C   UNL     1      32.236  -8.602 -22.753  0.00  0.00    +0.024 C 
ATOM     20  C   UNL     1      34.499  -7.333 -23.777  0.00  0.00    +0.039 C 
ATOM     21  C   UNL     1      32.218  -7.227 -22.986  0.00  0.00    +0.036 C 
ATOM     22  C   UNL     1      33.350  -6.592 -23.498  0.00  0.00    +0.010 C 
BRANCH  18  23
ATOM     23  O   UNL     1      35.648  -9.414 -23.824  0.00  0.00    -0.470 OA
ATOM     24  C   UNL     1      35.957  -9.624 -25.201  0.00  0.00    +0.253 C 
ENDBRANCH  18  23
ENDBRANCH  12  17
ENDBRANCH   5  11
BRANCH   1  25
ATOM     25  C   UNL     1      35.275 -18.818 -22.689  0.00  0.00    +0.122 C 
BRANCH  25  28
ATOM     26  N   UNL     1      34.099 -21.167 -19.303  0.00  0.00    -0.230 NA
ATOM     27  N   UNL     1      36.390 -21.422 -18.702  0.00  0.00    -0.343 N 
ATOM     28  C   UNL     1      34.863 -19.643 -21.501  0.00  0.00    +0.002 C 
ATOM     29  C   UNL     1      35.829 -20.152 -20.651  0.00  0.00    +0.031 C 
ATOM     30  C   UNL     1      33.521 -19.884 -21.269  0.00  0.00    +0.018 C 
ATOM     31  C   UNL     1      35.397 -20.904 -19.571  0.00  0.00    +0.125 C 
ATOM     32  C   UNL     1      33.192 -20.649 -20.161  0.00  0.00    +0.100 C 
ATOM     33  H   UNL     1      36.127 -21.961 -17.922  0.00  0.00    +0.144 HD
ATOM     34  H   UNL     1      37.342 -21.241 -18.879  0.00  0.00    +0.144 HD
ENDBRANCH  25  28
ENDBRANCH   1  25
TORSDOF 5
ENDMDL
MODEL 4
REMARK VINA RESULT:     -10.7      6.638     11.838
REMARK  Name = 11691242
REMARK  5 active torsions:
REMARK  status: ('A' for Active; 'I' for Inactive)
REMARK    1  A    between atoms: N_1  and  C_25
REMARK    2  A    between atoms: C_5  and  N_11
REMARK    3  A    between atoms: N_12  and  C_17
REMARK    4  A    between atoms: C_18  and  O_23
REMARK    5  A    between atoms: C_25  and  C_28
REMARK                            x       y       z     vdW  Elec       q    Type
REMARK                         _______ _______ _______ _____ _____    ______ ____
ROOT
ATOM      1  N   UNL     1      35.779 -18.710 -22.423  0.00  0.00    -0.282 N 
ATOM      2  C   UNL     1      35.027 -19.472 -21.558  0.00  0.00    +0.053 C 
ATOM      3  C   UNL     1      35.861 -19.835 -20.499  0.00  0.00    +0.028 C 
ATOM      4  C   UNL     1      37.057 -18.580 -21.950  0.00  0.00    +0.066 C 
ATOM      5  C   UNL     1      35.334 -20.628 -19.460  0.00  0.00    +0.053 C 
ATOM      6  C   UNL     1      37.140 -19.266 -20.760  0.00  0.00    +0.019 C 
ATOM      7  C   UNL     1      33.686 -19.863 -21.630  0.00  0.00    +0.015 C 
ATOM      8  C   UNL     1      33.993 -21.027 -19.520  0.00  0.00    +0.015 C 
ATOM      9  C   UNL     1      33.183 -20.649 -20.588  0.00  0.00    +0.003 C 
ENDROOT
BRANCH   5  11
ATOM     10  O   UNL     1      35.013 -22.916 -17.568  0.00  0.00    -0.252 OA
ATOM     11  N   UNL     1      36.124 -21.020 -18.379  0.00  0.00    -0.268 N 
ATOM     12  N   UNL     1      36.971 -22.144 -16.548  0.00  0.00    -0.266 N 
ATOM     13  C   UNL     1      35.940 -22.115 -17.501  0.00  0.00    +0.308 C 
ATOM     14  H   UNL     1      36.915 -20.460 -18.202  0.00  0.00    +0.156 HD
ATOM     15  H   UNL     1      37.646 -21.432 -16.620  0.00  0.00    +0.157 HD
BRANCH  12  17
ATOM     16 BR   UNL     1      40.174 -25.651 -14.287  0.00  0.00    -0.049 Br
ATOM     17  C   UNL     1      37.158 -23.072 -15.496  0.00  0.00    +0.086 C 
ATOM     18  C   UNL     1      36.155 -23.269 -14.559  0.00  0.00    +0.152 C 
ATOM     19  C   UNL     1      38.354 -23.768 -15.427  0.00  0.00    +0.024 C 
ATOM     20  C   UNL     1      36.354 -24.186 -13.528  0.00  0.00    +0.039 C 
ATOM     21  C   UNL     1      38.553 -24.686 -14.395  0.00  0.00    +0.036 C 
ATOM     22  C   UNL     1      37.553 -24.894 -13.446  0.00  0.00    +0.010 C 
BRANCH  18  23
ATOM     23  O   UNL     1      34.977 -22.588 -14.624  0.00  0.00    -0.470 OA
ATOM     24  C   UNL     1      33.779 -23.350 -14.487  0.00  0.00    +0.253 C 
ENDBRANCH  18  23
ENDBRANCH  12  17
ENDBRANCH   5  11
BRANCH   1  25
ATOM     25  C   UNL     1      35.305 -18.128 -23.661  0.00  0.00    +0.122 C 
BRANCH  25  28
ATOM     26  N   UNL     1      33.664 -14.221 -23.022  0.00  0.00    -0.230 NA
ATOM     27  N   UNL     1      32.834 -14.220 -25.255  0.00  0.00    -0.343 N 
ATOM     28  C   UNL     1      34.729 -16.756 -23.437  0.00  0.00    +0.002 C 
ATOM     29  C   UNL     1      34.046 -16.125 -24.461  0.00  0.00    +0.031 C 
ATOM     30  C   UNL     1      34.889 -16.140 -22.209  0.00  0.00    +0.018 C 
ATOM     31  C   UNL     1      33.534 -14.863 -24.204  0.00  0.00    +0.125 C 
ATOM     32  C   UNL     1      34.340 -14.878 -22.053  0.00  0.00    +0.100 C 
ATOM     33  H   UNL     1      32.454 -13.323 -25.116  0.00  0.00    +0.144 HD
ATOM     34  H   UNL     1      32.728 -14.671 -26.124  0.00  0.00    +0.144 HD
ENDBRANCH  25  28
ENDBRANCH   1  25
TORSDOF 5
ENDMDL
MODEL 5
REMARK VINA RESULT:     -10.6      6.827     12.407
REMARK  Name = 11691242
REMARK  5 active torsions:
REMARK  status: ('A' for Active; 'I' for Inactive)
REMARK    1  A    between atoms: N_1  and  C_25
REMARK    2  A    between atoms: C_5  and  N_11
REMARK    3  A    between atoms: N_12  and  C_17
REMARK    4  A    between atoms: C_18  and  O_23
REMARK    5  A    between atoms: C_25  and  C_28
REMARK                            x       y       z     vdW  Elec       q    Type
REMARK                         _______ _______ _______ _____ _____    ______ ____
ROOT
ATOM      1  N   UNL     1      35.864 -18.908 -21.635  0.00  0.00    -0.282 N 
ATOM      2  C   UNL     1      35.108 -19.773 -20.878  0.00  0.00    +0.053 C 
ATOM      3  C   UNL     1      35.955 -20.324 -19.914  0.00  0.00    +0.028 C 
ATOM      4  C   UNL     1      37.157 -18.893 -21.185  0.00  0.00    +0.066 C 
ATOM      5  C   UNL     1      35.427 -21.255 -18.997  0.00  0.00    +0.053 C 
ATOM      6  C   UNL     1      37.246 -19.760 -20.121  0.00  0.00    +0.019 C 
ATOM      7  C   UNL     1      33.752 -20.107 -20.970  0.00  0.00    +0.015 C 
ATOM      8  C   UNL     1      34.073 -21.599 -19.078  0.00  0.00    +0.015 C 
ATOM      9  C   UNL     1      33.250 -21.033 -20.050  0.00  0.00    +0.003 C 
ENDROOT
BRANCH   5  11
ATOM     10  O   UNL     1      34.673 -22.604 -16.441  0.00  0.00    -0.252 OA
ATOM     11  N   UNL     1      36.230 -21.836 -18.015  0.00  0.00    -0.268 N 
ATOM     12  N   UNL     1      36.967 -22.914 -16.110  0.00  0.00    -0.266 N 
ATOM     13  C   UNL     1      35.835 -22.469 -16.811  0.00  0.00    +0.308 C 
ATOM     14  H   UNL     1      37.200 -21.801 -18.180  0.00  0.00    +0.156 HD
ATOM     15  H   UNL     1      37.836 -22.733 -16.534  0.00  0.00    +0.157 HD
BRANCH  12  17
ATOM     16 BR   UNL     1      34.377 -24.272 -11.738  0.00  0.00    -0.049 Br
ATOM     17  C   UNL     1      37.011 -23.593 -14.869  0.00  0.00    +0.086 C 
ATOM     18  C   UNL     1      38.173 -24.238 -14.474  0.00  0.00    +0.152 C 
ATOM     19  C   UNL     1      35.879 -23.597 -14.071  0.00  0.00    +0.024 C 
ATOM     20  C   UNL     1      38.202 -24.902 -13.249  0.00  0.00    +0.039 C 
ATOM     21  C   UNL     1      35.908 -24.261 -12.845  0.00  0.00    +0.036 C 
ATOM     22  C   UNL     1      37.070 -24.915 -12.434  0.00  0.00    +0.010 C 
BRANCH  18  23
ATOM     23  O   UNL     1      39.290 -24.236 -15.255  0.00  0.00    -0.470 OA
ATOM     24  C   UNL     1      40.312 -25.176 -14.927  0.00  0.00    +0.253 C 
ENDBRANCH  18  23
ENDBRANCH  12  17
ENDBRANCH   5  11
BRANCH   1  25
ATOM     25  C   UNL     1      35.380 -18.123 -22.751  0.00  0.00    +0.122 C 
BRANCH  25  28
ATOM     26  N   UNL     1      34.176 -14.204 -21.502  0.00  0.00    -0.230 NA
ATOM     27  N   UNL     1      34.158 -13.501 -23.778  0.00  0.00    -0.343 N 
ATOM     28  C   UNL     1      34.958 -16.747 -22.313  0.00  0.00    +0.002 C 
ATOM     29  C   UNL     1      34.755 -15.759 -23.260  0.00  0.00    +0.031 C 
ATOM     30  C   UNL     1      34.776 -16.484 -20.967  0.00  0.00    +0.018 C 
ATOM     31  C   UNL     1      34.366 -14.510 -22.806  0.00  0.00    +0.125 C 
ATOM     32  C   UNL     1      34.386 -15.202 -20.615  0.00  0.00    +0.100 C 
ATOM     33  H   UNL     1      33.881 -12.599 -23.500  0.00  0.00    +0.144 HD
ATOM     34  H   UNL     1      34.290 -13.703 -24.733  0.00  0.00    +0.144 HD
ENDBRANCH  25  28
ENDBRANCH   1  25
TORSDOF 5
ENDMDL
MODEL 6
REMARK VINA RESULT:     -10.2      3.763     10.375
REMARK  Name = 11691242
REMARK  5 active torsions:
REMARK  status: ('A' for Active; 'I' for Inactive)
REMARK    1  A    between atoms: N_1  and  C_25
REMARK    2  A    between atoms: C_5  and  N_11
REMARK    3  A    between atoms: N_12  and  C_17
REMARK    4  A    between atoms: C_18  and  O_23
REMARK    5  A    between atoms: C_25  and  C_28
REMARK                            x       y       z     vdW  Elec       q    Type
REMARK                         _______ _______ _______ _____ _____    ______ ____
ROOT
ATOM      1  N   UNL     1      32.704  -8.681 -21.588  0.00  0.00    -0.282 N 
ATOM      2  C   UNL     1      33.564  -9.089 -22.581  0.00  0.00    +0.053 C 
ATOM      3  C   UNL     1      33.223 -10.404 -22.906  0.00  0.00    +0.028 C 
ATOM      4  C   UNL     1      31.833  -9.689 -21.272  0.00  0.00    +0.066 C 
ATOM      5  C   UNL     1      33.957 -11.068 -23.907  0.00  0.00    +0.053 C 
ATOM      6  C   UNL     1      32.129 -10.770 -22.071  0.00  0.00    +0.019 C 
ATOM      7  C   UNL     1      34.606  -8.402 -23.213  0.00  0.00    +0.015 C 
ATOM      8  C   UNL     1      35.004 -10.394 -24.548  0.00  0.00    +0.015 C 
ATOM      9  C   UNL     1      35.322  -9.081 -24.204  0.00  0.00    +0.003 C 
ENDROOT
BRANCH   5  11
ATOM     10  O   UNL     1      34.946 -13.651 -22.779  0.00  0.00    -0.252 OA
ATOM     11  N   UNL     1      33.659 -12.383 -24.270  0.00  0.00    -0.268 N 
ATOM     12  N   UNL     1      33.589 -14.688 -24.376  0.00  0.00    -0.266 N 
ATOM     13  C   UNL     1      34.149 -13.587 -23.709  0.00  0.00    +0.308 C 
ATOM     14  H   UNL     1      33.023 -12.487 -25.015  0.00  0.00    +0.156 HD
ATOM     15  H   UNL     1      32.962 -14.479 -25.106  0.00  0.00    +0.157 HD
BRANCH  12  17
ATOM     16 BR   UNL     1      35.955 -18.288 -21.357  0.00  0.00    -0.049 Br
ATOM     17  C   UNL     1      33.814 -16.063 -24.127  0.00  0.00    +0.086 C 
ATOM     18  C   UNL     1      33.230 -17.020 -24.944  0.00  0.00    +0.152 C 
ATOM     19  C   UNL     1      34.621 -16.424 -23.060  0.00  0.00    +0.024 C 
ATOM     20  C   UNL     1      33.460 -18.370 -24.686  0.00  0.00    +0.039 C 
ATOM     21  C   UNL     1      34.852 -17.776 -22.803  0.00  0.00    +0.036 C 
ATOM     22  C   UNL     1      34.271 -18.749 -23.616  0.00  0.00    +0.010 C 
BRANCH  18  23
ATOM     23  O   UNL     1      32.436 -16.670 -25.995  0.00  0.00    -0.470 OA
ATOM     24  C   UNL     1      31.329 -17.522 -26.283  0.00  0.00    +0.253 C 
ENDBRANCH  18  23
ENDBRANCH  12  17
ENDBRANCH   5  11
BRANCH   1  25
ATOM     25  C   UNL     1      32.708  -7.380 -20.954  0.00  0.00    +0.122 C 
BRANCH  25  28
ATOM     26  N   UNL     1      30.757  -4.445 -23.392  0.00  0.00    -0.230 NA
ATOM     27  N   UNL     1      32.669  -4.373 -24.811  0.00  0.00    -0.343 N 
ATOM     28  C   UNL     1      32.024  -6.349 -21.810  0.00  0.00    +0.002 C 
ATOM     29  C   UNL     1      32.674  -5.838 -22.919  0.00  0.00    +0.031 C 
ATOM     30  C   UNL     1      30.750  -5.923 -21.479  0.00  0.00    +0.018 C 
ATOM     31  C   UNL     1      32.001  -4.893 -23.675  0.00  0.00    +0.125 C 
ATOM     32  C   UNL     1      30.162  -4.973 -22.299  0.00  0.00    +0.100 C 
ATOM     33  H   UNL     1      32.227  -3.700 -25.376  0.00  0.00    +0.144 HD
ATOM     34  H   UNL     1      33.576  -4.687 -25.035  0.00  0.00    +0.144 HD
ENDBRANCH  25  28
ENDBRANCH   1  25
TORSDOF 5
ENDMDL
MODEL 7
REMARK VINA RESULT:     -10.0      5.117     10.497
REMARK  Name = 11691242
REMARK  5 active torsions:
REMARK  status: ('A' for Active; 'I' for Inactive)
REMARK    1  A    between atoms: N_1  and  C_25
REMARK    2  A    between atoms: C_5  and  N_11
REMARK    3  A    between atoms: N_12  and  C_17
REMARK    4  A    between atoms: C_18  and  O_23
REMARK    5  A    between atoms: C_25  and  C_28
REMARK                            x       y       z     vdW  Elec       q    Type
REMARK                         _______ _______ _______ _____ _____    ______ ____
ROOT
ATOM      1  N   UNL     1      34.557 -15.701 -22.776  0.00  0.00    -0.282 N 
ATOM      2  C   UNL     1      34.507 -17.010 -23.198  0.00  0.00    +0.053 C 
ATOM      3  C   UNL     1      34.865 -17.807 -22.108  0.00  0.00    +0.028 C 
ATOM      4  C   UNL     1      34.934 -15.642 -21.461  0.00  0.00    +0.066 C 
ATOM      5  C   UNL     1      34.895 -19.206 -22.270  0.00  0.00    +0.053 C 
ATOM      6  C   UNL     1      35.132 -16.929 -21.019  0.00  0.00    +0.019 C 
ATOM      7  C   UNL     1      34.176 -17.545 -24.447  0.00  0.00    +0.015 C 
ATOM      8  C   UNL     1      34.566 -19.755 -23.515  0.00  0.00    +0.015 C 
ATOM      9  C   UNL     1      34.212 -18.936 -24.585  0.00  0.00    +0.003 C 
ENDROOT
BRANCH   5  11
ATOM     10  O   UNL     1      33.259 -20.214 -19.984  0.00  0.00    -0.252 OA
ATOM     11  N   UNL     1      35.246 -20.048 -21.214  0.00  0.00    -0.268 N 
ATOM     12  N   UNL     1      35.192 -21.339 -19.300  0.00  0.00    -0.266 N 
ATOM     13  C   UNL     1      34.440 -20.506 -20.144  0.00  0.00    +0.308 C 
ATOM     14  H   UNL     1      36.178 -20.366 -21.213  0.00  0.00    +0.156 HD
ATOM     15  H   UNL     1      36.131 -21.481 -19.559  0.00  0.00    +0.157 HD
BRANCH  12  17
ATOM     16 BR   UNL     1      31.149 -23.318 -16.579  0.00  0.00    -0.049 Br
ATOM     17  C   UNL     1      34.766 -21.999 -18.124  0.00  0.00    +0.086 C 
ATOM     18  C   UNL     1      35.692 -22.352 -17.154  0.00  0.00    +0.152 C 
ATOM     19  C   UNL     1      33.418 -22.281 -17.969  0.00  0.00    +0.024 C 
ATOM     20  C   UNL     1      35.257 -23.003 -16.000  0.00  0.00    +0.039 C 
ATOM     21  C   UNL     1      32.984 -22.931 -16.813  0.00  0.00    +0.036 C 
ATOM     22  C   UNL     1      33.903 -23.293 -15.829  0.00  0.00    +0.010 C 
BRANCH  18  23
ATOM     23  O   UNL     1      37.018 -22.076 -17.301  0.00  0.00    -0.470 OA
ATOM     24  C   UNL     1      37.543 -20.990 -16.540  0.00  0.00    +0.253 C 
ENDBRANCH  18  23
ENDBRANCH  12  17
ENDBRANCH   5  11
BRANCH   1  25
ATOM     25  C   UNL     1      34.262 -14.542 -23.592  0.00  0.00    +0.122 C 
BRANCH  25  28
ATOM     26  N   UNL     1      32.085 -11.585 -21.383  0.00  0.00    -0.230 NA
ATOM     27  N   UNL     1      32.815  -9.919 -22.923  0.00  0.00    -0.343 N 
ATOM     28  C   UNL     1      33.499 -13.503 -22.817  0.00  0.00    +0.002 C 
ATOM     29  C   UNL     1      33.516 -12.185 -23.237  0.00  0.00    +0.031 C 
ATOM     30  C   UNL     1      32.787 -13.878 -21.692  0.00  0.00    +0.018 C 
ATOM     31  C   UNL     1      32.796 -11.268 -22.489  0.00  0.00    +0.125 C 
ATOM     32  C   UNL     1      32.099 -12.885 -21.013  0.00  0.00    +0.100 C 
ATOM     33  H   UNL     1      32.316  -9.234 -22.421  0.00  0.00    +0.144 HD
ATOM     34  H   UNL     1      33.325  -9.667 -23.726  0.00  0.00    +0.144 HD
ENDBRANCH  25  28
ENDBRANCH   1  25
TORSDOF 5
ENDMDL
MODEL 8
REMARK VINA RESULT:      -9.9      6.929     11.954
REMARK  Name = 11691242
REMARK  5 active torsions:
REMARK  status: ('A' for Active; 'I' for Inactive)
REMARK    1  A    between atoms: N_1  and  C_25
REMARK    2  A    between atoms: C_5  and  N_11
REMARK    3  A    between atoms: N_12  and  C_17
REMARK    4  A    between atoms: C_18  and  O_23
REMARK    5  A    between atoms: C_25  and  C_28
REMARK                            x       y       z     vdW  Elec       q    Type
REMARK                         _______ _______ _______ _____ _____    ______ ____
ROOT
ATOM      1  N   UNL     1      34.944 -19.360 -21.523  0.00  0.00    -0.282 N 
ATOM      2  C   UNL     1      35.210 -20.225 -20.486  0.00  0.00    +0.053 C 
ATOM      3  C   UNL     1      33.984 -20.731 -20.047  0.00  0.00    +0.028 C 
ATOM      4  C   UNL     1      33.596 -19.301 -21.755  0.00  0.00    +0.066 C 
ATOM      5  C   UNL     1      33.973 -21.650 -18.980  0.00  0.00    +0.053 C 
ATOM      6  C   UNL     1      32.974 -20.138 -20.857  0.00  0.00    +0.019 C 
ATOM      7  C   UNL     1      36.430 -20.594 -19.909  0.00  0.00    +0.015 C 
ATOM      8  C   UNL     1      35.185 -22.029 -18.392  0.00  0.00    +0.015 C 
ATOM      9  C   UNL     1      36.394 -21.509 -18.850  0.00  0.00    +0.003 C 
ENDROOT
BRANCH   5  11
ATOM     10  O   UNL     1      33.294 -22.755 -16.289  0.00  0.00    -0.252 OA
ATOM     11  N   UNL     1      32.776 -22.186 -18.502  0.00  0.00    -0.268 N 
ATOM     12  N   UNL     1      31.158 -23.141 -17.159  0.00  0.00    -0.266 N 
ATOM     13  C   UNL     1      32.491 -22.702 -17.215  0.00  0.00    +0.308 C 
ATOM     14  H   UNL     1      32.030 -22.208 -19.145  0.00  0.00    +0.156 HD
ATOM     15  H   UNL     1      30.633 -23.033 -17.985  0.00  0.00    +0.157 HD
BRANCH  12  17
ATOM     16 BR   UNL     1      31.544 -25.296 -12.376  0.00  0.00    -0.049 Br
ATOM     17  C   UNL     1      30.477 -23.720 -16.062  0.00  0.00    +0.086 C 
ATOM     18  C   UNL     1      29.098 -23.858 -16.098  0.00  0.00    +0.152 C 
ATOM     19  C   UNL     1      31.214 -24.139 -14.966  0.00  0.00    +0.024 C 
ATOM     20  C   UNL     1      28.441 -24.429 -15.009  0.00  0.00    +0.039 C 
ATOM     21  C   UNL     1      30.556 -24.711 -13.877  0.00  0.00    +0.036 C 
ATOM     22  C   UNL     1      29.169 -24.856 -13.899  0.00  0.00    +0.010 C 
BRANCH  18  23
ATOM     23  O   UNL     1      28.369 -23.448 -17.174  0.00  0.00    -0.470 OA
ATOM     24  C   UNL     1      27.282 -22.560 -16.920  0.00  0.00    +0.253 C 
ENDBRANCH  18  23
ENDBRANCH  12  17
ENDBRANCH   5  11
BRANCH   1  25
ATOM     25  C   UNL     1      35.932 -18.611 -22.269  0.00  0.00    +0.122 C 
BRANCH  25  28
ATOM     26  N   UNL     1      34.182 -15.230 -24.237  0.00  0.00    -0.230 NA
ATOM     27  N   UNL     1      34.358 -13.980 -22.216  0.00  0.00    -0.343 N 
ATOM     28  C   UNL     1      35.317 -17.424 -22.959  0.00  0.00    +0.002 C 
ATOM     29  C   UNL     1      35.123 -16.247 -22.257  0.00  0.00    +0.031 C 
ATOM     30  C   UNL     1      34.952 -17.521 -24.289  0.00  0.00    +0.018 C 
ATOM     31  C   UNL     1      34.555 -15.184 -22.938  0.00  0.00    +0.125 C 
ATOM     32  C   UNL     1      34.391 -16.400 -24.880  0.00  0.00    +0.100 C 
ATOM     33  H   UNL     1      33.958 -13.199 -22.661  0.00  0.00    +0.144 HD
ATOM     34  H   UNL     1      34.624 -13.925 -21.269  0.00  0.00    +0.144 HD
ENDBRANCH  25  28
ENDBRANCH   1  25
TORSDOF 5
ENDMDL
MODEL 9
REMARK VINA RESULT:      -9.9      2.556      4.459
REMARK  Name = 11691242
REMARK  5 active torsions:
REMARK  status: ('A' for Active; 'I' for Inactive)
REMARK    1  A    between atoms: N_1  and  C_25
REMARK    2  A    between atoms: C_5  and  N_11
REMARK    3  A    between atoms: N_12  and  C_17
REMARK    4  A    between atoms: C_18  and  O_23
REMARK    5  A    between atoms: C_25  and  C_28
REMARK                            x       y       z     vdW  Elec       q    Type
REMARK                         _______ _______ _______ _____ _____    ______ ____
ROOT
ATOM      1  N   UNL     1      33.967 -13.490 -22.582  0.00  0.00    -0.282 N 
ATOM      2  C   UNL     1      33.048 -12.852 -21.781  0.00  0.00    +0.053 C 
ATOM      3  C   UNL     1      32.691 -11.666 -22.428  0.00  0.00    +0.028 C 
ATOM      4  C   UNL     1      34.205 -12.751 -23.710  0.00  0.00    +0.066 C 
ATOM      5  C   UNL     1      31.752 -10.814 -21.815  0.00  0.00    +0.053 C 
ATOM      6  C   UNL     1      33.431 -11.616 -23.644  0.00  0.00    +0.019 C 
ATOM      7  C   UNL     1      32.508 -13.229 -20.547  0.00  0.00    +0.015 C 
ATOM      8  C   UNL     1      31.205 -11.178 -20.579  0.00  0.00    +0.015 C 
ATOM      9  C   UNL     1      31.578 -12.368 -19.957  0.00  0.00    +0.003 C 
ENDROOT
BRANCH   5  11
ATOM     10  O   UNL     1      33.261  -8.264 -22.194  0.00  0.00    -0.252 OA
ATOM     11  N   UNL     1      31.362  -9.618 -22.418  0.00  0.00    -0.268 N 
ATOM     12  N   UNL     1      31.332  -7.461 -23.243  0.00  0.00    -0.266 N 
ATOM     13  C   UNL     1      32.107  -8.425 -22.580  0.00  0.00    +0.308 C 
ATOM     14  H   UNL     1      30.446  -9.600 -22.779  0.00  0.00    +0.156 HD
ATOM     15  H   UNL     1      30.420  -7.737 -23.492  0.00  0.00    +0.157 HD
BRANCH  12  17
ATOM     16 BR   UNL     1      34.248  -4.392 -26.365  0.00  0.00    -0.049 Br
ATOM     17  C   UNL     1      31.699  -6.141 -23.599  0.00  0.00    +0.086 C 
ATOM     18  C   UNL     1      31.142  -5.063 -22.930  0.00  0.00    +0.152 C 
ATOM     19  C   UNL     1      32.619  -5.958 -24.619  0.00  0.00    +0.024 C 
ATOM     20  C   UNL     1      31.513  -3.769 -23.292  0.00  0.00    +0.039 C 
ATOM     21  C   UNL     1      32.991  -4.663 -24.981  0.00  0.00    +0.036 C 
ATOM     22  C   UNL     1      32.438  -3.569 -24.317  0.00  0.00    +0.010 C 
BRANCH  18  23
ATOM     23  O   UNL     1      30.238  -5.238 -21.925  0.00  0.00    -0.470 OA
ATOM     24  C   UNL     1      30.758  -5.533 -20.630  0.00  0.00    +0.253 C 
ENDBRANCH  18  23
ENDBRANCH  12  17
ENDBRANCH   5  11
BRANCH   1  25
ATOM     25  C   UNL     1      34.604 -14.756 -22.288  0.00  0.00    +0.122 C 
BRANCH  25  28
ATOM     26  N   UNL     1      33.527 -17.752 -25.157  0.00  0.00    -0.230 NA
ATOM     27  N   UNL     1      34.645 -19.393 -23.842  0.00  0.00    -0.343 N 
ATOM     28  C   UNL     1      34.227 -15.808 -23.295  0.00  0.00    +0.002 C 
ATOM     29  C   UNL     1      34.618 -17.120 -23.095  0.00  0.00    +0.031 C 
ATOM     30  C   UNL     1      33.492 -15.452 -24.411  0.00  0.00    +0.018 C 
ATOM     31  C   UNL     1      34.244 -18.050 -24.051  0.00  0.00    +0.125 C 
ATOM     32  C   UNL     1      33.168 -16.457 -25.309  0.00  0.00    +0.100 C 
ATOM     33  H   UNL     1      34.401 -20.087 -24.495  0.00  0.00    +0.144 HD
ATOM     34  H   UNL     1      35.167 -19.632 -23.041  0.00  0.00    +0.144 HD
ENDBRANCH  25  28
ENDBRANCH   1  25
TORSDOF 5
ENDMDL
