MODEL 1
REMARK VINA RESULT:     -11.2      0.000      0.000
REMARK  Name = 104758
REMARK  11 active torsions:
REMARK  status: ('A' for Active; 'I' for Inactive)
REMARK    1  A    between atoms: C_2  and  N_21
REMARK    2  A    between atoms: C_3  and  C_8
REMARK    3  A    between atoms: N_7  and  CA_10
REMARK    4  A    between atoms: CA_10  and  C_12
REMARK    5  A    between atoms: CA_10  and  CB_15
REMARK    6  A    between atoms: C_12  and  O_13
REMARK    7  A    between atoms: CB_15  and  CG_16
REMARK    8  A    between atoms: CG_16  and  CD_18
REMARK    9  A    between atoms: CD_18  and  OE1_19
REMARK   10  A    between atoms: N_21  and  C_23
REMARK   11  A    between atoms: C_23  and  C_27
REMARK                            x       y       z     vdW  Elec       q    Type
REMARK                         _______ _______ _______ _____ _____    ______ ____
ROOT
ATOM      1  S   UNL     1      35.119 -21.342 -19.400  0.00  0.00    -0.068 S 
ATOM      2  C   UNL     1      34.621 -20.241 -20.613  0.00  0.00    +0.079 C 
ATOM      3  C   UNL     1      33.498 -21.682 -18.968  0.00  0.00    +0.084 C 
ATOM      4  C   UNL     1      33.250 -20.137 -20.685  0.00  0.00    +0.022 C 
ATOM      5  C   UNL     1      32.599 -20.972 -19.733  0.00  0.00    +0.013 C 
ENDROOT
BRANCH   3   8
ATOM      6  O   UNL     1      33.976 -23.596 -17.656  0.00  0.00    -0.270 OA
ATOM      7  N   UNL     1      32.066 -22.422 -17.157  0.00  0.00    -0.293 N 
ATOM      8  C   ACE A   0      33.240 -22.614 -17.917  0.00  0.00    +0.252 C 
ATOM      9  H   UNL     1      31.495 -21.649 -17.370  0.00  0.00    +0.150 HD
BRANCH   7  10
ATOM     10  CA  UNL     1      31.655 -23.298 -16.083  0.00  0.00    +0.172 C 
BRANCH  10  12
ATOM     11  OXT UNL     1      29.415 -22.574 -16.706  0.00  0.00    -0.248 OA
ATOM     12  C   UNL     1      30.140 -23.324 -16.067  0.00  0.00    +0.332 C 
BRANCH  12  13
ATOM     13  O   UNL     1      29.659 -24.320 -15.277  0.00  0.00    -0.479 OA
ATOM     14  H   UNL     1      30.032 -24.469 -14.430  0.00  0.00    +0.295 HD
ENDBRANCH  12  13
ENDBRANCH  10  12
BRANCH  10  15
ATOM     15  CB  UNL     1      32.281 -22.915 -14.736  0.00  0.00    +0.043 C 
BRANCH  15  16
ATOM     16  CG  UNL     1      33.309 -23.904 -14.171  0.00  0.00    +0.112 C 
BRANCH  16  18
ATOM     17  OE2 UNL     1      31.642 -25.106 -12.862  0.00  0.00    -0.250 OA
ATOM     18  CD  UNL     1      32.793 -24.720 -13.006  0.00  0.00    +0.314 C 
BRANCH  18  19
ATOM     19  OE1 UNL     1      33.769 -24.952 -12.088  0.00  0.00    -0.480 OA
ATOM     20  HE1 UNL     1      34.640 -25.152 -12.370  0.00  0.00    +0.295 HD
ENDBRANCH  18  19
ENDBRANCH  16  18
ENDBRANCH  15  16
ENDBRANCH  10  15
ENDBRANCH   7  10
ENDBRANCH   3   8
BRANCH   2  21
ATOM     21  N   UNL     1      35.544 -19.563 -21.400  0.00  0.00    -0.297 N 
ATOM     22  C   UNL     1      36.904 -19.317 -20.916  0.00  0.00    +0.113 C 
BRANCH  21  23
ATOM     23  C   UNL     1      35.216 -19.078 -22.723  0.00  0.00    +0.118 C 
BRANCH  23  27
ATOM     24  O   UNL     1      33.762 -15.480 -26.114  0.00  0.00    -0.209 OA
ATOM     25  N   UNL     1      34.117 -13.498 -22.647  0.00  0.00    -0.290 N 
ATOM     26  N   UNL     1      33.611 -13.496 -24.977  0.00  0.00    -0.322 NA
ATOM     27  C   UNL     1      34.929 -17.614 -22.698  0.00  0.00    -0.002 C 
ATOM     28  C   UNL     1      34.278 -15.588 -23.835  0.00  0.00    +0.108 C 
ATOM     29  C   UNL     1      34.544 -16.959 -23.869  0.00  0.00    +0.011 C 
ATOM     30  C   UNL     1      34.393 -14.867 -22.638  0.00  0.00    +0.062 C 
ATOM     31  C   UNL     1      35.045 -16.902 -21.503  0.00  0.00    -0.001 C 
ATOM     32  C   UNL     1      34.778 -15.532 -21.472  0.00  0.00    +0.015 C 
ATOM     33  C   UNL     1      33.864 -14.854 -25.063  0.00  0.00    +0.207 C 
ATOM     34  C   UNL     1      33.743 -12.900 -23.827  0.00  0.00    +0.174 C 
ATOM     35  C   UNL     1      33.460 -11.418 -23.771  0.00  0.00    +0.085 C 
ATOM     36  H   UNL     1      34.189 -12.969 -21.820  0.00  0.00    +0.154 HD
ENDBRANCH  23  27
ENDBRANCH  21  23
ENDBRANCH   2  21
TORSDOF 11
ENDMDL
MODEL 2
REMARK VINA RESULT:     -11.0      1.762      2.413
REMARK  Name = 104758
REMARK  11 active torsions:
REMARK  status: ('A' for Active; 'I' for Inactive)
REMARK    1  A    between atoms: C_2  and  N_21
REMARK    2  A    between atoms: C_3  and  C_8
REMARK    3  A    between atoms: N_7  and  CA_10
REMARK    4  A    between atoms: CA_10  and  C_12
REMARK    5  A    between atoms: CA_10  and  CB_15
REMARK    6  A    between atoms: C_12  and  O_13
REMARK    7  A    between atoms: CB_15  and  CG_16
REMARK    8  A    between atoms: CG_16  and  CD_18
REMARK    9  A    between atoms: CD_18  and  OE1_19
REMARK   10  A    between atoms: N_21  and  C_23
REMARK   11  A    between atoms: C_23  and  C_27
REMARK                            x       y       z     vdW  Elec       q    Type
REMARK                         _______ _______ _______ _____ _____    ______ ____
ROOT
ATOM      1  S   UNL     1      35.506 -21.553 -19.351  0.00  0.00    -0.068 S 
ATOM      2  C   UNL     1      34.830 -20.364 -20.381  0.00  0.00    +0.079 C 
ATOM      3  C   UNL     1      33.961 -22.009 -18.773  0.00  0.00    +0.084 C 
ATOM      4  C   UNL     1      33.457 -20.317 -20.283  0.00  0.00    +0.022 C 
ATOM      5  C   UNL     1      32.953 -21.270 -19.352  0.00  0.00    +0.013 C 
ENDROOT
BRANCH   3   8
ATOM      6  O   UNL     1      33.511 -24.224 -18.064  0.00  0.00    -0.270 OA
ATOM      7  N   UNL     1      34.150 -22.711 -16.460  0.00  0.00    -0.293 N 
ATOM      8  C   ACE A   0      33.862 -23.049 -17.800  0.00  0.00    +0.252 C 
ATOM      9  H   UNL     1      34.424 -21.786 -16.263  0.00  0.00    +0.150 HD
BRANCH   7  10
ATOM     10  CA  UNL     1      34.065 -23.645 -15.361  0.00  0.00    +0.172 C 
BRANCH  10  12
ATOM     11  OXT UNL     1      31.633 -23.682 -15.258  0.00  0.00    -0.248 OA
ATOM     12  C   UNL     1      32.707 -23.469 -14.713  0.00  0.00    +0.332 C 
BRANCH  12  13
ATOM     13  O   UNL     1      32.811 -23.075 -13.417  0.00  0.00    -0.479 OA
ATOM     14  H   UNL     1      32.069 -23.132 -12.848  0.00  0.00    +0.295 HD
ENDBRANCH  12  13
ENDBRANCH  10  12
BRANCH  10  15
ATOM     15  CB  UNL     1      35.238 -23.516 -14.382  0.00  0.00    +0.043 C 
BRANCH  15  16
ATOM     16  CG  UNL     1      36.583 -24.067 -14.873  0.00  0.00    +0.112 C 
BRANCH  16  18
ATOM     17  OE2 UNL     1      37.143 -21.916 -15.871  0.00  0.00    -0.250 OA
ATOM     18  CD  UNL     1      37.495 -23.014 -15.464  0.00  0.00    +0.314 C 
BRANCH  18  19
ATOM     19  OE1 UNL     1      38.781 -23.448 -15.533  0.00  0.00    -0.480 OA
ATOM     20  HE1 UNL     1      39.146 -23.702 -16.358  0.00  0.00    +0.295 HD
ENDBRANCH  18  19
ENDBRANCH  16  18
ENDBRANCH  15  16
ENDBRANCH  10  15
ENDBRANCH   7  10
ENDBRANCH   3   8
BRANCH   2  21
ATOM     21  N   UNL     1      35.628 -19.571 -21.196  0.00  0.00    -0.297 N 
ATOM     22  C   UNL     1      36.951 -19.131 -20.749  0.00  0.00    +0.113 C 
BRANCH  21  23
ATOM     23  C   UNL     1      35.202 -19.150 -22.513  0.00  0.00    +0.118 C 
BRANCH  23  27
ATOM     24  O   UNL     1      33.803 -15.662 -26.038  0.00  0.00    -0.209 OA
ATOM     25  N   UNL     1      34.125 -13.567 -22.636  0.00  0.00    -0.290 N 
ATOM     26  N   UNL     1      33.648 -13.640 -24.970  0.00  0.00    -0.322 NA
ATOM     27  C   UNL     1      34.922 -17.685 -22.540  0.00  0.00    -0.002 C 
ATOM     28  C   UNL     1      34.292 -15.696 -23.752  0.00  0.00    +0.108 C 
ATOM     29  C   UNL     1      34.553 -17.069 -23.737  0.00  0.00    +0.011 C 
ATOM     30  C   UNL     1      34.396 -14.936 -22.578  0.00  0.00    +0.062 C 
ATOM     31  C   UNL     1      35.027 -16.934 -21.368  0.00  0.00    -0.001 C 
ATOM     32  C   UNL     1      34.765 -15.564 -21.386  0.00  0.00    +0.015 C 
ATOM     33  C   UNL     1      33.896 -15.001 -25.008  0.00  0.00    +0.207 C 
ATOM     34  C   UNL     1      33.768 -13.007 -23.839  0.00  0.00    +0.174 C 
ATOM     35  C   UNL     1      33.490 -11.523 -23.835  0.00  0.00    +0.085 C 
ATOM     36  H   UNL     1      34.190 -13.011 -21.826  0.00  0.00    +0.154 HD
ENDBRANCH  23  27
ENDBRANCH  21  23
ENDBRANCH   2  21
TORSDOF 11
ENDMDL
MODEL 3
REMARK VINA RESULT:     -10.9      3.357     11.344
REMARK  Name = 104758
REMARK  11 active torsions:
REMARK  status: ('A' for Active; 'I' for Inactive)
REMARK    1  A    between atoms: C_2  and  N_21
REMARK    2  A    between atoms: C_3  and  C_8
REMARK    3  A    between atoms: N_7  and  CA_10
REMARK    4  A    between atoms: CA_10  and  C_12
REMARK    5  A    between atoms: CA_10  and  CB_15
REMARK    6  A    between atoms: C_12  and  O_13
REMARK    7  A    between atoms: CB_15  and  CG_16
REMARK    8  A    between atoms: CG_16  and  CD_18
REMARK    9  A    between atoms: CD_18  and  OE1_19
REMARK   10  A    between atoms: N_21  and  C_23
REMARK   11  A    between atoms: C_23  and  C_27
REMARK                            x       y       z     vdW  Elec       q    Type
REMARK                         _______ _______ _______ _____ _____    ______ ____
ROOT
ATOM      1  S   UNL     1      34.216 -16.003 -24.321  0.00  0.00    -0.068 S 
ATOM      2  C   UNL     1      34.710 -16.900 -22.948  0.00  0.00    +0.079 C 
ATOM      3  C   UNL     1      34.181 -14.546 -23.423  0.00  0.00    +0.084 C 
ATOM      4  C   UNL     1      34.843 -16.105 -21.832  0.00  0.00    +0.022 C 
ATOM      5  C   UNL     1      34.538 -14.741 -22.107  0.00  0.00    +0.013 C 
ENDROOT
BRANCH   3   8
ATOM      6  O   UNL     1      33.330 -13.285 -25.239  0.00  0.00    -0.270 OA
ATOM      7  N   UNL     1      34.021 -12.127 -23.380  0.00  0.00    -0.293 N 
ATOM      8  C   ACE A   0      33.807 -13.335 -24.079  0.00  0.00    +0.252 C 
ATOM      9  H   UNL     1      34.396 -12.177 -22.471  0.00  0.00    +0.150 HD
BRANCH   7  10
ATOM     10  CA  UNL     1      33.722 -10.822 -23.924  0.00  0.00    +0.172 C 
BRANCH  10  12
ATOM     11  OXT UNL     1      35.469 -10.537 -25.596  0.00  0.00    -0.248 OA
ATOM     12  C   UNL     1      35.006 -10.259 -24.498  0.00  0.00    +0.332 C 
BRANCH  12  13
ATOM     13  O   UNL     1      35.585  -9.360 -23.659  0.00  0.00    -0.479 OA
ATOM     14  H   UNL     1      36.467  -9.488 -23.371  0.00  0.00    +0.295 HD
ENDBRANCH  12  13
ENDBRANCH  10  12
BRANCH  10  15
ATOM     15  CB  UNL     1      33.043  -9.899 -22.906  0.00  0.00    +0.043 C 
BRANCH  15  16
ATOM     16  CG  UNL     1      32.047 -10.572 -21.953  0.00  0.00    +0.112 C 
BRANCH  16  18
ATOM     17  OE2 UNL     1      31.281 -10.127 -19.682  0.00  0.00    -0.250 OA
ATOM     18  CD  UNL     1      31.661  -9.713 -20.769  0.00  0.00    +0.314 C 
BRANCH  18  19
ATOM     19  OE1 UNL     1      31.745  -8.388 -21.063  0.00  0.00    -0.480 OA
ATOM     20  HE1 UNL     1      32.051  -8.114 -21.906  0.00  0.00    +0.295 HD
ENDBRANCH  18  19
ENDBRANCH  16  18
ENDBRANCH  15  16
ENDBRANCH  10  15
ENDBRANCH   7  10
ENDBRANCH   3   8
BRANCH   2  21
ATOM     21  N   UNL     1      34.932 -18.269 -23.018  0.00  0.00    -0.297 N 
ATOM     22  C   UNL     1      34.324 -19.075 -24.079  0.00  0.00    +0.113 C 
BRANCH  21  23
ATOM     23  C   UNL     1      35.771 -18.961 -22.063  0.00  0.00    +0.118 C 
BRANCH  23  27
ATOM     24  O   UNL     1      36.643 -22.134 -18.098  0.00  0.00    -0.209 OA
ATOM     25  N   UNL     1      32.648 -22.011 -18.418  0.00  0.00    -0.290 N 
ATOM     26  N   UNL     1      34.601 -22.830 -17.322  0.00  0.00    -0.322 NA
ATOM     27  C   UNL     1      34.948 -19.760 -21.110  0.00  0.00    -0.002 C 
ATOM     28  C   UNL     1      34.791 -21.276 -19.240  0.00  0.00    +0.108 C 
ATOM     29  C   UNL     1      35.571 -20.532 -20.128  0.00  0.00    +0.011 C 
ATOM     30  C   UNL     1      33.392 -21.254 -19.326  0.00  0.00    +0.062 C 
ATOM     31  C   UNL     1      33.555 -19.733 -21.201  0.00  0.00    -0.001 C 
ATOM     32  C   UNL     1      32.778 -20.477 -20.312  0.00  0.00    +0.015 C 
ATOM     33  C   UNL     1      35.418 -22.112 -18.178  0.00  0.00    +0.207 C 
ATOM     34  C   UNL     1      33.310 -22.756 -17.471  0.00  0.00    +0.174 C 
ATOM     35  C   UNL     1      32.450 -23.554 -16.520  0.00  0.00    +0.085 C 
ATOM     36  H   UNL     1      31.665 -22.012 -18.456  0.00  0.00    +0.154 HD
ENDBRANCH  23  27
ENDBRANCH  21  23
ENDBRANCH   2  21
TORSDOF 11
ENDMDL
MODEL 4
REMARK VINA RESULT:     -10.8      3.333      4.632
REMARK  Name = 104758
REMARK  11 active torsions:
REMARK  status: ('A' for Active; 'I' for Inactive)
REMARK    1  A    between atoms: C_2  and  N_21
REMARK    2  A    between atoms: C_3  and  C_8
REMARK    3  A    between atoms: N_7  and  CA_10
REMARK    4  A    between atoms: CA_10  and  C_12
REMARK    5  A    between atoms: CA_10  and  CB_15
REMARK    6  A    between atoms: C_12  and  O_13
REMARK    7  A    between atoms: CB_15  and  CG_16
REMARK    8  A    between atoms: CG_16  and  CD_18
REMARK    9  A    between atoms: CD_18  and  OE1_19
REMARK   10  A    between atoms: N_21  and  C_23
REMARK   11  A    between atoms: C_23  and  C_27
REMARK                            x       y       z     vdW  Elec       q    Type
REMARK                         _______ _______ _______ _____ _____    ______ ____
ROOT
ATOM      1  S   UNL     1      36.380 -21.761 -17.654  0.00  0.00    -0.068 S 
ATOM      2  C   UNL     1      34.866 -21.768 -18.453  0.00  0.00    +0.079 C 
ATOM      3  C   UNL     1      35.790 -22.778 -16.410  0.00  0.00    +0.084 C 
ATOM      4  C   UNL     1      33.932 -22.529 -17.784  0.00  0.00    +0.022 C 
ATOM      5  C   UNL     1      34.468 -23.114 -16.601  0.00  0.00    +0.013 C 
ENDROOT
BRANCH   3   8
ATOM      6  O   UNL     1      37.580 -22.428 -14.898  0.00  0.00    -0.270 OA
ATOM      7  N   UNL     1      36.506 -24.456 -14.814  0.00  0.00    -0.293 N 
ATOM      8  C   ACE A   0      36.667 -23.161 -15.351  0.00  0.00    +0.252 C 
ATOM      9  H   UNL     1      35.787 -25.023 -15.177  0.00  0.00    +0.150 HD
BRANCH   7  10
ATOM     10  CA  UNL     1      37.336 -24.997 -13.762  0.00  0.00    +0.172 C 
BRANCH  10  12
ATOM     11  OXT UNL     1      37.913 -27.316 -14.229  0.00  0.00    -0.248 OA
ATOM     12  C   UNL     1      38.155 -26.123 -14.357  0.00  0.00    +0.332 C 
BRANCH  12  13
ATOM     13  O   UNL     1      39.193 -25.657 -15.100  0.00  0.00    -0.479 OA
ATOM     14  H   UNL     1      39.454 -26.109 -15.878  0.00  0.00    +0.295 HD
ENDBRANCH  12  13
ENDBRANCH  10  12
BRANCH  10  15
ATOM     15  CB  UNL     1      36.529 -25.407 -12.523  0.00  0.00    +0.043 C 
BRANCH  15  16
ATOM     16  CG  UNL     1      35.778 -24.275 -11.810  0.00  0.00    +0.112 C 
BRANCH  16  18
ATOM     17  OE2 UNL     1      36.151 -24.114  -9.408  0.00  0.00    -0.250 OA
ATOM     18  CD  UNL     1      36.458 -23.793 -10.547  0.00  0.00    +0.314 C 
BRANCH  18  19
ATOM     19  OE1 UNL     1      37.452 -22.907 -10.822  0.00  0.00    -0.480 OA
ATOM     20  HE1 UNL     1      37.509 -22.515 -11.672  0.00  0.00    +0.295 HD
ENDBRANCH  18  19
ENDBRANCH  16  18
ENDBRANCH  15  16
ENDBRANCH  10  15
ENDBRANCH   7  10
ENDBRANCH   3   8
BRANCH   2  21
ATOM     21  N   UNL     1      34.666 -21.067 -19.635  0.00  0.00    -0.297 N 
ATOM     22  C   UNL     1      33.315 -20.710 -20.076  0.00  0.00    +0.113 C 
BRANCH  21  23
ATOM     23  C   UNL     1      35.766 -20.652 -20.478  0.00  0.00    +0.118 C 
BRANCH  23  27
ATOM     24  O   UNL     1      33.586 -19.479 -24.998  0.00  0.00    -0.209 OA
ATOM     25  N   UNL     1      34.452 -15.926 -23.355  0.00  0.00    -0.290 N 
ATOM     26  N   UNL     1      33.549 -17.193 -25.161  0.00  0.00    -0.322 NA
ATOM     27  C   UNL     1      35.424 -19.410 -21.229  0.00  0.00    -0.002 C 
ATOM     28  C   UNL     1      34.496 -18.328 -23.176  0.00  0.00    +0.108 C 
ATOM     29  C   UNL     1      34.812 -19.498 -22.481  0.00  0.00    +0.011 C 
ATOM     30  C   UNL     1      34.785 -17.071 -22.628  0.00  0.00    +0.062 C 
ATOM     31  C   UNL     1      35.715 -18.161 -20.678  0.00  0.00    -0.001 C 
ATOM     32  C   UNL     1      35.397 -16.994 -21.375  0.00  0.00    +0.015 C 
ATOM     33  C   UNL     1      33.842 -18.380 -24.514  0.00  0.00    +0.207 C 
ATOM     34  C   UNL     1      33.852 -16.067 -24.585  0.00  0.00    +0.174 C 
ATOM     35  C   UNL     1      33.518 -14.791 -25.320  0.00  0.00    +0.085 C 
ATOM     36  H   UNL     1      34.643 -15.031 -22.993  0.00  0.00    +0.154 HD
ENDBRANCH  23  27
ENDBRANCH  21  23
ENDBRANCH   2  21
TORSDOF 11
ENDMDL
MODEL 5
REMARK VINA RESULT:     -10.7      3.634     10.997
REMARK  Name = 104758
REMARK  11 active torsions:
REMARK  status: ('A' for Active; 'I' for Inactive)
REMARK    1  A    between atoms: C_2  and  N_21
REMARK    2  A    between atoms: C_3  and  C_8
REMARK    3  A    between atoms: N_7  and  CA_10
REMARK    4  A    between atoms: CA_10  and  C_12
REMARK    5  A    between atoms: CA_10  and  CB_15
REMARK    6  A    between atoms: C_12  and  O_13
REMARK    7  A    between atoms: CB_15  and  CG_16
REMARK    8  A    between atoms: CG_16  and  CD_18
REMARK    9  A    between atoms: CD_18  and  OE1_19
REMARK   10  A    between atoms: N_21  and  C_23
REMARK   11  A    between atoms: C_23  and  C_27
REMARK                            x       y       z     vdW  Elec       q    Type
REMARK                         _______ _______ _______ _____ _____    ______ ____
ROOT
ATOM      1  S   UNL     1      34.453 -15.426 -24.145  0.00  0.00    -0.068 S 
ATOM      2  C   UNL     1      34.785 -16.397 -22.774  0.00  0.00    +0.079 C 
ATOM      3  C   UNL     1      34.151 -14.053 -23.166  0.00  0.00    +0.084 C 
ATOM      4  C   UNL     1      34.667 -15.689 -21.598  0.00  0.00    +0.022 C 
ATOM      5  C   UNL     1      34.301 -14.331 -21.826  0.00  0.00    +0.013 C 
ENDROOT
BRANCH   3   8
ATOM      6  O   UNL     1      33.462 -12.717 -24.997  0.00  0.00    -0.270 OA
ATOM      7  N   UNL     1      33.850 -11.654 -22.999  0.00  0.00    -0.293 N 
ATOM      8  C   ACE A   0      33.793 -12.821 -23.791  0.00  0.00    +0.252 C 
ATOM      9  H   UNL     1      34.111 -11.746 -22.054  0.00  0.00    +0.150 HD
BRANCH   7  10
ATOM     10  CA  UNL     1      33.546 -10.331 -23.496  0.00  0.00    +0.172 C 
BRANCH  10  12
ATOM     11  OXT UNL     1      35.386  -8.737 -23.482  0.00  0.00    -0.248 OA
ATOM     12  C   UNL     1      34.843  -9.714 -23.979  0.00  0.00    +0.332 C 
BRANCH  12  13
ATOM     13  O   UNL     1      35.372 -10.401 -25.025  0.00  0.00    -0.479 OA
ATOM     14  H   UNL     1      34.831 -10.639 -25.752  0.00  0.00    +0.295 HD
ENDBRANCH  12  13
ENDBRANCH  10  12
BRANCH  10  15
ATOM     15  CB  UNL     1      32.795  -9.472 -22.472  0.00  0.00    +0.043 C 
BRANCH  15  16
ATOM     16  CG  UNL     1      31.404  -9.976 -22.067  0.00  0.00    +0.112 C 
BRANCH  16  18
ATOM     17  OE2 UNL     1      31.526 -10.550 -19.702  0.00  0.00    -0.250 OA
ATOM     18  CD  UNL     1      31.416 -10.900 -20.868  0.00  0.00    +0.314 C 
BRANCH  18  19
ATOM     19  OE1 UNL     1      31.330 -12.204 -21.242  0.00  0.00    -0.480 OA
ATOM     20  HE1 UNL     1      31.513 -12.451 -22.127  0.00  0.00    +0.295 HD
ENDBRANCH  18  19
ENDBRANCH  16  18
ENDBRANCH  15  16
ENDBRANCH  10  15
ENDBRANCH   7  10
ENDBRANCH   3   8
BRANCH   2  21
ATOM     21  N   UNL     1      35.127 -17.737 -22.900  0.00  0.00    -0.297 N 
ATOM     22  C   UNL     1      34.282 -18.657 -23.664  0.00  0.00    +0.113 C 
BRANCH  21  23
ATOM     23  C   UNL     1      36.323 -18.285 -22.298  0.00  0.00    +0.118 C 
BRANCH  23  27
ATOM     24  O   UNL     1      32.041 -20.501 -20.479  0.00  0.00    -0.209 OA
ATOM     25  N   UNL     1      35.000 -22.123 -18.315  0.00  0.00    -0.290 N 
ATOM     26  N   UNL     1      32.677 -21.949 -18.820  0.00  0.00    -0.322 NA
ATOM     27  C   UNL     1      35.981 -19.291 -21.251  0.00  0.00    -0.002 C 
ATOM     28  C   UNL     1      34.339 -20.597 -20.059  0.00  0.00    +0.108 C 
ATOM     29  C   UNL     1      34.649 -19.653 -21.041  0.00  0.00    +0.011 C 
ATOM     30  C   UNL     1      35.352 -21.182 -19.286  0.00  0.00    +0.062 C 
ATOM     31  C   UNL     1      36.994 -19.870 -20.485  0.00  0.00    -0.001 C 
ATOM     32  C   UNL     1      36.682 -20.813 -19.505  0.00  0.00    +0.015 C 
ATOM     33  C   UNL     1      32.931 -21.010 -19.804  0.00  0.00    +0.207 C 
ATOM     34  C   UNL     1      33.674 -22.443 -18.145  0.00  0.00    +0.174 C 
ATOM     35  C   UNL     1      33.359 -23.465 -17.079  0.00  0.00    +0.085 C 
ATOM     36  H   UNL     1      35.692 -22.549 -17.759  0.00  0.00    +0.154 HD
ENDBRANCH  23  27
ENDBRANCH  21  23
ENDBRANCH   2  21
TORSDOF 11
ENDMDL
MODEL 6
REMARK VINA RESULT:     -10.7      3.864      7.379
REMARK  Name = 104758
REMARK  11 active torsions:
REMARK  status: ('A' for Active; 'I' for Inactive)
REMARK    1  A    between atoms: C_2  and  N_21
REMARK    2  A    between atoms: C_3  and  C_8
REMARK    3  A    between atoms: N_7  and  CA_10
REMARK    4  A    between atoms: CA_10  and  C_12
REMARK    5  A    between atoms: CA_10  and  CB_15
REMARK    6  A    between atoms: C_12  and  O_13
REMARK    7  A    between atoms: CB_15  and  CG_16
REMARK    8  A    between atoms: CG_16  and  CD_18
REMARK    9  A    between atoms: CD_18  and  OE1_19
REMARK   10  A    between atoms: N_21  and  C_23
REMARK   11  A    between atoms: C_23  and  C_27
REMARK                            x       y       z     vdW  Elec       q    Type
REMARK                         _______ _______ _______ _____ _____    ______ ____
ROOT
ATOM      1  S   UNL     1      34.300 -24.110 -14.704  0.00  0.00    -0.068 S 
ATOM      2  C   UNL     1      32.738 -23.503 -15.055  0.00  0.00    +0.079 C 
ATOM      3  C   UNL     1      33.993 -24.076 -13.020  0.00  0.00    +0.084 C 
ATOM      4  C   UNL     1      32.001 -23.280 -13.913  0.00  0.00    +0.022 C 
ATOM      5  C   UNL     1      32.728 -23.613 -12.734  0.00  0.00    +0.013 C 
ENDROOT
BRANCH   3   8
ATOM      6  O   UNL     1      34.789 -25.001 -10.989  0.00  0.00    -0.270 OA
ATOM      7  N   UNL     1      36.354 -24.321 -12.526  0.00  0.00    -0.293 N 
ATOM      8  C   ACE A   0      35.015 -24.504 -12.119  0.00  0.00    +0.252 C 
ATOM      9  H   UNL     1      36.520 -23.929 -13.414  0.00  0.00    +0.150 HD
BRANCH   7  10
ATOM     10  CA  UNL     1      37.495 -24.675 -11.713  0.00  0.00    +0.172 C 
BRANCH  10  12
ATOM     11  OXT UNL     1      39.323 -23.195 -11.083  0.00  0.00    -0.248 OA
ATOM     12  C   UNL     1      38.122 -23.388 -11.217  0.00  0.00    +0.332 C 
BRANCH  12  13
ATOM     13  O   UNL     1      37.189 -22.432 -10.968  0.00  0.00    -0.479 OA
ATOM     14  H   UNL     1      37.195 -21.632 -11.456  0.00  0.00    +0.295 HD
ENDBRANCH  12  13
ENDBRANCH  10  12
BRANCH  10  15
ATOM     15  CB  UNL     1      38.476 -25.601 -12.441  0.00  0.00    +0.043 C 
BRANCH  15  16
ATOM     16  CG  UNL     1      38.602 -25.385 -13.955  0.00  0.00    +0.112 C 
BRANCH  16  18
ATOM     17  OE2 UNL     1      40.929 -24.660 -13.907  0.00  0.00    -0.250 OA
ATOM     18  CD  UNL     1      40.033 -25.299 -14.441  0.00  0.00    +0.314 C 
BRANCH  18  19
ATOM     19  OE1 UNL     1      40.211 -25.998 -15.593  0.00  0.00    -0.480 OA
ATOM     20  HE1 UNL     1      40.312 -26.930 -15.566  0.00  0.00    +0.295 HD
ENDBRANCH  18  19
ENDBRANCH  16  18
ENDBRANCH  15  16
ENDBRANCH  10  15
ENDBRANCH   7  10
ENDBRANCH   3   8
BRANCH   2  21
ATOM     21  N   UNL     1      32.322 -23.283 -16.362  0.00  0.00    -0.297 N 
ATOM     22  C   UNL     1      31.147 -22.456 -16.645  0.00  0.00    +0.113 C 
BRANCH  21  23
ATOM     23  C   UNL     1      33.022 -23.845 -17.496  0.00  0.00    +0.118 C 
BRANCH  23  27
ATOM     24  O   UNL     1      32.313 -20.233 -21.103  0.00  0.00    -0.209 OA
ATOM     25  N   UNL     1      36.179 -19.893 -20.097  0.00  0.00    -0.290 N 
ATOM     26  N   UNL     1      34.322 -19.171 -21.405  0.00  0.00    -0.322 NA
ATOM     27  C   UNL     1      33.854 -22.810 -18.176  0.00  0.00    -0.002 C 
ATOM     28  C   UNL     1      34.071 -21.016 -19.774  0.00  0.00    +0.108 C 
ATOM     29  C   UNL     1      33.283 -21.982 -19.143  0.00  0.00    +0.011 C 
ATOM     30  C   UNL     1      35.426 -20.872 -19.444  0.00  0.00    +0.062 C 
ATOM     31  C   UNL     1      35.203 -22.672 -17.843  0.00  0.00    -0.001 C 
ATOM     32  C   UNL     1      35.987 -21.706 -18.474  0.00  0.00    +0.015 C 
ATOM     33  C   UNL     1      33.499 -20.112 -20.810  0.00  0.00    +0.207 C 
ATOM     34  C   UNL     1      35.570 -19.104 -21.043  0.00  0.00    +0.174 C 
ATOM     35  C   UNL     1      36.437 -18.066 -21.713  0.00  0.00    +0.085 C 
ATOM     36  H   UNL     1      37.132 -19.771 -19.883  0.00  0.00    +0.154 HD
ENDBRANCH  23  27
ENDBRANCH  21  23
ENDBRANCH   2  21
TORSDOF 11
ENDMDL
MODEL 7
REMARK VINA RESULT:     -10.6      3.715      5.039
REMARK  Name = 104758
REMARK  11 active torsions:
REMARK  status: ('A' for Active; 'I' for Inactive)
REMARK    1  A    between atoms: C_2  and  N_21
REMARK    2  A    between atoms: C_3  and  C_8
REMARK    3  A    between atoms: N_7  and  CA_10
REMARK    4  A    between atoms: CA_10  and  C_12
REMARK    5  A    between atoms: CA_10  and  CB_15
REMARK    6  A    between atoms: C_12  and  O_13
REMARK    7  A    between atoms: CB_15  and  CG_16
REMARK    8  A    between atoms: CG_16  and  CD_18
REMARK    9  A    between atoms: CD_18  and  OE1_19
REMARK   10  A    between atoms: N_21  and  C_23
REMARK   11  A    between atoms: C_23  and  C_27
REMARK                            x       y       z     vdW  Elec       q    Type
REMARK                         _______ _______ _______ _____ _____    ______ ____
ROOT
ATOM      1  S   UNL     1      34.702 -22.652 -17.313  0.00  0.00    -0.068 S 
ATOM      2  C   UNL     1      35.531 -21.648 -18.425  0.00  0.00    +0.079 C 
ATOM      3  C   UNL     1      36.051 -22.688 -16.258  0.00  0.00    +0.084 C 
ATOM      4  C   UNL     1      36.806 -21.348 -18.000  0.00  0.00    +0.022 C 
ATOM      5  C   UNL     1      37.107 -21.950 -16.745  0.00  0.00    +0.013 C 
ENDROOT
BRANCH   3   8
ATOM      6  O   UNL     1      34.903 -23.946 -14.612  0.00  0.00    -0.270 OA
ATOM      7  N   UNL     1      37.143 -23.568 -14.281  0.00  0.00    -0.293 N 
ATOM      8  C   ACE A   0      35.963 -23.434 -15.045  0.00  0.00    +0.252 C 
ATOM      9  H   UNL     1      37.970 -23.162 -14.629  0.00  0.00    +0.150 HD
BRANCH   7  10
ATOM     10  CA  UNL     1      37.206 -24.267 -13.018  0.00  0.00    +0.172 C 
BRANCH  10  12
ATOM     11  OXT UNL     1      37.883 -22.556 -11.423  0.00  0.00    -0.248 OA
ATOM     12  C   UNL     1      37.002 -23.245 -11.918  0.00  0.00    +0.332 C 
BRANCH  12  13
ATOM     13  O   UNL     1      35.696 -23.146 -11.555  0.00  0.00    -0.479 OA
ATOM     14  H   UNL     1      35.234 -22.340 -11.682  0.00  0.00    +0.295 HD
ENDBRANCH  12  13
ENDBRANCH  10  12
BRANCH  10  15
ATOM     15  CB  UNL     1      38.488 -25.095 -12.863  0.00  0.00    +0.043 C 
BRANCH  15  16
ATOM     16  CG  UNL     1      38.734 -26.154 -13.944  0.00  0.00    +0.112 C 
BRANCH  16  18
ATOM     17  OE2 UNL     1      41.123 -26.586 -13.730  0.00  0.00    -0.250 OA
ATOM     18  CD  UNL     1      40.172 -26.227 -14.410  0.00  0.00    +0.314 C 
BRANCH  18  19
ATOM     19  OE1 UNL     1      40.304 -25.799 -15.694  0.00  0.00    -0.480 OA
ATOM     20  HE1 UNL     1      39.805 -26.203 -16.376  0.00  0.00    +0.295 HD
ENDBRANCH  18  19
ENDBRANCH  16  18
ENDBRANCH  15  16
ENDBRANCH  10  15
ENDBRANCH   7  10
ENDBRANCH   3   8
BRANCH   2  21
ATOM     21  N   UNL     1      34.930 -21.219 -19.602  0.00  0.00    -0.297 N 
ATOM     22  C   UNL     1      33.486 -20.984 -19.664  0.00  0.00    +0.113 C 
BRANCH  21  23
ATOM     23  C   UNL     1      35.690 -20.980 -20.809  0.00  0.00    +0.118 C 
BRANCH  23  27
ATOM     24  O   UNL     1      33.663 -19.099 -25.158  0.00  0.00    -0.209 OA
ATOM     25  N   UNL     1      34.523 -15.851 -22.971  0.00  0.00    -0.290 N 
ATOM     26  N   UNL     1      33.659 -16.814 -24.973  0.00  0.00    -0.322 NA
ATOM     27  C   UNL     1      35.387 -19.632 -21.373  0.00  0.00    -0.002 C 
ATOM     28  C   UNL     1      34.531 -18.253 -23.158  0.00  0.00    +0.108 C 
ATOM     29  C   UNL     1      34.812 -19.520 -22.639  0.00  0.00    +0.011 C 
ATOM     30  C   UNL     1      34.820 -17.098 -22.418  0.00  0.00    +0.062 C 
ATOM     31  C   UNL     1      35.677 -18.486 -20.630  0.00  0.00    -0.001 C 
ATOM     32  C   UNL     1      35.395 -17.222 -21.150  0.00  0.00    +0.015 C 
ATOM     33  C   UNL     1      33.918 -18.091 -24.506  0.00  0.00    +0.207 C 
ATOM     34  C   UNL     1      33.960 -15.794 -24.224  0.00  0.00    +0.174 C 
ATOM     35  C   UNL     1      33.664 -14.416 -24.767  0.00  0.00    +0.085 C 
ATOM     36  H   UNL     1      34.715 -15.024 -22.472  0.00  0.00    +0.154 HD
ENDBRANCH  23  27
ENDBRANCH  21  23
ENDBRANCH   2  21
TORSDOF 11
ENDMDL
MODEL 8
REMARK VINA RESULT:     -10.6      3.718     11.774
REMARK  Name = 104758
REMARK  11 active torsions:
REMARK  status: ('A' for Active; 'I' for Inactive)
REMARK    1  A    between atoms: C_2  and  N_21
REMARK    2  A    between atoms: C_3  and  C_8
REMARK    3  A    between atoms: N_7  and  CA_10
REMARK    4  A    between atoms: CA_10  and  C_12
REMARK    5  A    between atoms: CA_10  and  CB_15
REMARK    6  A    between atoms: C_12  and  O_13
REMARK    7  A    between atoms: CB_15  and  CG_16
REMARK    8  A    between atoms: CG_16  and  CD_18
REMARK    9  A    between atoms: CD_18  and  OE1_19
REMARK   10  A    between atoms: N_21  and  C_23
REMARK   11  A    between atoms: C_23  and  C_27
REMARK                            x       y       z     vdW  Elec       q    Type
REMARK                         _______ _______ _______ _____ _____    ______ ____
ROOT
ATOM      1  S   UNL     1      34.550 -15.560 -24.132  0.00  0.00    -0.068 S 
ATOM      2  C   UNL     1      34.874 -16.501 -22.738  0.00  0.00    +0.079 C 
ATOM      3  C   UNL     1      34.192 -14.181 -23.184  0.00  0.00    +0.084 C 
ATOM      4  C   UNL     1      34.710 -15.777 -21.577  0.00  0.00    +0.022 C 
ATOM      5  C   UNL     1      34.316 -14.433 -21.836  0.00  0.00    +0.013 C 
ENDROOT
BRANCH   3   8
ATOM      6  O   UNL     1      33.452 -12.901 -25.036  0.00  0.00    -0.270 OA
ATOM      7  N   UNL     1      33.900 -11.776 -23.084  0.00  0.00    -0.293 N 
ATOM      8  C   ACE A   0      33.818 -12.968 -23.837  0.00  0.00    +0.252 C 
ATOM      9  H   UNL     1      34.188 -11.839 -22.145  0.00  0.00    +0.150 HD
BRANCH   7  10
ATOM     10  CA  UNL     1      33.585 -10.469 -23.615  0.00  0.00    +0.172 C 
BRANCH  10  12
ATOM     11  OXT UNL     1      35.427  -8.883 -23.481  0.00  0.00    -0.248 OA
ATOM     12  C   UNL     1      34.885  -9.823 -24.046  0.00  0.00    +0.332 C 
BRANCH  12  13
ATOM     13  O   UNL     1      35.421 -10.439 -25.133  0.00  0.00    -0.479 OA
ATOM     14  H   UNL     1      36.079 -10.006 -25.641  0.00  0.00    +0.295 HD
ENDBRANCH  12  13
ENDBRANCH  10  12
BRANCH  10  15
ATOM     15  CB  UNL     1      32.764  -9.617 -22.640  0.00  0.00    +0.043 C 
BRANCH  15  16
ATOM     16  CG  UNL     1      32.076  -8.385 -23.243  0.00  0.00    +0.112 C 
BRANCH  16  18
ATOM     17  OE2 UNL     1      31.903  -6.010 -22.725  0.00  0.00    -0.250 OA
ATOM     18  CD  UNL     1      32.479  -7.081 -22.590  0.00  0.00    +0.314 C 
BRANCH  18  19
ATOM     19  OE1 UNL     1      33.607  -7.222 -21.845  0.00  0.00    -0.480 OA
ATOM     20  HE1 UNL     1      33.903  -8.077 -21.599  0.00  0.00    +0.295 HD
ENDBRANCH  18  19
ENDBRANCH  16  18
ENDBRANCH  15  16
ENDBRANCH  10  15
ENDBRANCH   7  10
ENDBRANCH   3   8
BRANCH   2  21
ATOM     21  N   UNL     1      35.252 -17.834 -22.834  0.00  0.00    -0.297 N 
ATOM     22  C   UNL     1      34.475 -18.777 -23.641  0.00  0.00    +0.113 C 
BRANCH  21  23
ATOM     23  C   UNL     1      36.420 -18.352 -22.157  0.00  0.00    +0.118 C 
BRANCH  23  27
ATOM     24  O   UNL     1      32.057 -20.480 -20.428  0.00  0.00    -0.209 OA
ATOM     25  N   UNL     1      34.942 -22.200 -18.239  0.00  0.00    -0.290 N 
ATOM     26  N   UNL     1      32.632 -21.962 -18.776  0.00  0.00    -0.322 NA
ATOM     27  C   UNL     1      36.037 -19.361 -21.127  0.00  0.00    -0.002 C 
ATOM     28  C   UNL     1      34.346 -20.638 -19.975  0.00  0.00    +0.108 C 
ATOM     29  C   UNL     1      34.694 -19.692 -20.941  0.00  0.00    +0.011 C 
ATOM     30  C   UNL     1      35.332 -21.258 -19.193  0.00  0.00    +0.062 C 
ATOM     31  C   UNL     1      37.024 -19.974 -20.353  0.00  0.00    -0.001 C 
ATOM     32  C   UNL     1      36.674 -20.920 -19.388  0.00  0.00    +0.015 C 
ATOM     33  C   UNL     1      32.924 -21.019 -19.746  0.00  0.00    +0.207 C 
ATOM     34  C   UNL     1      33.606 -22.489 -18.093  0.00  0.00    +0.174 C 
ATOM     35  C   UNL     1      33.250 -23.514 -17.043  0.00  0.00    +0.085 C 
ATOM     36  H   UNL     1      35.615 -22.649 -17.678  0.00  0.00    +0.154 HD
ENDBRANCH  23  27
ENDBRANCH  21  23
ENDBRANCH   2  21
TORSDOF 11
ENDMDL
MODEL 9
REMARK VINA RESULT:     -10.6      1.403      2.007
REMARK  Name = 104758
REMARK  11 active torsions:
REMARK  status: ('A' for Active; 'I' for Inactive)
REMARK    1  A    between atoms: C_2  and  N_21
REMARK    2  A    between atoms: C_3  and  C_8
REMARK    3  A    between atoms: N_7  and  CA_10
REMARK    4  A    between atoms: CA_10  and  C_12
REMARK    5  A    between atoms: CA_10  and  CB_15
REMARK    6  A    between atoms: C_12  and  O_13
REMARK    7  A    between atoms: CB_15  and  CG_16
REMARK    8  A    between atoms: CG_16  and  CD_18
REMARK    9  A    between atoms: CD_18  and  OE1_19
REMARK   10  A    between atoms: N_21  and  C_23
REMARK   11  A    between atoms: C_23  and  C_27
REMARK                            x       y       z     vdW  Elec       q    Type
REMARK                         _______ _______ _______ _____ _____    ______ ____
ROOT
ATOM      1  S   UNL     1      35.106 -21.361 -19.588  0.00  0.00    -0.068 S 
ATOM      2  C   UNL     1      34.600 -20.166 -20.706  0.00  0.00    +0.079 C 
ATOM      3  C   UNL     1      33.494 -21.658 -19.094  0.00  0.00    +0.084 C 
ATOM      4  C   UNL     1      33.233 -19.999 -20.700  0.00  0.00    +0.022 C 
ATOM      5  C   UNL     1      32.592 -20.863 -19.766  0.00  0.00    +0.013 C 
ENDROOT
BRANCH   3   8
ATOM      6  O   UNL     1      33.891 -23.712 -17.983  0.00  0.00    -0.270 OA
ATOM      7  N   UNL     1      32.188 -22.392 -17.187  0.00  0.00    -0.293 N 
ATOM      8  C   ACE A   0      33.246 -22.640 -18.089  0.00  0.00    +0.252 C 
ATOM      9  H   UNL     1      31.689 -21.549 -17.280  0.00  0.00    +0.150 HD
BRANCH   7  10
ATOM     10  CA  UNL     1      31.797 -23.305 -16.138  0.00  0.00    +0.172 C 
BRANCH  10  12
ATOM     11  OXT UNL     1      29.556 -22.510 -16.659  0.00  0.00    -0.248 OA
ATOM     12  C   UNL     1      30.286 -23.273 -16.041  0.00  0.00    +0.332 C 
BRANCH  12  13
ATOM     13  O   UNL     1      29.812 -24.231 -15.202  0.00  0.00    -0.479 OA
ATOM     14  H   UNL     1      30.196 -24.345 -14.355  0.00  0.00    +0.295 HD
ENDBRANCH  12  13
ENDBRANCH  10  12
BRANCH  10  15
ATOM     15  CB  UNL     1      32.509 -23.020 -14.810  0.00  0.00    +0.043 C 
BRANCH  15  16
ATOM     16  CG  UNL     1      33.440 -24.126 -14.298  0.00  0.00    +0.112 C 
BRANCH  16  18
ATOM     17  OE2 UNL     1      35.615 -24.216 -15.395  0.00  0.00    -0.250 OA
ATOM     18  CD  UNL     1      34.911 -23.817 -14.478  0.00  0.00    +0.314 C 
BRANCH  18  19
ATOM     19  OE1 UNL     1      35.390 -23.056 -13.458  0.00  0.00    -0.480 OA
ATOM     20  HE1 UNL     1      34.994 -23.107 -12.610  0.00  0.00    +0.295 HD
ENDBRANCH  18  19
ENDBRANCH  16  18
ENDBRANCH  15  16
ENDBRANCH  10  15
ENDBRANCH   7  10
ENDBRANCH   3   8
BRANCH   2  21
ATOM     21  N   UNL     1      35.512 -19.481 -21.498  0.00  0.00    -0.297 N 
ATOM     22  C   UNL     1      36.721 -18.897 -20.913  0.00  0.00    +0.113 C 
BRANCH  21  23
ATOM     23  C   UNL     1      35.322 -19.316 -22.922  0.00  0.00    +0.118 C 
BRANCH  23  27
ATOM     24  O   UNL     1      34.536 -14.934 -20.327  0.00  0.00    -0.209 OA
ATOM     25  N   UNL     1      33.902 -13.950 -24.162  0.00  0.00    -0.290 N 
ATOM     26  N   UNL     1      33.989 -13.323 -21.863  0.00  0.00    -0.322 NA
ATOM     27  C   UNL     1      34.949 -17.910 -23.252  0.00  0.00    -0.002 C 
ATOM     28  C   UNL     1      34.477 -15.650 -22.553  0.00  0.00    +0.108 C 
ATOM     29  C   UNL     1      34.827 -16.964 -22.233  0.00  0.00    +0.011 C 
ATOM     30  C   UNL     1      34.249 -15.275 -23.884  0.00  0.00    +0.062 C 
ATOM     31  C   UNL     1      34.723 -17.543 -24.580  0.00  0.00    -0.001 C 
ATOM     32  C   UNL     1      34.374 -16.229 -24.896  0.00  0.00    +0.015 C 
ATOM     33  C   UNL     1      34.337 -14.611 -21.495  0.00  0.00    +0.207 C 
ATOM     34  C   UNL     1      33.793 -13.057 -23.122  0.00  0.00    +0.174 C 
ATOM     35  C   UNL     1      33.414 -11.642 -23.487  0.00  0.00    +0.085 C 
ATOM     36  H   UNL     1      33.737 -13.661 -25.088  0.00  0.00    +0.154 HD
ENDBRANCH  23  27
ENDBRANCH  21  23
ENDBRANCH   2  21
TORSDOF 11
ENDMDL
