MODEL 1
REMARK VINA RESULT:     -14.1      0.000      0.000
REMARK  Name = 89670174
REMARK  4 active torsions:
REMARK  status: ('A' for Active; 'I' for Inactive)
REMARK    1  A    between atoms: C_3  and  C_13
REMARK    2  A    between atoms: C_9  and  O_26
REMARK    3  A    between atoms: C_18  and  C_25
REMARK    4  A    between atoms: O_26  and  C_30
REMARK                            x       y       z     vdW  Elec       q    Type
REMARK                         _______ _______ _______ _____ _____    ______ ____
ROOT
ATOM      1  O   UNL     1      34.490 -19.429 -23.727  0.00  0.00    -0.479 OA
ATOM      2  C   UNL     1      35.076 -18.665 -21.480  0.00  0.00    +0.072 C 
ATOM      3  C   UNL     1      33.971 -19.678 -21.226  0.00  0.00    +0.085 C 
ATOM      4  C   UNL     1      34.920 -19.879 -22.387  0.00  0.00    +0.174 C 
ATOM      5  C   UNL     1      34.860 -17.541 -22.426  0.00  0.00    +0.018 C 
ATOM      6  C   UNL     1      34.539 -18.044 -23.694  0.00  0.00    +0.135 C 
ATOM      7  C   UNL     1      34.929 -16.169 -22.235  0.00  0.00    +0.036 C 
ATOM      8  C   UNL     1      34.278 -17.231 -24.780  0.00  0.00    +0.040 C 
ATOM      9  C   UNL     1      34.673 -15.325 -23.321  0.00  0.00    +0.145 C 
ATOM     10  C   UNL     1      34.350 -15.852 -24.583  0.00  0.00    +0.041 C 
ENDROOT
BRANCH   3  13
ATOM     11  N   UNL     1      35.202 -20.829 -19.319  0.00  0.00    -0.318 N 
ATOM     12  N   UNL     1      33.026 -21.237 -19.519  0.00  0.00    -0.318 N 
ATOM     13  C   UNL     1      34.052 -20.586 -20.019  0.00  0.00    +0.148 C 
ATOM     14  C   UNL     1      34.896 -21.693 -18.299  0.00  0.00    +0.059 C 
ATOM     15  C   UNL     1      33.533 -21.933 -18.445  0.00  0.00    +0.059 C 
ATOM     16  C   UNL     1      35.672 -22.269 -17.292  0.00  0.00    +0.019 C 
ATOM     17  C   UNL     1      32.888 -22.795 -17.542  0.00  0.00    +0.016 C 
ATOM     18  C   UNL     1      35.014 -23.125 -16.402  0.00  0.00    +0.073 C 
ATOM     19  C   UNL     1      33.647 -23.384 -16.524  0.00  0.00    +0.005 C 
ATOM     20  H   UNL     1      36.090 -20.451 -19.512  0.00  0.00    +0.148 HD
ATOM     21  H   UNL     1      32.096 -21.228 -19.842  0.00  0.00    +0.148 HD
BRANCH  18  25
ATOM     22  F   UNL     1      35.474 -25.084 -15.110  0.00  0.00    -0.166 F 
ATOM     23  F   UNL     1      37.140 -23.751 -15.501  0.00  0.00    -0.166 F 
ATOM     24  F   UNL     1      35.588 -23.164 -14.096  0.00  0.00    -0.166 F 
ATOM     25  C   UNL     1      35.790 -23.769 -15.301  0.00  0.00    +0.419 C 
ENDBRANCH  18  25
ENDBRANCH   3  13
BRANCH   9  26
ATOM     26  O   UNL     1      34.735 -13.954 -23.150  0.00  0.00    -0.454 OA
BRANCH  26  30
ATOM     27  O   UNL     1      31.980  -8.245 -23.178  0.00  0.00    -0.275 OA
ATOM     28  N   UNL     1      31.877 -10.238 -22.042  0.00  0.00    -0.270 N 
ATOM     29  N   UNL     1      31.782 -12.240 -20.784  0.00  0.00    -0.229 NA
ATOM     30  C   UNL     1      33.783 -13.368 -22.372  0.00  0.00    +0.146 C 
ATOM     31  C   UNL     1      33.348 -12.064 -22.617  0.00  0.00    +0.045 C 
ATOM     32  C   UNL     1      33.847 -11.280 -23.792  0.00  0.00    +0.042 C 
ATOM     33  C   UNL     1      33.230 -14.096 -21.324  0.00  0.00    +0.058 C 
ATOM     34  C   UNL     1      32.349 -11.542 -21.797  0.00  0.00    +0.133 C 
ATOM     35  C   UNL     1      33.786  -9.787 -23.510  0.00  0.00    +0.090 C 
ATOM     36  C   UNL     1      32.454  -9.355 -22.932  0.00  0.00    +0.227 C 
ATOM     37  C   UNL     1      32.240 -13.493 -20.570  0.00  0.00    +0.103 C 
ATOM     38  H   UNL     1      31.083  -9.936 -21.545  0.00  0.00    +0.156 HD
ENDBRANCH  26  30
ENDBRANCH   9  26
TORSDOF 4
ENDMDL
MODEL 2
REMARK VINA RESULT:     -13.2      5.912     11.479
REMARK  Name = 89670174
REMARK  4 active torsions:
REMARK  status: ('A' for Active; 'I' for Inactive)
REMARK    1  A    between atoms: C_3  and  C_13
REMARK    2  A    between atoms: C_9  and  O_26
REMARK    3  A    between atoms: C_18  and  C_25
REMARK    4  A    between atoms: O_26  and  C_30
REMARK                            x       y       z     vdW  Elec       q    Type
REMARK                         _______ _______ _______ _____ _____    ______ ____
ROOT
ATOM      1  O   UNL     1      37.187 -19.593 -20.631  0.00  0.00    -0.479 OA
ATOM      2  C   UNL     1      34.848 -19.197 -21.221  0.00  0.00    +0.072 C 
ATOM      3  C   UNL     1      35.388 -17.795 -20.981  0.00  0.00    +0.085 C 
ATOM      4  C   UNL     1      36.297 -18.861 -21.555  0.00  0.00    +0.174 C 
ATOM      5  C   UNL     1      35.005 -20.248 -20.184  0.00  0.00    +0.018 C 
ATOM      6  C   UNL     1      36.364 -20.434 -19.899  0.00  0.00    +0.135 C 
ATOM      7  C   UNL     1      34.058 -21.010 -19.516  0.00  0.00    +0.036 C 
ATOM      8  C   UNL     1      36.817 -21.348 -18.968  0.00  0.00    +0.040 C 
ATOM      9  C   UNL     1      34.493 -21.944 -18.570  0.00  0.00    +0.145 C 
ATOM     10  C   UNL     1      35.862 -22.112 -18.299  0.00  0.00    +0.041 C 
ENDROOT
BRANCH   3  13
ATOM     11  N   UNL     1      34.674 -16.765 -23.195  0.00  0.00    -0.318 N 
ATOM     12  N   UNL     1      34.699 -15.435 -21.414  0.00  0.00    -0.318 N 
ATOM     13  C   UNL     1      34.918 -16.653 -21.855  0.00  0.00    +0.148 C 
ATOM     14  C   UNL     1      34.268 -15.536 -23.650  0.00  0.00    +0.059 C 
ATOM     15  C   UNL     1      34.291 -14.724 -22.521  0.00  0.00    +0.059 C 
ATOM     16  C   UNL     1      33.894 -15.080 -24.915  0.00  0.00    +0.019 C 
ATOM     17  C   UNL     1      33.923 -13.373 -22.640  0.00  0.00    +0.016 C 
ATOM     18  C   UNL     1      33.531 -13.733 -25.016  0.00  0.00    +0.073 C 
ATOM     19  C   UNL     1      33.544 -12.894 -23.900  0.00  0.00    +0.005 C 
ATOM     20  H   UNL     1      34.771 -17.581 -23.737  0.00  0.00    +0.148 HD
ATOM     21  H   UNL     1      34.802 -15.103 -20.494  0.00  0.00    +0.148 HD
BRANCH  18  25
ATOM     22  F   UNL     1      33.926 -13.580 -27.370  0.00  0.00    -0.166 F 
ATOM     23  F   UNL     1      31.858 -13.555 -26.718  0.00  0.00    -0.166 F 
ATOM     24  F   UNL     1      33.125 -11.823 -26.371  0.00  0.00    -0.166 F 
ATOM     25  C   UNL     1      33.118 -13.186 -26.342  0.00  0.00    +0.419 C 
ENDBRANCH  18  25
ENDBRANCH   3  13
BRANCH   9  26
ATOM     26  O   UNL     1      33.564 -22.713 -17.891  0.00  0.00    -0.454 OA
BRANCH  26  30
ATOM     27  O   UNL     1      29.953 -24.321 -12.937  0.00  0.00    -0.275 OA
ATOM     28  N   UNL     1      32.169 -24.081 -13.489  0.00  0.00    -0.270 N 
ATOM     29  N   UNL     1      34.463 -23.774 -13.977  0.00  0.00    -0.229 NA
ATOM     30  C   UNL     1      33.839 -23.043 -16.598  0.00  0.00    +0.146 C 
ATOM     31  C   UNL     1      32.819 -23.369 -15.702  0.00  0.00    +0.045 C 
ATOM     32  C   UNL     1      31.388 -23.449 -16.138  0.00  0.00    +0.042 C 
ATOM     33  C   UNL     1      35.164 -23.066 -16.178  0.00  0.00    +0.058 C 
ATOM     34  C   UNL     1      33.179 -23.724 -14.403  0.00  0.00    +0.133 C 
ATOM     35  C   UNL     1      30.452 -23.162 -14.976  0.00  0.00    +0.090 C 
ATOM     36  C   UNL     1      30.817 -23.937 -13.725  0.00  0.00    +0.227 C 
ATOM     37  C   UNL     1      35.420 -23.438 -14.871  0.00  0.00    +0.103 C 
ATOM     38  H   UNL     1      32.446 -24.459 -12.623  0.00  0.00    +0.156 HD
ENDBRANCH  26  30
ENDBRANCH   9  26
TORSDOF 4
ENDMDL
MODEL 3
REMARK VINA RESULT:     -12.7      5.818     11.391
REMARK  Name = 89670174
REMARK  4 active torsions:
REMARK  status: ('A' for Active; 'I' for Inactive)
REMARK    1  A    between atoms: C_3  and  C_13
REMARK    2  A    between atoms: C_9  and  O_26
REMARK    3  A    between atoms: C_18  and  C_25
REMARK    4  A    between atoms: O_26  and  C_30
REMARK                            x       y       z     vdW  Elec       q    Type
REMARK                         _______ _______ _______ _____ _____    ______ ____
ROOT
ATOM      1  O   UNL     1      37.226 -19.441 -19.891  0.00  0.00    -0.479 OA
ATOM      2  C   UNL     1      35.079 -19.377 -21.059  0.00  0.00    +0.072 C 
ATOM      3  C   UNL     1      35.286 -17.932 -20.631  0.00  0.00    +0.085 C 
ATOM      4  C   UNL     1      36.483 -18.788 -20.987  0.00  0.00    +0.174 C 
ATOM      5  C   UNL     1      35.153 -20.473 -20.059  0.00  0.00    +0.018 C 
ATOM      6  C   UNL     1      36.407 -20.462 -19.434  0.00  0.00    +0.135 C 
ATOM      7  C   UNL     1      34.218 -21.428 -19.692  0.00  0.00    +0.036 C 
ATOM      8  C   UNL     1      36.764 -21.365 -18.453  0.00  0.00    +0.040 C 
ATOM      9  C   UNL     1      34.557 -22.357 -18.702  0.00  0.00    +0.145 C 
ATOM     10  C   UNL     1      35.821 -22.325 -18.088  0.00  0.00    +0.041 C 
ENDROOT
BRANCH   3  13
ATOM     11  N   UNL     1      34.642 -16.964 -22.894  0.00  0.00    -0.318 N 
ATOM     12  N   UNL     1      34.653 -15.576 -21.158  0.00  0.00    -0.318 N 
ATOM     13  C   UNL     1      34.859 -16.811 -21.553  0.00  0.00    +0.148 C 
ATOM     14  C   UNL     1      34.270 -15.743 -23.399  0.00  0.00    +0.059 C 
ATOM     15  C   UNL     1      34.284 -14.894 -22.297  0.00  0.00    +0.059 C 
ATOM     16  C   UNL     1      33.933 -15.323 -24.686  0.00  0.00    +0.019 C 
ATOM     17  C   UNL     1      33.946 -13.542 -22.469  0.00  0.00    +0.016 C 
ATOM     18  C   UNL     1      33.599 -13.973 -24.840  0.00  0.00    +0.073 C 
ATOM     19  C   UNL     1      33.604 -13.097 -23.753  0.00  0.00    +0.005 C 
ATOM     20  H   UNL     1      34.735 -17.799 -23.407  0.00  0.00    +0.148 HD
ATOM     21  H   UNL     1      34.742 -15.214 -20.247  0.00  0.00    +0.148 HD
BRANCH  18  25
ATOM     22  F   UNL     1      33.293 -12.104 -26.300  0.00  0.00    -0.166 F 
ATOM     23  F   UNL     1      34.022 -13.940 -27.195  0.00  0.00    -0.166 F 
ATOM     24  F   UNL     1      31.952 -13.798 -26.545  0.00  0.00    -0.166 F 
ATOM     25  C   UNL     1      33.227 -13.464 -26.193  0.00  0.00    +0.419 C 
ENDBRANCH  18  25
ENDBRANCH   3  13
BRANCH   9  26
ATOM     26  O   UNL     1      33.637 -23.318 -18.321  0.00  0.00    -0.454 OA
BRANCH  26  30
ATOM     27  O   UNL     1      35.340 -24.474 -12.327  0.00  0.00    -0.275 OA
ATOM     28  N   UNL     1      33.584 -23.591 -13.513  0.00  0.00    -0.270 N 
ATOM     29  N   UNL     1      31.711 -22.745 -14.686  0.00  0.00    -0.229 NA
ATOM     30  C   UNL     1      33.013 -23.156 -17.121  0.00  0.00    +0.146 C 
ATOM     31  C   UNL     1      33.645 -23.498 -15.925  0.00  0.00    +0.045 C 
ATOM     32  C   UNL     1      35.063 -23.980 -15.898  0.00  0.00    +0.042 C 
ATOM     33  C   UNL     1      31.727 -22.628 -17.099  0.00  0.00    +0.058 C 
ATOM     34  C   UNL     1      32.955 -23.278 -14.733  0.00  0.00    +0.133 C 
ATOM     35  C   UNL     1      35.308 -24.872 -14.691  0.00  0.00    +0.090 C 
ATOM     36  C   UNL     1      34.779 -24.273 -13.404  0.00  0.00    +0.227 C 
ATOM     37  C   UNL     1      31.128 -22.440 -15.866  0.00  0.00    +0.103 C 
ATOM     38  H   UNL     1      33.141 -23.305 -12.681  0.00  0.00    +0.156 HD
ENDBRANCH  26  30
ENDBRANCH   9  26
TORSDOF 4
ENDMDL
MODEL 4
REMARK VINA RESULT:     -12.7      1.672      2.530
REMARK  Name = 89670174
REMARK  4 active torsions:
REMARK  status: ('A' for Active; 'I' for Inactive)
REMARK    1  A    between atoms: C_3  and  C_13
REMARK    2  A    between atoms: C_9  and  O_26
REMARK    3  A    between atoms: C_18  and  C_25
REMARK    4  A    between atoms: O_26  and  C_30
REMARK                            x       y       z     vdW  Elec       q    Type
REMARK                         _______ _______ _______ _____ _____    ______ ____
ROOT
ATOM      1  O   UNL     1      34.264 -17.431 -25.107  0.00  0.00    -0.479 OA
ATOM      2  C   UNL     1      34.895 -16.889 -22.809  0.00  0.00    +0.072 C 
ATOM      3  C   UNL     1      33.959 -18.076 -22.642  0.00  0.00    +0.085 C 
ATOM      4  C   UNL     1      34.843 -17.985 -23.866  0.00  0.00    +0.174 C 
ATOM      5  C   UNL     1      34.462 -15.695 -23.578  0.00  0.00    +0.018 C 
ATOM      6  C   UNL     1      34.125 -16.070 -24.886  0.00  0.00    +0.135 C 
ATOM      7  C   UNL     1      34.356 -14.364 -23.203  0.00  0.00    +0.036 C 
ATOM      8  C   UNL     1      33.681 -15.169 -25.833  0.00  0.00    +0.040 C 
ATOM      9  C   UNL     1      33.912 -13.432 -24.147  0.00  0.00    +0.145 C 
ATOM     10  C   UNL     1      33.577 -13.832 -25.452  0.00  0.00    +0.041 C 
ENDROOT
BRANCH   3  13
ATOM     11  N   UNL     1      33.282 -19.772 -20.869  0.00  0.00    -0.318 N 
ATOM     12  N   UNL     1      35.457 -19.482 -21.224  0.00  0.00    -0.318 N 
ATOM     13  C   UNL     1      34.247 -19.112 -21.578  0.00  0.00    +0.148 C 
ATOM     14  C   UNL     1      33.912 -20.626 -20.001  0.00  0.00    +0.059 C 
ATOM     15  C   UNL     1      35.268 -20.427 -20.241  0.00  0.00    +0.059 C 
ATOM     16  C   UNL     1      33.425 -21.529 -19.054  0.00  0.00    +0.019 C 
ATOM     17  C   UNL     1      36.210 -21.163 -19.503  0.00  0.00    +0.016 C 
ATOM     18  C   UNL     1      34.377 -22.253 -18.327  0.00  0.00    +0.073 C 
ATOM     19  C   UNL     1      35.744 -22.075 -18.547  0.00  0.00    +0.005 C 
ATOM     20  H   UNL     1      32.309 -19.655 -20.965  0.00  0.00    +0.148 HD
ATOM     21  H   UNL     1      36.314 -19.156 -21.583  0.00  0.00    +0.148 HD
BRANCH  18  25
ATOM     22  F   UNL     1      34.873 -23.539 -16.373  0.00  0.00    -0.166 F 
ATOM     23  F   UNL     1      32.841 -22.812 -16.581  0.00  0.00    -0.166 F 
ATOM     24  F   UNL     1      33.548 -24.429 -17.850  0.00  0.00    -0.166 F 
ATOM     25  C   UNL     1      33.919 -23.236 -17.302  0.00  0.00    +0.419 C 
ENDBRANCH  18  25
ENDBRANCH   3  13
BRANCH   9  26
ATOM     26  O   UNL     1      33.798 -12.100 -23.791  0.00  0.00    -0.454 OA
BRANCH  26  30
ATOM     27  O   UNL     1      31.700  -6.641 -21.348  0.00  0.00    -0.275 OA
ATOM     28  N   UNL     1      31.486  -8.904 -21.027  0.00  0.00    -0.270 N 
ATOM     29  N   UNL     1      31.289 -11.223 -20.599  0.00  0.00    -0.229 NA
ATOM     30  C   UNL     1      32.994 -11.793 -22.735  0.00  0.00    +0.146 C 
ATOM     31  C   UNL     1      32.684 -10.468 -22.422  0.00  0.00    +0.045 C 
ATOM     32  C   UNL     1      33.154  -9.331 -23.277  0.00  0.00    +0.042 C 
ATOM     33  C   UNL     1      32.466 -12.826 -21.970  0.00  0.00    +0.058 C 
ATOM     34  C   UNL     1      31.832 -10.231 -21.345  0.00  0.00    +0.133 C 
ATOM     35  C   UNL     1      33.285  -8.057 -22.458  0.00  0.00    +0.090 C 
ATOM     36  C   UNL     1      32.069  -7.789 -21.594  0.00  0.00    +0.227 C 
ATOM     37  C   UNL     1      31.624 -12.490 -20.925  0.00  0.00    +0.103 C 
ATOM     38  H   UNL     1      30.780  -8.762 -20.355  0.00  0.00    +0.156 HD
ENDBRANCH  26  30
ENDBRANCH   9  26
TORSDOF 4
ENDMDL
MODEL 5
REMARK VINA RESULT:     -12.5      6.001     11.649
REMARK  Name = 89670174
REMARK  4 active torsions:
REMARK  status: ('A' for Active; 'I' for Inactive)
REMARK    1  A    between atoms: C_3  and  C_13
REMARK    2  A    between atoms: C_9  and  O_26
REMARK    3  A    between atoms: C_18  and  C_25
REMARK    4  A    between atoms: O_26  and  C_30
REMARK                            x       y       z     vdW  Elec       q    Type
REMARK                         _______ _______ _______ _____ _____    ______ ____
ROOT
ATOM      1  O   UNL     1      33.179 -14.968 -25.459  0.00  0.00    -0.479 OA
ATOM      2  C   UNL     1      33.606 -14.071 -23.225  0.00  0.00    +0.072 C 
ATOM      3  C   UNL     1      34.173 -13.000 -24.144  0.00  0.00    +0.085 C 
ATOM      4  C   UNL     1      32.964 -13.800 -24.581  0.00  0.00    +0.174 C 
ATOM      5  C   UNL     1      34.038 -15.484 -23.364  0.00  0.00    +0.018 C 
ATOM      6  C   UNL     1      33.758 -15.941 -24.659  0.00  0.00    +0.135 C 
ATOM      7  C   UNL     1      34.635 -16.343 -22.454  0.00  0.00    +0.036 C 
ATOM      8  C   UNL     1      34.055 -17.221 -25.084  0.00  0.00    +0.040 C 
ATOM      9  C   UNL     1      34.943 -17.646 -22.860  0.00  0.00    +0.145 C 
ATOM     10  C   UNL     1      34.654 -18.081 -24.165  0.00  0.00    +0.041 C 
ENDROOT
BRANCH   3  13
ATOM     11  N   UNL     1      32.932 -11.025 -23.127  0.00  0.00    -0.318 N 
ATOM     12  N   UNL     1      34.916 -10.618 -24.044  0.00  0.00    -0.318 N 
ATOM     13  C   UNL     1      34.019 -11.541 -23.776  0.00  0.00    +0.148 C 
ATOM     14  C   UNL     1      33.142  -9.679 -22.964  0.00  0.00    +0.059 C 
ATOM     15  C   UNL     1      34.386  -9.450 -23.544  0.00  0.00    +0.059 C 
ATOM     16  C   UNL     1      32.372  -8.673 -22.377  0.00  0.00    +0.019 C 
ATOM     17  C   UNL     1      34.910  -8.146 -23.549  0.00  0.00    +0.016 C 
ATOM     18  C   UNL     1      32.909  -7.381 -22.391  0.00  0.00    +0.073 C 
ATOM     19  C   UNL     1      34.155  -7.121 -22.965  0.00  0.00    +0.005 C 
ATOM     20  H   UNL     1      32.141 -11.529 -22.829  0.00  0.00    +0.148 HD
ATOM     21  H   UNL     1      35.779 -10.736 -24.502  0.00  0.00    +0.148 HD
BRANCH  18  25
ATOM     22  F   UNL     1      32.501  -5.991 -20.489  0.00  0.00    -0.166 F 
ATOM     23  F   UNL     1      32.263  -5.079 -22.442  0.00  0.00    -0.166 F 
ATOM     24  F   UNL     1      30.796  -6.517 -21.731  0.00  0.00    -0.166 F 
ATOM     25  C   UNL     1      32.135  -6.263 -21.776  0.00  0.00    +0.419 C 
ENDBRANCH  18  25
ENDBRANCH   3  13
BRANCH   9  26
ATOM     26  O   UNL     1      35.540 -18.518 -21.966  0.00  0.00    -0.454 OA
BRANCH  26  30
ATOM     27  O   UNL     1      36.522 -22.545 -17.172  0.00  0.00    -0.275 OA
ATOM     28  N   UNL     1      34.807 -21.764 -18.485  0.00  0.00    -0.270 N 
ATOM     29  N   UNL     1      33.016 -21.056 -19.858  0.00  0.00    -0.229 NA
ATOM     30  C   UNL     1      34.731 -19.371 -21.278  0.00  0.00    +0.146 C 
ATOM     31  C   UNL     1      35.228 -20.155 -20.235  0.00  0.00    +0.045 C 
ATOM     32  C   UNL     1      36.647 -20.036 -19.772  0.00  0.00    +0.042 C 
ATOM     33  C   UNL     1      33.386 -19.444 -21.620  0.00  0.00    +0.058 C 
ATOM     34  C   UNL     1      34.335 -20.983 -19.557  0.00  0.00    +0.133 C 
ATOM     35  C   UNL     1      37.126 -21.341 -19.155  0.00  0.00    +0.090 C 
ATOM     36  C   UNL     1      36.140 -21.912 -18.156  0.00  0.00    +0.227 C 
ATOM     37  C   UNL     1      32.578 -20.292 -20.883  0.00  0.00    +0.103 C 
ATOM     38  H   UNL     1      34.143 -22.237 -17.932  0.00  0.00    +0.156 HD
ENDBRANCH  26  30
ENDBRANCH   9  26
TORSDOF 4
ENDMDL
MODEL 6
REMARK VINA RESULT:     -12.4      6.578     12.432
REMARK  Name = 89670174
REMARK  4 active torsions:
REMARK  status: ('A' for Active; 'I' for Inactive)
REMARK    1  A    between atoms: C_3  and  C_13
REMARK    2  A    between atoms: C_9  and  O_26
REMARK    3  A    between atoms: C_18  and  C_25
REMARK    4  A    between atoms: O_26  and  C_30
REMARK                            x       y       z     vdW  Elec       q    Type
REMARK                         _______ _______ _______ _____ _____    ______ ____
ROOT
ATOM      1  O   UNL     1      31.100 -23.593 -16.141  0.00  0.00    -0.479 OA
ATOM      2  C   UNL     1      33.254 -22.448 -15.980  0.00  0.00    +0.072 C 
ATOM      3  C   UNL     1      33.208 -22.900 -17.431  0.00  0.00    +0.085 C 
ATOM      4  C   UNL     1      31.926 -22.516 -16.725  0.00  0.00    +0.174 C 
ATOM      5  C   UNL     1      33.045 -23.426 -14.883  0.00  0.00    +0.018 C 
ATOM      6  C   UNL     1      31.793 -24.039 -15.026  0.00  0.00    +0.135 C 
ATOM      7  C   UNL     1      33.861 -23.784 -13.821  0.00  0.00    +0.036 C 
ATOM      8  C   UNL     1      31.324 -25.000 -14.152  0.00  0.00    +0.040 C 
ATOM      9  C   UNL     1      33.407 -24.753 -12.920  0.00  0.00    +0.145 C 
ATOM     10  C   UNL     1      32.147 -25.356 -13.085  0.00  0.00    +0.041 C 
ENDROOT
BRANCH   3  13
ATOM     11  N   UNL     1      33.006 -21.316 -19.413  0.00  0.00    -0.318 N 
ATOM     12  N   UNL     1      35.055 -21.795 -18.697  0.00  0.00    -0.318 N 
ATOM     13  C   UNL     1      33.772 -22.004 -18.512  0.00  0.00    +0.148 C 
ATOM     14  C   UNL     1      33.854 -20.616 -20.233  0.00  0.00    +0.059 C 
ATOM     15  C   UNL     1      35.127 -20.931 -19.766  0.00  0.00    +0.059 C 
ATOM     16  C   UNL     1      33.623 -19.760 -21.311  0.00  0.00    +0.019 C 
ATOM     17  C   UNL     1      36.248 -20.369 -20.399  0.00  0.00    +0.016 C 
ATOM     18  C   UNL     1      34.750 -19.209 -21.930  0.00  0.00    +0.073 C 
ATOM     19  C   UNL     1      36.040 -19.507 -21.483  0.00  0.00    +0.005 C 
ATOM     20  H   UNL     1      32.024 -21.322 -19.464  0.00  0.00    +0.148 HD
ATOM     21  H   UNL     1      35.805 -22.173 -18.182  0.00  0.00    +0.148 HD
BRANCH  18  25
ATOM     22  F   UNL     1      33.577 -18.669 -23.942  0.00  0.00    -0.166 F 
ATOM     23  F   UNL     1      34.249 -17.008 -22.721  0.00  0.00    -0.166 F 
ATOM     24  F   UNL     1      35.693 -18.176 -23.852  0.00  0.00    -0.166 F 
ATOM     25  C   UNL     1      34.569 -18.284 -23.087  0.00  0.00    +0.419 C 
ENDBRANCH  18  25
ENDBRANCH   3  13
BRANCH   9  26
ATOM     26  O   UNL     1      34.206 -25.125 -11.854  0.00  0.00    -0.454 OA
BRANCH  26  30
ATOM     27  O   UNL     1      39.642 -26.408 -14.852  0.00  0.00    -0.275 OA
ATOM     28  N   UNL     1      38.793 -24.932 -13.311  0.00  0.00    -0.270 N 
ATOM     29  N   UNL     1      37.996 -23.436 -11.661  0.00  0.00    -0.229 NA
ATOM     30  C   UNL     1      35.461 -24.597 -11.789  0.00  0.00    +0.146 C 
ATOM     31  C   UNL     1      36.494 -25.084 -12.593  0.00  0.00    +0.045 C 
ATOM     32  C   UNL     1      36.253 -26.150 -13.617  0.00  0.00    +0.042 C 
ATOM     33  C   UNL     1      35.702 -23.546 -10.912  0.00  0.00    +0.058 C 
ATOM     34  C   UNL     1      37.743 -24.475 -12.492  0.00  0.00    +0.133 C 
ATOM     35  C   UNL     1      37.521 -26.950 -13.873  0.00  0.00    +0.090 C 
ATOM     36  C   UNL     1      38.734 -26.068 -14.093  0.00  0.00    +0.227 C 
ATOM     37  C   UNL     1      36.974 -23.003 -10.890  0.00  0.00    +0.103 C 
ATOM     38  H   UNL     1      39.626 -24.407 -13.327  0.00  0.00    +0.156 HD
ENDBRANCH  26  30
ENDBRANCH   9  26
TORSDOF 4
ENDMDL
MODEL 7
REMARK VINA RESULT:     -12.1      2.633      4.559
REMARK  Name = 89670174
REMARK  4 active torsions:
REMARK  status: ('A' for Active; 'I' for Inactive)
REMARK    1  A    between atoms: C_3  and  C_13
REMARK    2  A    between atoms: C_9  and  O_26
REMARK    3  A    between atoms: C_18  and  C_25
REMARK    4  A    between atoms: O_26  and  C_30
REMARK                            x       y       z     vdW  Elec       q    Type
REMARK                         _______ _______ _______ _____ _____    ______ ____
ROOT
ATOM      1  O   UNL     1      32.899 -22.066 -19.602  0.00  0.00    -0.479 OA
ATOM      2  C   UNL     1      35.221 -21.857 -18.864  0.00  0.00    +0.072 C 
ATOM      3  C   UNL     1      34.454 -22.017 -17.560  0.00  0.00    +0.085 C 
ATOM      4  C   UNL     1      33.963 -22.716 -18.809  0.00  0.00    +0.174 C 
ATOM      5  C   UNL     1      34.834 -20.804 -19.836  0.00  0.00    +0.018 C 
ATOM      6  C   UNL     1      33.500 -20.985 -20.227  0.00  0.00    +0.135 C 
ATOM      7  C   UNL     1      35.562 -19.750 -20.367  0.00  0.00    +0.036 C 
ATOM      8  C   UNL     1      32.861 -20.151 -21.123  0.00  0.00    +0.040 C 
ATOM      9  C   UNL     1      34.937 -18.893 -21.279  0.00  0.00    +0.145 C 
ATOM     10  C   UNL     1      33.597 -19.092 -21.654  0.00  0.00    +0.041 C 
ENDROOT
BRANCH   3  13
ATOM     11  N   UNL     1      36.362 -22.725 -16.032  0.00  0.00    -0.318 N 
ATOM     12  N   UNL     1      34.391 -23.703 -15.720  0.00  0.00    -0.318 N 
ATOM     13  C   UNL     1      35.058 -22.823 -16.432  0.00  0.00    +0.148 C 
ATOM     14  C   UNL     1      36.548 -23.600 -14.993  0.00  0.00    +0.059 C 
ATOM     15  C   UNL     1      35.305 -24.198 -14.816  0.00  0.00    +0.059 C 
ATOM     16  C   UNL     1      37.666 -23.909 -14.215  0.00  0.00    +0.019 C 
ATOM     17  C   UNL     1      35.146 -25.165 -13.810  0.00  0.00    +0.016 C 
ATOM     18  C   UNL     1      37.490 -24.874 -13.217  0.00  0.00    +0.073 C 
ATOM     19  C   UNL     1      36.253 -25.491 -13.017  0.00  0.00    +0.005 C 
ATOM     20  H   UNL     1      37.045 -22.132 -16.421  0.00  0.00    +0.148 HD
ATOM     21  H   UNL     1      33.444 -23.955 -15.812  0.00  0.00    +0.148 HD
BRANCH  18  25
ATOM     22  F   UNL     1      39.781 -25.539 -13.052  0.00  0.00    -0.166 F 
ATOM     23  F   UNL     1      39.011 -24.265 -11.475  0.00  0.00    -0.166 F 
ATOM     24  F   UNL     1      38.393 -26.347 -11.585  0.00  0.00    -0.166 F 
ATOM     25  C   UNL     1      38.647 -25.246 -12.350  0.00  0.00    +0.419 C 
ENDBRANCH  18  25
ENDBRANCH   3  13
BRANCH   9  26
ATOM     26  O   UNL     1      35.645 -17.834 -21.819  0.00  0.00    -0.454 OA
BRANCH  26  30
ATOM     27  O   UNL     1      32.773 -12.184 -21.892  0.00  0.00    -0.275 OA
ATOM     28  N   UNL     1      33.364 -13.872 -23.333  0.00  0.00    -0.270 N 
ATOM     29  N   UNL     1      33.876 -15.613 -24.851  0.00  0.00    -0.229 NA
ATOM     30  C   UNL     1      35.043 -17.101 -22.796  0.00  0.00    +0.146 C 
ATOM     31  C   UNL     1      34.484 -15.851 -22.523  0.00  0.00    +0.045 C 
ATOM     32  C   UNL     1      34.593 -15.224 -21.167  0.00  0.00    +0.042 C 
ATOM     33  C   UNL     1      35.000 -17.611 -24.089  0.00  0.00    +0.058 C 
ATOM     34  C   UNL     1      33.910 -15.146 -23.580  0.00  0.00    +0.133 C 
ATOM     35  C   UNL     1      33.432 -14.273 -20.917  0.00  0.00    +0.090 C 
ATOM     36  C   UNL     1      33.190 -13.328 -22.076  0.00  0.00    +0.227 C 
ATOM     37  C   UNL     1      34.414 -16.833 -25.071  0.00  0.00    +0.103 C 
ATOM     38  H   UNL     1      33.087 -13.332 -24.109  0.00  0.00    +0.156 HD
ENDBRANCH  26  30
ENDBRANCH   9  26
TORSDOF 4
ENDMDL
MODEL 8
REMARK VINA RESULT:     -11.6      6.156     11.595
REMARK  Name = 89670174
REMARK  4 active torsions:
REMARK  status: ('A' for Active; 'I' for Inactive)
REMARK    1  A    between atoms: C_3  and  C_13
REMARK    2  A    between atoms: C_9  and  O_26
REMARK    3  A    between atoms: C_18  and  C_25
REMARK    4  A    between atoms: O_26  and  C_30
REMARK                            x       y       z     vdW  Elec       q    Type
REMARK                         _______ _______ _______ _____ _____    ______ ____
ROOT
ATOM      1  O   UNL     1      33.728 -15.965 -25.312  0.00  0.00    -0.479 OA
ATOM      2  C   UNL     1      33.661 -14.984 -23.074  0.00  0.00    +0.072 C 
ATOM      3  C   UNL     1      34.319 -13.897 -23.911  0.00  0.00    +0.085 C 
ATOM      4  C   UNL     1      33.273 -14.794 -24.536  0.00  0.00    +0.174 C 
ATOM      5  C   UNL     1      34.207 -16.365 -23.076  0.00  0.00    +0.018 C 
ATOM      6  C   UNL     1      34.209 -16.872 -24.382  0.00  0.00    +0.135 C 
ATOM      7  C   UNL     1      34.676 -17.154 -22.037  0.00  0.00    +0.036 C 
ATOM      8  C   UNL     1      34.668 -18.137 -24.694  0.00  0.00    +0.040 C 
ATOM      9  C   UNL     1      35.143 -18.441 -22.328  0.00  0.00    +0.145 C 
ATOM     10  C   UNL     1      35.138 -18.928 -23.646  0.00  0.00    +0.041 C 
ENDROOT
BRANCH   3  13
ATOM     11  N   UNL     1      34.715 -11.394 -24.139  0.00  0.00    -0.318 N 
ATOM     12  N   UNL     1      33.003 -12.044 -22.879  0.00  0.00    -0.318 N 
ATOM     13  C   UNL     1      34.000 -12.445 -23.634  0.00  0.00    +0.148 C 
ATOM     14  C   UNL     1      34.139 -10.237 -23.678  0.00  0.00    +0.059 C 
ATOM     15  C   UNL     1      33.073 -10.669 -22.894  0.00  0.00    +0.059 C 
ATOM     16  C   UNL     1      34.451  -8.891 -23.873  0.00  0.00    +0.019 C 
ATOM     17  C   UNL     1      32.259  -9.716 -22.260  0.00  0.00    +0.016 C 
ATOM     18  C   UNL     1      33.630  -7.955 -23.235  0.00  0.00    +0.073 C 
ATOM     19  C   UNL     1      32.553  -8.359 -22.443  0.00  0.00    +0.005 C 
ATOM     20  H   UNL     1      35.502 -11.456 -24.727  0.00  0.00    +0.148 HD
ATOM     21  H   UNL     1      32.347 -12.604 -22.405  0.00  0.00    +0.148 HD
BRANCH  18  25
ATOM     22  F   UNL     1      33.410  -5.983 -24.568  0.00  0.00    -0.166 F 
ATOM     23  F   UNL     1      33.390  -5.721 -22.416  0.00  0.00    -0.166 F 
ATOM     24  F   UNL     1      35.246  -6.224 -23.429  0.00  0.00    -0.166 F 
ATOM     25  C   UNL     1      33.911  -6.500 -23.408  0.00  0.00    +0.419 C 
ENDBRANCH  18  25
ENDBRANCH   3  13
BRANCH   9  26
ATOM     26  O   UNL     1      35.617 -19.244 -21.305  0.00  0.00    -0.454 OA
BRANCH  26  30
ATOM     27  O   UNL     1      36.034 -23.054 -16.258  0.00  0.00    -0.275 OA
ATOM     28  N   UNL     1      34.460 -22.248 -17.723  0.00  0.00    -0.270 N 
ATOM     29  N   UNL     1      32.809 -21.513 -19.250  0.00  0.00    -0.229 NA
ATOM     30  C   UNL     1      34.714 -20.010 -20.632  0.00  0.00    +0.146 C 
ATOM     31  C   UNL     1      35.092 -20.763 -19.519  0.00  0.00    +0.045 C 
ATOM     32  C   UNL     1      36.483 -20.702 -18.966  0.00  0.00    +0.042 C 
ATOM     33  C   UNL     1      33.392 -20.024 -21.061  0.00  0.00    +0.058 C 
ATOM     34  C   UNL     1      34.107 -21.500 -18.863  0.00  0.00    +0.133 C 
ATOM     35  C   UNL     1      36.839 -21.997 -18.253  0.00  0.00    +0.090 C 
ATOM     36  C   UNL     1      35.756 -22.454 -17.296  0.00  0.00    +0.227 C 
ATOM     37  C   UNL     1      32.487 -20.782 -20.340  0.00  0.00    +0.103 C 
ATOM     38  H   UNL     1      33.733 -22.650 -17.194  0.00  0.00    +0.156 HD
ENDBRANCH  26  30
ENDBRANCH   9  26
TORSDOF 4
ENDMDL
MODEL 9
REMARK VINA RESULT:     -11.6      4.933      8.506
REMARK  Name = 89670174
REMARK  4 active torsions:
REMARK  status: ('A' for Active; 'I' for Inactive)
REMARK    1  A    between atoms: C_3  and  C_13
REMARK    2  A    between atoms: C_9  and  O_26
REMARK    3  A    between atoms: C_18  and  C_25
REMARK    4  A    between atoms: O_26  and  C_30
REMARK                            x       y       z     vdW  Elec       q    Type
REMARK                         _______ _______ _______ _____ _____    ______ ____
ROOT
ATOM      1  O   UNL     1      31.297 -10.593 -21.079  0.00  0.00    -0.479 OA
ATOM      2  C   UNL     1      32.824 -11.048 -22.933  0.00  0.00    +0.072 C 
ATOM      3  C   UNL     1      33.185 -12.118 -21.915  0.00  0.00    +0.085 C 
ATOM      4  C   UNL     1      31.754 -11.635 -22.020  0.00  0.00    +0.174 C 
ATOM      5  C   UNL     1      32.811  -9.615 -22.543  0.00  0.00    +0.018 C 
ATOM      6  C   UNL     1      31.912  -9.420 -21.486  0.00  0.00    +0.135 C 
ATOM      7  C   UNL     1      33.515  -8.532 -23.047  0.00  0.00    +0.036 C 
ATOM      8  C   UNL     1      31.692  -8.185 -20.907  0.00  0.00    +0.040 C 
ATOM      9  C   UNL     1      33.306  -7.271 -22.479  0.00  0.00    +0.145 C 
ATOM     10  C   UNL     1      32.401  -7.099 -21.417  0.00  0.00    +0.041 C 
ENDROOT
BRANCH   3  13
ATOM     11  N   UNL     1      34.202 -14.432 -21.621  0.00  0.00    -0.318 N 
ATOM     12  N   UNL     1      33.277 -13.969 -23.588  0.00  0.00    -0.318 N 
ATOM     13  C   UNL     1      33.549 -13.508 -22.389  0.00  0.00    +0.148 C 
ATOM     14  C   UNL     1      34.360 -15.566 -22.377  0.00  0.00    +0.059 C 
ATOM     15  C   UNL     1      33.775 -15.252 -23.600  0.00  0.00    +0.059 C 
ATOM     16  C   UNL     1      34.948 -16.802 -22.103  0.00  0.00    +0.019 C 
ATOM     17  C   UNL     1      33.765 -16.216 -24.622  0.00  0.00    +0.016 C 
ATOM     18  C   UNL     1      34.931 -17.749 -23.132  0.00  0.00    +0.073 C 
ATOM     19  C   UNL     1      34.350 -17.463 -24.370  0.00  0.00    +0.005 C 
ATOM     20  H   UNL     1      34.504 -14.307 -20.693  0.00  0.00    +0.148 HD
ATOM     21  H   UNL     1      32.815 -13.499 -24.321  0.00  0.00    +0.148 HD
BRANCH  18  25
ATOM     22  F   UNL     1      35.178 -19.656 -21.711  0.00  0.00    -0.166 F 
ATOM     23  F   UNL     1      35.211 -20.014 -23.849  0.00  0.00    -0.166 F 
ATOM     24  F   UNL     1      36.904 -19.050 -22.886  0.00  0.00    -0.166 F 
ATOM     25  C   UNL     1      35.541 -19.091 -22.900  0.00  0.00    +0.419 C 
ENDBRANCH  18  25
ENDBRANCH   3  13
BRANCH   9  26
ATOM     26  O   UNL     1      34.001  -6.178 -22.967  0.00  0.00    -0.454 OA
BRANCH  26  30
ATOM     27  O   UNL     1      35.223  -4.053 -28.812  0.00  0.00    -0.275 OA
ATOM     28  N   UNL     1      33.597  -3.910 -27.197  0.00  0.00    -0.270 N 
ATOM     29  N   UNL     1      31.927  -3.661 -25.540  0.00  0.00    -0.229 NA
ATOM     30  C   UNL     1      33.345  -5.338 -23.816  0.00  0.00    +0.146 C 
ATOM     31  C   UNL     1      33.855  -5.045 -25.082  0.00  0.00    +0.045 C 
ATOM     32  C   UNL     1      35.101  -5.699 -25.595  0.00  0.00    +0.042 C 
ATOM     33  C   UNL     1      32.138  -4.780 -23.409  0.00  0.00    +0.058 C 
ATOM     34  C   UNL     1      33.114  -4.200 -25.906  0.00  0.00    +0.133 C 
ATOM     35  C   UNL     1      35.800  -4.808 -26.610  0.00  0.00    +0.090 C 
ATOM     36  C   UNL     1      34.851  -4.258 -27.656  0.00  0.00    +0.227 C 
ATOM     37  C   UNL     1      31.474  -3.959 -24.302  0.00  0.00    +0.103 C 
ATOM     38  H   UNL     1      33.001  -3.426 -27.813  0.00  0.00    +0.156 HD
ENDBRANCH  26  30
ENDBRANCH   9  26
TORSDOF 4
ENDMDL
