MODEL 1
REMARK VINA RESULT:     -11.7      0.000      0.000
REMARK  Name = 24832041
REMARK  6 active torsions:
REMARK  status: ('A' for Active; 'I' for Inactive)
REMARK    1  A    between atoms: C_1  and  C_18
REMARK    2  A    between atoms: C_4  and  C_7
REMARK    3  A    between atoms: C_10  and  C_15
REMARK    4  A    between atoms: C_18  and  N_19
REMARK    5  A    between atoms: C_18  and  C_23
REMARK    6  A    between atoms: C_23  and  C_26
REMARK                            x       y       z     vdW  Elec       q    Type
REMARK                         _______ _______ _______ _____ _____    ______ ____
ROOT
ATOM      1  C   UNL     1      34.558 -19.836 -21.311  0.00  0.00    -0.042 C 
ATOM      2  C   UNL     1      33.382 -20.253 -20.689  0.00  0.00    -0.006 C 
ATOM      3  C   UNL     1      35.795 -20.189 -20.773  0.00  0.00    -0.006 C 
ATOM      4  C   UNL     1      34.680 -21.377 -18.988  0.00  0.00    -0.000 C 
ATOM      5  C   UNL     1      33.442 -21.024 -19.527  0.00  0.00    -0.000 C 
ATOM      6  C   UNL     1      35.857 -20.959 -19.611  0.00  0.00    -0.000 C 
ENDROOT
BRANCH   4   7
ATOM      7  C   UNL     1      34.743 -22.176 -17.785  0.00  0.00    +0.000 C 
ATOM      8  C   UNL     1      35.923 -22.227 -17.042  0.00  0.00    +0.005 C 
ATOM      9  C   UNL     1      33.624 -22.895 -17.366  0.00  0.00    +0.000 C 
ATOM     10  C   UNL     1      35.984 -22.998 -15.881  0.00  0.00    +0.053 C 
ATOM     11  C   UNL     1      33.685 -23.667 -16.205  0.00  0.00    +0.000 C 
ATOM     12  C   UNL     1      34.865 -23.718 -15.463  0.00  0.00    +0.005 C 
BRANCH  10  15
ATOM     13  O   UNL     1      37.208 -22.897 -13.872  0.00  0.00    -0.270 OA
ATOM     14  N   UNL     1      38.400 -23.298 -15.789  0.00  0.00    -0.325 N 
ATOM     15  C   UNL     1      37.213 -23.051 -15.106  0.00  0.00    +0.243 C 
ATOM     16  H   UNL     1      39.252 -23.340 -15.297  0.00  0.00    +0.145 HD
ATOM     17  H   UNL     1      38.388 -23.432 -16.764  0.00  0.00    +0.145 HD
ENDBRANCH  10  15
ENDBRANCH   4   7
BRANCH   1  18
ATOM     18  C   UNL     1      34.494 -19.013 -22.553  0.00  0.00    -0.038 C 
BRANCH  18  19
ATOM     19  N   UNL     1      34.764 -19.816 -23.765  0.00  0.00    +0.384 N 
ATOM     20  H   UNL     1      34.518 -20.791 -23.589  0.00  0.00    -0.089 HD
ATOM     21  H   UNL     1      35.755 -19.753 -24.000  0.00  0.00    -0.089 HD
ATOM     22  H   UNL     1      34.207 -19.461 -24.541  0.00  0.00    -0.089 HD
ENDBRANCH  18  19
BRANCH  18  23
ATOM     23  C   UNL     1      35.458 -17.792 -22.561  0.00  0.00    +0.011 C 
BRANCH  23  26
ATOM     24  F   UNL     1      34.813 -15.599 -20.882  0.00  0.00    -0.205 F 
ATOM     25  F   UNL     1      33.565 -15.121 -26.186  0.00  0.00    -0.204 F 
ATOM     26  C   UNL     1      34.799 -16.529 -23.066  0.00  0.00    +0.006 C 
ATOM     27  C   UNL     1      34.510 -15.489 -22.183  0.00  0.00    +0.136 C 
ATOM     28  C   UNL     1      34.481 -16.405 -24.419  0.00  0.00    +0.028 C 
ATOM     29  C   UNL     1      33.872 -15.241 -24.888  0.00  0.00    +0.140 C 
ATOM     30  C   UNL     1      33.901 -14.325 -22.653  0.00  0.00    +0.032 C 
ATOM     31  C   UNL     1      33.582 -14.200 -24.004  0.00  0.00    +0.032 C 
ENDBRANCH  23  26
ENDBRANCH  18  23
ENDBRANCH   1  18
TORSDOF 6
ENDMDL
MODEL 2
REMARK VINA RESULT:     -11.7      0.884      1.820
REMARK  Name = 24832041
REMARK  6 active torsions:
REMARK  status: ('A' for Active; 'I' for Inactive)
REMARK    1  A    between atoms: C_1  and  C_18
REMARK    2  A    between atoms: C_4  and  C_7
REMARK    3  A    between atoms: C_10  and  C_15
REMARK    4  A    between atoms: C_18  and  N_19
REMARK    5  A    between atoms: C_18  and  C_23
REMARK    6  A    between atoms: C_23  and  C_26
REMARK                            x       y       z     vdW  Elec       q    Type
REMARK                         _______ _______ _______ _____ _____    ______ ____
ROOT
ATOM      1  C   UNL     1      34.530 -19.862 -21.243  0.00  0.00    -0.042 C 
ATOM      2  C   UNL     1      33.311 -20.236 -20.680  0.00  0.00    -0.006 C 
ATOM      3  C   UNL     1      35.726 -20.285 -20.662  0.00  0.00    -0.006 C 
ATOM      4  C   UNL     1      34.481 -21.457 -18.954  0.00  0.00    -0.000 C 
ATOM      5  C   UNL     1      33.286 -21.033 -19.536  0.00  0.00    -0.000 C 
ATOM      6  C   UNL     1      35.701 -21.082 -19.518  0.00  0.00    -0.000 C 
ENDROOT
BRANCH   4   7
ATOM      7  C   UNL     1      34.455 -22.283 -17.768  0.00  0.00    +0.000 C 
ATOM      8  C   UNL     1      35.617 -22.462 -17.017  0.00  0.00    +0.005 C 
ATOM      9  C   UNL     1      33.269 -22.903 -17.376  0.00  0.00    +0.000 C 
ATOM     10  C   UNL     1      35.592 -23.260 -15.873  0.00  0.00    +0.053 C 
ATOM     11  C   UNL     1      33.244 -23.701 -16.232  0.00  0.00    +0.000 C 
ATOM     12  C   UNL     1      34.405 -23.880 -15.480  0.00  0.00    +0.005 C 
BRANCH  10  15
ATOM     13  O   UNL     1      37.387 -22.482 -14.561  0.00  0.00    -0.270 OA
ATOM     14  N   UNL     1      37.279 -24.743 -14.928  0.00  0.00    -0.325 N 
ATOM     15  C   UNL     1      36.802 -23.445 -15.088  0.00  0.00    +0.243 C 
ATOM     16  H   UNL     1      38.096 -24.907 -14.404  0.00  0.00    +0.145 HD
ATOM     17  H   UNL     1      36.799 -25.498 -15.339  0.00  0.00    +0.145 HD
ENDBRANCH  10  15
ENDBRANCH   4   7
BRANCH   1  18
ATOM     18  C   UNL     1      34.558 -19.011 -22.467  0.00  0.00    -0.038 C 
BRANCH  18  19
ATOM     19  N   UNL     1      34.819 -19.803 -23.688  0.00  0.00    +0.384 N 
ATOM     20  H   UNL     1      34.280 -19.419 -24.465  0.00  0.00    -0.089 HD
ATOM     21  H   UNL     1      34.543 -20.773 -23.529  0.00  0.00    -0.089 HD
ATOM     22  H   UNL     1      35.813 -19.765 -23.913  0.00  0.00    -0.089 HD
ENDBRANCH  18  19
BRANCH  18  23
ATOM     23  C   UNL     1      35.595 -17.851 -22.416  0.00  0.00    +0.011 C 
BRANCH  23  26
ATOM     24  F   UNL     1      34.910 -16.735 -24.932  0.00  0.00    -0.205 F 
ATOM     25  F   UNL     1      33.827 -13.723 -20.497  0.00  0.00    -0.204 F 
ATOM     26  C   UNL     1      34.958 -16.489 -22.571  0.00  0.00    +0.006 C 
ATOM     27  C   UNL     1      34.647 -16.003 -23.841  0.00  0.00    +0.136 C 
ATOM     28  C   UNL     1      34.681 -15.720 -21.441  0.00  0.00    +0.028 C 
ATOM     29  C   UNL     1      34.093 -14.462 -21.581  0.00  0.00    +0.140 C 
ATOM     30  C   UNL     1      34.060 -14.745 -23.980  0.00  0.00    +0.032 C 
ATOM     31  C   UNL     1      33.782 -13.975 -22.851  0.00  0.00    +0.032 C 
ENDBRANCH  23  26
ENDBRANCH  18  23
ENDBRANCH   1  18
TORSDOF 6
ENDMDL
MODEL 3
REMARK VINA RESULT:     -11.4      2.233      2.679
REMARK  Name = 24832041
REMARK  6 active torsions:
REMARK  status: ('A' for Active; 'I' for Inactive)
REMARK    1  A    between atoms: C_1  and  C_18
REMARK    2  A    between atoms: C_4  and  C_7
REMARK    3  A    between atoms: C_10  and  C_15
REMARK    4  A    between atoms: C_18  and  N_19
REMARK    5  A    between atoms: C_18  and  C_23
REMARK    6  A    between atoms: C_23  and  C_26
REMARK                            x       y       z     vdW  Elec       q    Type
REMARK                         _______ _______ _______ _____ _____    ______ ____
ROOT
ATOM      1  C   UNL     1      34.280 -19.800 -21.411  0.00  0.00    -0.042 C 
ATOM      2  C   UNL     1      33.004 -20.088 -20.929  0.00  0.00    -0.006 C 
ATOM      3  C   UNL     1      35.404 -20.280 -20.739  0.00  0.00    -0.006 C 
ATOM      4  C   UNL     1      33.974 -21.337 -19.102  0.00  0.00    -0.000 C 
ATOM      5  C   UNL     1      32.850 -20.857 -19.775  0.00  0.00    -0.000 C 
ATOM      6  C   UNL     1      35.252 -21.048 -19.585  0.00  0.00    -0.000 C 
ENDROOT
BRANCH   4   7
ATOM      7  C   UNL     1      33.815 -22.134 -17.907  0.00  0.00    +0.000 C 
ATOM      8  C   UNL     1      32.538 -22.460 -17.451  0.00  0.00    +0.005 C 
ATOM      9  C   UNL     1      34.938 -22.577 -17.209  0.00  0.00    +0.000 C 
ATOM     10  C   UNL     1      32.384 -23.229 -16.297  0.00  0.00    +0.053 C 
ATOM     11  C   UNL     1      34.785 -23.346 -16.055  0.00  0.00    +0.000 C 
ATOM     12  C   UNL     1      33.508 -23.672 -15.599  0.00  0.00    +0.005 C 
BRANCH  10  15
ATOM     13  O   UNL     1      30.881 -24.417 -14.926  0.00  0.00    -0.270 OA
ATOM     14  N   UNL     1      29.971 -22.907 -16.392  0.00  0.00    -0.325 N 
ATOM     15  C   UNL     1      31.053 -23.572 -15.822  0.00  0.00    +0.243 C 
ATOM     16  H   UNL     1      29.055 -23.114 -16.097  0.00  0.00    +0.145 HD
ATOM     17  H   UNL     1      30.121 -22.231 -17.092  0.00  0.00    +0.145 HD
ENDBRANCH  10  15
ENDBRANCH   4   7
BRANCH   1  18
ATOM     18  C   UNL     1      34.445 -18.980 -22.645  0.00  0.00    -0.038 C 
BRANCH  18  19
ATOM     19  N   UNL     1      34.933 -19.785 -23.785  0.00  0.00    +0.384 N 
ATOM     20  H   UNL     1      34.148 -20.271 -24.220  0.00  0.00    -0.089 HD
ATOM     21  H   UNL     1      35.613 -20.469 -23.452  0.00  0.00    -0.089 HD
ATOM     22  H   UNL     1      35.374 -19.173 -24.471  0.00  0.00    -0.089 HD
ENDBRANCH  18  19
BRANCH  18  23
ATOM     23  C   UNL     1      35.395 -17.758 -22.479  0.00  0.00    +0.011 C 
BRANCH  23  26
ATOM     24  F   UNL     1      34.805 -15.568 -20.775  0.00  0.00    -0.205 F 
ATOM     25  F   UNL     1      33.621 -14.980 -26.083  0.00  0.00    -0.204 F 
ATOM     26  C   UNL     1      34.781 -16.468 -22.972  0.00  0.00    +0.006 C 
ATOM     27  C   UNL     1      34.517 -15.431 -22.077  0.00  0.00    +0.136 C 
ATOM     28  C   UNL     1      34.479 -16.316 -24.325  0.00  0.00    +0.028 C 
ATOM     29  C   UNL     1      33.912 -15.126 -24.784  0.00  0.00    +0.140 C 
ATOM     30  C   UNL     1      33.950 -14.242 -22.536  0.00  0.00    +0.032 C 
ATOM     31  C   UNL     1      33.648 -14.089 -23.889  0.00  0.00    +0.032 C 
ENDBRANCH  23  26
ENDBRANCH  18  23
ENDBRANCH   1  18
TORSDOF 6
ENDMDL
MODEL 4
REMARK VINA RESULT:     -11.3      2.418      3.405
REMARK  Name = 24832041
REMARK  6 active torsions:
REMARK  status: ('A' for Active; 'I' for Inactive)
REMARK    1  A    between atoms: C_1  and  C_18
REMARK    2  A    between atoms: C_4  and  C_7
REMARK    3  A    between atoms: C_10  and  C_15
REMARK    4  A    between atoms: C_18  and  N_19
REMARK    5  A    between atoms: C_18  and  C_23
REMARK    6  A    between atoms: C_23  and  C_26
REMARK                            x       y       z     vdW  Elec       q    Type
REMARK                         _______ _______ _______ _____ _____    ______ ____
ROOT
ATOM      1  C   UNL     1      34.325 -19.842 -21.345  0.00  0.00    -0.042 C 
ATOM      2  C   UNL     1      35.420 -20.346 -20.644  0.00  0.00    -0.006 C 
ATOM      3  C   UNL     1      33.030 -20.108 -20.899  0.00  0.00    -0.006 C 
ATOM      4  C   UNL     1      33.927 -21.383 -19.053  0.00  0.00    -0.000 C 
ATOM      5  C   UNL     1      35.222 -21.116 -19.498  0.00  0.00    -0.000 C 
ATOM      6  C   UNL     1      32.831 -20.879 -19.754  0.00  0.00    -0.000 C 
ENDROOT
BRANCH   4   7
ATOM      7  C   UNL     1      33.721 -22.181 -17.865  0.00  0.00    +0.000 C 
ATOM      8  C   UNL     1      32.426 -22.460 -17.427  0.00  0.00    +0.005 C 
ATOM      9  C   UNL     1      34.817 -22.672 -17.156  0.00  0.00    +0.000 C 
ATOM     10  C   UNL     1      32.227 -23.230 -16.281  0.00  0.00    +0.053 C 
ATOM     11  C   UNL     1      34.618 -23.442 -16.010  0.00  0.00    +0.000 C 
ATOM     12  C   UNL     1      33.324 -23.721 -15.572  0.00  0.00    +0.005 C 
BRANCH  10  15
ATOM     13  O   UNL     1      29.883 -23.034 -16.388  0.00  0.00    -0.270 OA
ATOM     14  N   UNL     1      30.733 -24.388 -14.745  0.00  0.00    -0.325 N 
ATOM     15  C   UNL     1      30.878 -23.523 -15.825  0.00  0.00    +0.243 C 
ATOM     16  H   UNL     1      29.834 -24.609 -14.408  0.00  0.00    +0.145 HD
ATOM     17  H   UNL     1      31.528 -24.779 -14.316  0.00  0.00    +0.145 HD
ENDBRANCH  10  15
ENDBRANCH   4   7
BRANCH   1  18
ATOM     18  C   UNL     1      34.536 -19.017 -22.569  0.00  0.00    -0.038 C 
BRANCH  18  19
ATOM     19  N   UNL     1      34.922 -19.843 -23.733  0.00  0.00    +0.384 N 
ATOM     20  H   UNL     1      34.193 -20.531 -23.920  0.00  0.00    -0.089 HD
ATOM     21  H   UNL     1      35.800 -20.324 -23.533  0.00  0.00    -0.089 HD
ATOM     22  H   UNL     1      35.042 -19.245 -24.550  0.00  0.00    -0.089 HD
ENDBRANCH  18  19
BRANCH  18  23
ATOM     23  C   UNL     1      35.598 -17.891 -22.405  0.00  0.00    +0.011 C 
BRANCH  23  26
ATOM     24  F   UNL     1      35.012 -16.643 -24.884  0.00  0.00    -0.205 F 
ATOM     25  F   UNL     1      33.892 -13.805 -20.344  0.00  0.00    -0.204 F 
ATOM     26  C   UNL     1      35.003 -16.506 -22.514  0.00  0.00    +0.006 C 
ATOM     27  C   UNL     1      34.740 -15.953 -23.767  0.00  0.00    +0.136 C 
ATOM     28  C   UNL     1      34.716 -15.781 -21.357  0.00  0.00    +0.028 C 
ATOM     29  C   UNL     1      34.167 -14.502 -21.454  0.00  0.00    +0.140 C 
ATOM     30  C   UNL     1      34.191 -14.674 -23.864  0.00  0.00    +0.032 C 
ATOM     31  C   UNL     1      33.904 -13.949 -22.708  0.00  0.00    +0.032 C 
ENDBRANCH  23  26
ENDBRANCH  18  23
ENDBRANCH   1  18
TORSDOF 6
ENDMDL
MODEL 5
REMARK VINA RESULT:     -11.2      4.462      9.512
REMARK  Name = 24832041
REMARK  6 active torsions:
REMARK  status: ('A' for Active; 'I' for Inactive)
REMARK    1  A    between atoms: C_1  and  C_18
REMARK    2  A    between atoms: C_4  and  C_7
REMARK    3  A    between atoms: C_10  and  C_15
REMARK    4  A    between atoms: C_18  and  N_19
REMARK    5  A    between atoms: C_18  and  C_23
REMARK    6  A    between atoms: C_23  and  C_26
REMARK                            x       y       z     vdW  Elec       q    Type
REMARK                         _______ _______ _______ _____ _____    ______ ____
ROOT
ATOM      1  C   UNL     1      33.926 -22.505 -17.923  0.00  0.00    -0.042 C 
ATOM      2  C   UNL     1      32.989 -21.826 -18.701  0.00  0.00    -0.006 C 
ATOM      3  C   UNL     1      35.290 -22.294 -18.133  0.00  0.00    -0.006 C 
ATOM      4  C   UNL     1      34.776 -20.726 -19.899  0.00  0.00    -0.000 C 
ATOM      5  C   UNL     1      33.413 -20.937 -19.689  0.00  0.00    -0.000 C 
ATOM      6  C   UNL     1      35.714 -21.406 -19.121  0.00  0.00    -0.000 C 
ENDROOT
BRANCH   4   7
ATOM      7  C   UNL     1      35.216 -19.805 -20.922  0.00  0.00    +0.000 C 
ATOM      8  C   UNL     1      34.377 -19.503 -21.996  0.00  0.00    +0.005 C 
ATOM      9  C   UNL     1      36.477 -19.217 -20.837  0.00  0.00    +0.000 C 
ATOM     10  C   UNL     1      34.801 -18.613 -22.984  0.00  0.00    +0.053 C 
ATOM     11  C   UNL     1      36.901 -18.328 -21.825  0.00  0.00    +0.000 C 
ATOM     12  C   UNL     1      36.064 -18.026 -22.898  0.00  0.00    +0.005 C 
BRANCH  10  15
ATOM     13  O   UNL     1      33.001 -19.056 -24.437  0.00  0.00    -0.270 OA
ATOM     14  N   UNL     1      34.150 -17.101 -24.779  0.00  0.00    -0.325 N 
ATOM     15  C   UNL     1      33.927 -18.296 -24.102  0.00  0.00    +0.243 C 
ATOM     16  H   UNL     1      33.579 -16.853 -25.542  0.00  0.00    +0.145 HD
ATOM     17  H   UNL     1      34.878 -16.502 -24.495  0.00  0.00    +0.145 HD
ENDBRANCH  10  15
ENDBRANCH   4   7
BRANCH   1  18
ATOM     18  C   UNL     1      33.474 -23.454 -16.867  0.00  0.00    -0.038 C 
BRANCH  18  19
ATOM     19  N   UNL     1      31.999 -23.548 -16.801  0.00  0.00    +0.384 N 
ATOM     20  H   UNL     1      31.703 -23.574 -15.825  0.00  0.00    -0.089 HD
ATOM     21  H   UNL     1      31.692 -24.400 -17.272  0.00  0.00    -0.089 HD
ATOM     22  H   UNL     1      31.585 -22.737 -17.260  0.00  0.00    -0.089 HD
ENDBRANCH  18  19
BRANCH  18  23
ATOM     23  C   UNL     1      33.998 -23.120 -15.440  0.00  0.00    +0.011 C 
BRANCH  23  26
ATOM     24  F   UNL     1      36.524 -21.861 -15.163  0.00  0.00    -0.205 F 
ATOM     25  F   UNL     1      36.340 -27.270 -14.370  0.00  0.00    -0.204 F 
ATOM     26  C   UNL     1      35.262 -23.871 -15.090  0.00  0.00    +0.006 C 
ATOM     27  C   UNL     1      36.471 -23.186 -14.969  0.00  0.00    +0.136 C 
ATOM     28  C   UNL     1      35.217 -25.250 -14.887  0.00  0.00    +0.028 C 
ATOM     29  C   UNL     1      36.382 -25.946 -14.564  0.00  0.00    +0.140 C 
ATOM     30  C   UNL     1      37.637 -23.882 -14.647  0.00  0.00    +0.032 C 
ATOM     31  C   UNL     1      37.593 -25.261 -14.443  0.00  0.00    +0.032 C 
ENDBRANCH  23  26
ENDBRANCH  18  23
ENDBRANCH   1  18
TORSDOF 6
ENDMDL
MODEL 6
REMARK VINA RESULT:     -11.2      4.505      9.912
REMARK  Name = 24832041
REMARK  6 active torsions:
REMARK  status: ('A' for Active; 'I' for Inactive)
REMARK    1  A    between atoms: C_1  and  C_18
REMARK    2  A    between atoms: C_4  and  C_7
REMARK    3  A    between atoms: C_10  and  C_15
REMARK    4  A    between atoms: C_18  and  N_19
REMARK    5  A    between atoms: C_18  and  C_23
REMARK    6  A    between atoms: C_23  and  C_26
REMARK                            x       y       z     vdW  Elec       q    Type
REMARK                         _______ _______ _______ _____ _____    ______ ____
ROOT
ATOM      1  C   UNL     1      35.316 -17.598 -21.607  0.00  0.00    -0.042 C 
ATOM      2  C   UNL     1      35.310 -17.712 -22.997  0.00  0.00    -0.006 C 
ATOM      3  C   UNL     1      34.914 -16.407 -21.004  0.00  0.00    -0.006 C 
ATOM      4  C   UNL     1      34.499 -15.443 -23.181  0.00  0.00    -0.000 C 
ATOM      5  C   UNL     1      34.902 -16.635 -23.784  0.00  0.00    -0.000 C 
ATOM      6  C   UNL     1      34.506 -15.330 -21.790  0.00  0.00    -0.000 C 
ENDROOT
BRANCH   4   7
ATOM      7  C   UNL     1      34.075 -14.327 -23.996  0.00  0.00    +0.000 C 
ATOM      8  C   UNL     1      34.234 -13.022 -23.530  0.00  0.00    +0.005 C 
ATOM      9  C   UNL     1      33.507 -14.555 -25.249  0.00  0.00    +0.000 C 
ATOM     10  C   UNL     1      33.825 -11.945 -24.316  0.00  0.00    +0.053 C 
ATOM     11  C   UNL     1      33.098 -13.478 -26.036  0.00  0.00    +0.000 C 
ATOM     12  C   UNL     1      33.256 -12.173 -25.570  0.00  0.00    +0.005 C 
BRANCH  10  15
ATOM     13  O   UNL     1      33.085  -9.999 -23.215  0.00  0.00    -0.270 OA
ATOM     14  N   UNL     1      35.214  -9.959 -24.066  0.00  0.00    -0.325 N 
ATOM     15  C   UNL     1      33.993 -10.584 -23.832  0.00  0.00    +0.243 C 
ATOM     16  H   UNL     1      35.364  -9.038 -23.754  0.00  0.00    +0.145 HD
ATOM     17  H   UNL     1      35.929 -10.439 -24.544  0.00  0.00    +0.145 HD
ENDBRANCH  10  15
ENDBRANCH   4   7
BRANCH   1  18
ATOM     18  C   UNL     1      35.752 -18.749 -20.766  0.00  0.00    -0.038 C 
BRANCH  18  19
ATOM     19  N   UNL     1      37.213 -18.967 -20.837  0.00  0.00    +0.384 N 
ATOM     20  H   UNL     1      37.408 -19.968 -20.852  0.00  0.00    -0.089 HD
ATOM     21  H   UNL     1      37.660 -18.546 -20.022  0.00  0.00    -0.089 HD
ATOM     22  H   UNL     1      37.580 -18.537 -21.686  0.00  0.00    -0.089 HD
ENDBRANCH  18  19
BRANCH  18  23
ATOM     23  C   UNL     1      35.049 -20.094 -21.109  0.00  0.00    +0.011 C 
BRANCH  23  26
ATOM     24  F   UNL     1      32.434 -20.897 -20.360  0.00  0.00    -0.205 F 
ATOM     25  F   UNL     1      36.551 -22.520 -17.145  0.00  0.00    -0.204 F 
ATOM     26  C   UNL     1      34.760 -20.933 -19.885  0.00  0.00    +0.006 C 
ATOM     27  C   UNL     1      33.448 -21.291 -19.577  0.00  0.00    +0.136 C 
ATOM     28  C   UNL     1      35.808 -21.348 -19.064  0.00  0.00    +0.028 C 
ATOM     29  C   UNL     1      35.545 -22.121 -17.934  0.00  0.00    +0.140 C 
ATOM     30  C   UNL     1      33.184 -22.065 -18.446  0.00  0.00    +0.032 C 
ATOM     31  C   UNL     1      34.232 -22.480 -17.625  0.00  0.00    +0.032 C 
ENDBRANCH  23  26
ENDBRANCH  18  23
ENDBRANCH   1  18
TORSDOF 6
ENDMDL
MODEL 7
REMARK VINA RESULT:     -11.2      4.573      9.790
REMARK  Name = 24832041
REMARK  6 active torsions:
REMARK  status: ('A' for Active; 'I' for Inactive)
REMARK    1  A    between atoms: C_1  and  C_18
REMARK    2  A    between atoms: C_4  and  C_7
REMARK    3  A    between atoms: C_10  and  C_15
REMARK    4  A    between atoms: C_18  and  N_19
REMARK    5  A    between atoms: C_18  and  C_23
REMARK    6  A    between atoms: C_23  and  C_26
REMARK                            x       y       z     vdW  Elec       q    Type
REMARK                         _______ _______ _______ _____ _____    ______ ____
ROOT
ATOM      1  C   UNL     1      35.130 -16.900 -21.829  0.00  0.00    -0.042 C 
ATOM      2  C   UNL     1      35.077 -16.443 -23.145  0.00  0.00    -0.006 C 
ATOM      3  C   UNL     1      34.719 -16.069 -20.786  0.00  0.00    -0.006 C 
ATOM      4  C   UNL     1      34.202 -14.325 -22.377  0.00  0.00    -0.000 C 
ATOM      5  C   UNL     1      34.614 -15.157 -23.420  0.00  0.00    -0.000 C 
ATOM      6  C   UNL     1      34.255 -14.783 -21.060  0.00  0.00    -0.000 C 
ENDROOT
BRANCH   4   7
ATOM      7  C   UNL     1      33.721 -12.992 -22.662  0.00  0.00    +0.000 C 
ATOM      8  C   UNL     1      32.794 -12.389 -21.811  0.00  0.00    +0.005 C 
ATOM      9  C   UNL     1      34.183 -12.310 -23.787  0.00  0.00    +0.000 C 
ATOM     10  C   UNL     1      32.330 -11.102 -22.086  0.00  0.00    +0.053 C 
ATOM     11  C   UNL     1      33.718 -11.023 -24.061  0.00  0.00    +0.000 C 
ATOM     12  C   UNL     1      32.792 -10.419 -23.212  0.00  0.00    +0.005 C 
BRANCH  10  15
ATOM     13  O   UNL     1      31.539  -9.318 -20.768  0.00  0.00    -0.270 OA
ATOM     14  N   UNL     1      30.227 -11.196 -20.860  0.00  0.00    -0.325 N 
ATOM     15  C   UNL     1      31.365 -10.472 -21.199  0.00  0.00    +0.243 C 
ATOM     16  H   UNL     1      29.552 -10.802 -20.261  0.00  0.00    +0.145 HD
ATOM     17  H   UNL     1      30.095 -12.104 -21.219  0.00  0.00    +0.145 HD
ENDBRANCH  10  15
ENDBRANCH   4   7
BRANCH   1  18
ATOM     18  C   UNL     1      35.624 -18.275 -21.535  0.00  0.00    -0.038 C 
BRANCH  18  19
ATOM     19  N   UNL     1      36.785 -18.638 -22.375  0.00  0.00    +0.384 N 
ATOM     20  H   UNL     1      36.459 -19.089 -23.231  0.00  0.00    -0.089 HD
ATOM     21  H   UNL     1      37.389 -19.282 -21.862  0.00  0.00    -0.089 HD
ATOM     22  H   UNL     1      37.310 -17.797 -22.613  0.00  0.00    -0.089 HD
ENDBRANCH  18  19
BRANCH  18  23
ATOM     23  C   UNL     1      34.549 -19.389 -21.694  0.00  0.00    +0.011 C 
BRANCH  23  26
ATOM     24  F   UNL     1      32.138 -20.389 -20.585  0.00  0.00    -0.205 F 
ATOM     25  F   UNL     1      36.813 -22.044 -18.277  0.00  0.00    -0.204 F 
ATOM     26  C   UNL     1      34.511 -20.338 -20.518  0.00  0.00    +0.006 C 
ATOM     27  C   UNL     1      33.288 -20.791 -20.024  0.00  0.00    +0.136 C 
ATOM     28  C   UNL     1      35.702 -20.762 -19.929  0.00  0.00    +0.028 C 
ATOM     29  C   UNL     1      35.670 -21.638 -18.844  0.00  0.00    +0.140 C 
ATOM     30  C   UNL     1      33.256 -21.667 -18.939  0.00  0.00    +0.032 C 
ATOM     31  C   UNL     1      34.446 -22.091 -18.349  0.00  0.00    +0.032 C 
ENDBRANCH  23  26
ENDBRANCH  18  23
ENDBRANCH   1  18
TORSDOF 6
ENDMDL
MODEL 8
REMARK VINA RESULT:     -10.8      4.941      9.838
REMARK  Name = 24832041
REMARK  6 active torsions:
REMARK  status: ('A' for Active; 'I' for Inactive)
REMARK    1  A    between atoms: C_1  and  C_18
REMARK    2  A    between atoms: C_4  and  C_7
REMARK    3  A    between atoms: C_10  and  C_15
REMARK    4  A    between atoms: C_18  and  N_19
REMARK    5  A    between atoms: C_18  and  C_23
REMARK    6  A    between atoms: C_23  and  C_26
REMARK                            x       y       z     vdW  Elec       q    Type
REMARK                         _______ _______ _______ _____ _____    ______ ____
ROOT
ATOM      1  C   UNL     1      33.749 -22.171 -18.439  0.00  0.00    -0.042 C 
ATOM      2  C   UNL     1      35.096 -21.949 -18.723  0.00  0.00    -0.006 C 
ATOM      3  C   UNL     1      32.765 -21.448 -19.114  0.00  0.00    -0.006 C 
ATOM      4  C   UNL     1      34.476 -20.279 -20.357  0.00  0.00    -0.000 C 
ATOM      5  C   UNL     1      35.460 -21.003 -19.682  0.00  0.00    -0.000 C 
ATOM      6  C   UNL     1      33.129 -20.503 -20.072  0.00  0.00    -0.000 C 
ENDROOT
BRANCH   4   7
ATOM      7  C   UNL     1      34.854 -19.300 -21.351  0.00  0.00    +0.000 C 
ATOM      8  C   UNL     1      34.075 -19.133 -22.496  0.00  0.00    +0.005 C 
ATOM      9  C   UNL     1      35.996 -18.522 -21.165  0.00  0.00    +0.000 C 
ATOM     10  C   UNL     1      34.438 -18.188 -23.456  0.00  0.00    +0.053 C 
ATOM     11  C   UNL     1      36.360 -17.577 -22.125  0.00  0.00    +0.000 C 
ATOM     12  C   UNL     1      35.582 -17.410 -23.270  0.00  0.00    +0.005 C 
BRANCH  10  15
ATOM     13  O   UNL     1      33.826 -17.070 -25.436  0.00  0.00    -0.270 OA
ATOM     14  N   UNL     1      32.623 -18.944 -24.893  0.00  0.00    -0.325 N 
ATOM     15  C   UNL     1      33.626 -18.011 -24.649  0.00  0.00    +0.243 C 
ATOM     16  H   UNL     1      32.052 -18.857 -25.691  0.00  0.00    +0.145 HD
ATOM     17  H   UNL     1      32.484 -19.693 -24.269  0.00  0.00    +0.145 HD
ENDBRANCH  10  15
ENDBRANCH   4   7
BRANCH   1  18
ATOM     18  C   UNL     1      33.360 -23.183 -17.415  0.00  0.00    -0.038 C 
BRANCH  18  19
ATOM     19  N   UNL     1      33.287 -24.546 -17.983  0.00  0.00    +0.384 N 
ATOM     20  H   UNL     1      32.715 -25.137 -17.378  0.00  0.00    -0.089 HD
ATOM     21  H   UNL     1      34.227 -24.938 -18.049  0.00  0.00    -0.089 HD
ATOM     22  H   UNL     1      32.869 -24.507 -18.912  0.00  0.00    -0.089 HD
ENDBRANCH  18  19
BRANCH  18  23
ATOM     23  C   UNL     1      32.007 -22.885 -16.705  0.00  0.00    +0.011 C 
BRANCH  23  26
ATOM     24  F   UNL     1      29.557 -24.058 -15.887  0.00  0.00    -0.205 F 
ATOM     25  F   UNL     1      33.838 -24.645 -12.534  0.00  0.00    -0.204 F 
ATOM     26  C   UNL     1      31.846 -23.647 -15.409  0.00  0.00    +0.006 C 
ATOM     27  C   UNL     1      30.611 -24.198 -15.070  0.00  0.00    +0.136 C 
ATOM     28  C   UNL     1      32.937 -23.798 -14.554  0.00  0.00    +0.028 C 
ATOM     29  C   UNL     1      32.792 -24.500 -13.357  0.00  0.00    +0.140 C 
ATOM     30  C   UNL     1      30.466 -24.900 -13.873  0.00  0.00    +0.032 C 
ATOM     31  C   UNL     1      31.556 -25.052 -13.017  0.00  0.00    +0.032 C 
ENDBRANCH  23  26
ENDBRANCH  18  23
ENDBRANCH   1  18
TORSDOF 6
ENDMDL
MODEL 9
REMARK VINA RESULT:     -10.8      4.343      9.461
REMARK  Name = 24832041
REMARK  6 active torsions:
REMARK  status: ('A' for Active; 'I' for Inactive)
REMARK    1  A    between atoms: C_1  and  C_18
REMARK    2  A    between atoms: C_4  and  C_7
REMARK    3  A    between atoms: C_10  and  C_15
REMARK    4  A    between atoms: C_18  and  N_19
REMARK    5  A    between atoms: C_18  and  C_23
REMARK    6  A    between atoms: C_23  and  C_26
REMARK                            x       y       z     vdW  Elec       q    Type
REMARK                         _______ _______ _______ _____ _____    ______ ____
ROOT
ATOM      1  C   UNL     1      34.558 -22.062 -18.370  0.00  0.00    -0.042 C 
ATOM      2  C   UNL     1      33.374 -21.632 -18.968  0.00  0.00    -0.006 C 
ATOM      3  C   UNL     1      35.786 -21.587 -18.832  0.00  0.00    -0.006 C 
ATOM      4  C   UNL     1      34.645 -20.252 -20.492  0.00  0.00    -0.000 C 
ATOM      5  C   UNL     1      33.417 -20.727 -20.029  0.00  0.00    -0.000 C 
ATOM      6  C   UNL     1      35.829 -20.683 -19.893  0.00  0.00    -0.000 C 
ENDROOT
BRANCH   4   7
ATOM      7  C   UNL     1      34.689 -19.314 -21.591  0.00  0.00    +0.000 C 
ATOM      8  C   UNL     1      34.723 -17.942 -21.336  0.00  0.00    +0.005 C 
ATOM      9  C   UNL     1      34.698 -19.779 -22.905  0.00  0.00    +0.000 C 
ATOM     10  C   UNL     1      34.765 -17.037 -22.397  0.00  0.00    +0.053 C 
ATOM     11  C   UNL     1      34.741 -18.874 -23.966  0.00  0.00    +0.000 C 
ATOM     12  C   UNL     1      34.774 -17.503 -23.712  0.00  0.00    +0.005 C 
BRANCH  10  15
ATOM     13  O   UNL     1      35.146 -14.795 -23.009  0.00  0.00    -0.270 OA
ATOM     14  N   UNL     1      34.424 -15.173 -20.866  0.00  0.00    -0.325 N 
ATOM     15  C   UNL     1      34.803 -15.607 -22.133  0.00  0.00    +0.243 C 
ATOM     16  H   UNL     1      34.437 -14.212 -20.650  0.00  0.00    +0.145 HD
ATOM     17  H   UNL     1      34.142 -15.825 -20.185  0.00  0.00    +0.145 HD
ENDBRANCH  10  15
ENDBRANCH   4   7
BRANCH   1  18
ATOM     18  C   UNL     1      34.513 -23.028 -17.235  0.00  0.00    -0.038 C 
BRANCH  18  19
ATOM     19  N   UNL     1      33.134 -23.475 -16.942  0.00  0.00    +0.384 N 
ATOM     20  H   UNL     1      32.683 -22.803 -16.320  0.00  0.00    -0.089 HD
ATOM     21  H   UNL     1      33.162 -24.389 -16.490  0.00  0.00    -0.089 HD
ATOM     22  H   UNL     1      32.605 -23.540 -17.811  0.00  0.00    -0.089 HD
ENDBRANCH  18  19
BRANCH  18  23
ATOM     23  C   UNL     1      35.135 -22.491 -15.913  0.00  0.00    +0.011 C 
BRANCH  23  26
ATOM     24  F   UNL     1      37.898 -21.896 -16.144  0.00  0.00    -0.205 F 
ATOM     25  F   UNL     1      36.560 -26.547 -13.595  0.00  0.00    -0.204 F 
ATOM     26  C   UNL     1      36.223 -23.390 -15.371  0.00  0.00    +0.006 C 
ATOM     27  C   UNL     1      37.563 -23.034 -15.520  0.00  0.00    +0.136 C 
ATOM     28  C   UNL     1      35.883 -24.576 -14.720  0.00  0.00    +0.028 C 
ATOM     29  C   UNL     1      36.885 -25.408 -14.219  0.00  0.00    +0.140 C 
ATOM     30  C   UNL     1      38.565 -23.866 -15.019  0.00  0.00    +0.032 C 
ATOM     31  C   UNL     1      38.226 -25.052 -14.368  0.00  0.00    +0.032 C 
ENDBRANCH  23  26
ENDBRANCH  18  23
ENDBRANCH   1  18
TORSDOF 6
ENDMDL
