MODEL 1
REMARK VINA RESULT:     -11.6      0.000      0.000
REMARK  Name = 54576693
REMARK  3 active torsions:
REMARK  status: ('A' for Active; 'I' for Inactive)
REMARK    1  A    between atoms: N_2  and  C_19
REMARK    2  A    between atoms: N_4  and  C_14
REMARK    3  A    between atoms: C_19  and  C_24
REMARK                            x       y       z     vdW  Elec       q    Type
REMARK                         _______ _______ _______ _____ _____    ______ ____
ROOT
ATOM      1  O   UNL     1      32.057 -22.404 -17.659  0.00  0.00    -0.252 OA
ATOM      2  N   UNL     1      35.136 -20.147 -20.866  0.00  0.00    +0.392 N 
ATOM      3  N   UNL     1      33.896 -21.925 -18.978  0.00  0.00    -0.268 N 
ATOM      4  N   UNL     1      34.114 -23.307 -17.076  0.00  0.00    -0.266 N 
ATOM      5  C   UNL     1      33.813 -19.834 -20.311  0.00  0.00    -0.055 C 
ATOM      6  C   UNL     1      35.953 -20.843 -19.863  0.00  0.00    -0.055 C 
ATOM      7  C   UNL     1      35.286 -22.142 -19.402  0.00  0.00    +0.072 C 
ATOM      8  C   UNL     1      33.094 -21.116 -19.897  0.00  0.00    +0.072 C 
ATOM      9  C   UNL     1      33.264 -22.535 -17.871  0.00  0.00    +0.308 C 
ATOM     10  H   UNL     1      35.017 -20.761 -21.672  0.00  0.00    -0.079 HD
ATOM     11  H   UNL     1      34.874 -23.732 -17.536  0.00  0.00    +0.156 HD
ENDROOT
BRANCH   4  14
ATOM     12 CL   UNL     1      36.709 -23.309 -15.442  0.00  0.00    -0.081 Cl
ATOM     13  N   UNL     1      32.552 -24.007 -13.808  0.00  0.00    -0.241 NA
ATOM     14  C   UNL     1      34.004 -23.547 -15.684  0.00  0.00    +0.082 C 
ATOM     15  C   UNL     1      35.112 -23.572 -14.843  0.00  0.00    +0.074 C 
ATOM     16  C   UNL     1      32.758 -23.769 -15.121  0.00  0.00    +0.114 C 
ATOM     17  C   UNL     1      34.940 -23.815 -13.484  0.00  0.00    +0.033 C 
ATOM     18  C   UNL     1      33.651 -24.024 -13.021  0.00  0.00    +0.100 C 
ENDBRANCH   4  14
BRANCH   2  19
ATOM     19  C   UNL     1      35.806 -18.928 -21.316  0.00  0.00    -0.050 C 
BRANCH  19  24
ATOM     20  F   UNL     1      32.441 -14.457 -25.122  0.00  0.00    -0.125 F 
ATOM     21  F   UNL     1      34.292 -14.583 -26.282  0.00  0.00    -0.125 F 
ATOM     22  O   UNL     1      34.351 -15.081 -24.070  0.00  0.00    -0.395 OA
ATOM     23  O   UNL     1      33.245 -16.502 -25.680  0.00  0.00    -0.395 OA
ATOM     24  C   UNL     1      35.108 -18.310 -22.499  0.00  0.00    -0.040 C 
ATOM     25  C   UNL     1      35.108 -16.922 -22.656  0.00  0.00    +0.034 C 
ATOM     26  C   UNL     1      34.465 -19.137 -23.436  0.00  0.00    -0.003 C 
ATOM     27  C   UNL     1      34.456 -16.402 -23.755  0.00  0.00    +0.181 C 
ATOM     28  C   UNL     1      33.825 -17.213 -24.674  0.00  0.00    +0.182 C 
ATOM     29  C   UNL     1      33.812 -18.586 -24.542  0.00  0.00    +0.040 C 
ATOM     30  C   UNL     1      33.585 -15.167 -25.282  0.00  0.00    +0.589 C 
ENDBRANCH  19  24
ENDBRANCH   2  19
TORSDOF 3
ENDMDL
MODEL 2
REMARK VINA RESULT:     -11.4      5.012      9.394
REMARK  Name = 54576693
REMARK  3 active torsions:
REMARK  status: ('A' for Active; 'I' for Inactive)
REMARK    1  A    between atoms: N_2  and  C_19
REMARK    2  A    between atoms: N_4  and  C_14
REMARK    3  A    between atoms: C_19  and  C_24
REMARK                            x       y       z     vdW  Elec       q    Type
REMARK                         _______ _______ _______ _____ _____    ______ ____
ROOT
ATOM      1  O   UNL     1      37.157 -21.392 -17.597  0.00  0.00    -0.252 OA
ATOM      2  N   UNL     1      33.608 -23.670 -14.936  0.00  0.00    +0.392 N 
ATOM      3  N   UNL     1      35.288 -22.629 -17.024  0.00  0.00    -0.268 N 
ATOM      4  N   UNL     1      35.459 -21.638 -19.160  0.00  0.00    -0.266 N 
ATOM      5  C   UNL     1      34.762 -22.823 -14.608  0.00  0.00    -0.055 C 
ATOM      6  C   UNL     1      33.020 -23.248 -16.213  0.00  0.00    -0.055 C 
ATOM      7  C   UNL     1      34.039 -23.330 -17.354  0.00  0.00    +0.072 C 
ATOM      8  C   UNL     1      35.827 -22.929 -15.696  0.00  0.00    +0.072 C 
ATOM      9  C   UNL     1      36.051 -21.838 -17.911  0.00  0.00    +0.308 C 
ATOM     10  H   UNL     1      33.926 -24.636 -15.027  0.00  0.00    -0.079 HD
ATOM     11  H   UNL     1      34.873 -22.359 -19.485  0.00  0.00    +0.156 HD
ENDROOT
BRANCH   4  14
ATOM     12 CL   UNL     1      32.908 -20.469 -20.398  0.00  0.00    -0.081 Cl
ATOM     13  N   UNL     1      37.109 -18.927 -21.042  0.00  0.00    -0.241 NA
ATOM     14  C   UNL     1      35.606 -20.514 -20.009  0.00  0.00    +0.082 C 
ATOM     15  C   UNL     1      34.521 -19.900 -20.627  0.00  0.00    +0.074 C 
ATOM     16  C   UNL     1      36.867 -19.993 -20.248  0.00  0.00    +0.114 C 
ATOM     17  C   UNL     1      34.729 -18.800 -21.453  0.00  0.00    +0.033 C 
ATOM     18  C   UNL     1      36.031 -18.356 -21.625  0.00  0.00    +0.100 C 
ENDBRANCH   4  14
BRANCH   2  19
ATOM     19  C   UNL     1      32.611 -23.616 -13.868  0.00  0.00    -0.050 C 
BRANCH  19  24
ATOM     20  F   UNL     1      26.306 -22.095 -15.799  0.00  0.00    -0.125 F 
ATOM     21  F   UNL     1      27.111 -22.762 -17.722  0.00  0.00    -0.125 F 
ATOM     22  O   UNL     1      28.542 -21.966 -16.153  0.00  0.00    -0.395 OA
ATOM     23  O   UNL     1      27.400 -24.078 -15.899  0.00  0.00    -0.395 OA
ATOM     24  C   UNL     1      31.211 -23.775 -14.401  0.00  0.00    -0.040 C 
ATOM     25  C   UNL     1      30.587 -22.700 -15.038  0.00  0.00    +0.034 C 
ATOM     26  C   UNL     1      30.547 -25.005 -14.253  0.00  0.00    -0.003 C 
ATOM     27  C   UNL     1      29.305 -22.893 -15.510  0.00  0.00    +0.181 C 
ATOM     28  C   UNL     1      28.653 -24.099 -15.365  0.00  0.00    +0.182 C 
ATOM     29  C   UNL     1      29.249 -25.175 -14.740  0.00  0.00    +0.040 C 
ATOM     30  C   UNL     1      27.350 -22.731 -16.387  0.00  0.00    +0.589 C 
ENDBRANCH  19  24
ENDBRANCH   2  19
TORSDOF 3
ENDMDL
MODEL 3
REMARK VINA RESULT:     -10.9      4.557      7.054
REMARK  Name = 54576693
REMARK  3 active torsions:
REMARK  status: ('A' for Active; 'I' for Inactive)
REMARK    1  A    between atoms: N_2  and  C_19
REMARK    2  A    between atoms: N_4  and  C_14
REMARK    3  A    between atoms: C_19  and  C_24
REMARK                            x       y       z     vdW  Elec       q    Type
REMARK                         _______ _______ _______ _____ _____    ______ ____
ROOT
ATOM      1  O   UNL     1      34.729 -19.103 -23.574  0.00  0.00    -0.252 OA
ATOM      2  N   UNL     1      33.772 -14.210 -23.624  0.00  0.00    +0.392 N 
ATOM      3  N   UNL     1      34.653 -16.869 -22.978  0.00  0.00    -0.268 N 
ATOM      4  N   UNL     1      34.982 -18.534 -21.338  0.00  0.00    -0.266 N 
ATOM      5  C   UNL     1      33.425 -15.339 -24.496  0.00  0.00    -0.055 C 
ATOM      6  C   UNL     1      33.821 -14.650 -22.224  0.00  0.00    -0.055 C 
ATOM      7  C   UNL     1      34.848 -15.769 -22.024  0.00  0.00    +0.072 C 
ATOM      8  C   UNL     1      34.465 -16.449 -24.368  0.00  0.00    +0.072 C 
ATOM      9  C   UNL     1      34.776 -18.246 -22.688  0.00  0.00    +0.308 C 
ATOM     10  H   UNL     1      34.694 -13.862 -23.889  0.00  0.00    -0.079 HD
ATOM     11  H   UNL     1      35.461 -17.852 -20.814  0.00  0.00    +0.156 HD
ENDROOT
BRANCH   4  14
ATOM     12 CL   UNL     1      37.179 -20.191 -19.982  0.00  0.00    -0.081 Cl
ATOM     13  N   UNL     1      32.756 -21.130 -19.950  0.00  0.00    -0.241 NA
ATOM     14  C   UNL     1      34.579 -19.698 -20.637  0.00  0.00    +0.082 C 
ATOM     15  C   UNL     1      35.486 -20.527 -19.985  0.00  0.00    +0.074 C 
ATOM     16  C   UNL     1      33.238 -20.041 -20.590  0.00  0.00    +0.114 C 
ATOM     17  C   UNL     1      35.029 -21.657 -19.315  0.00  0.00    +0.033 C 
ATOM     18  C   UNL     1      33.667 -21.911 -19.327  0.00  0.00    +0.100 C 
ENDBRANCH   4  14
BRANCH   2  19
ATOM     19  C   UNL     1      32.810 -13.121 -23.786  0.00  0.00    -0.050 C 
BRANCH  19  24
ATOM     20  F   UNL     1      33.817  -6.431 -23.613  0.00  0.00    -0.125 F 
ATOM     21  F   UNL     1      35.290  -7.048 -22.116  0.00  0.00    -0.125 F 
ATOM     22  O   UNL     1      33.505  -8.389 -22.511  0.00  0.00    -0.395 OA
ATOM     23  O   UNL     1      35.273  -8.091 -24.128  0.00  0.00    -0.395 OA
ATOM     24  C   UNL     1      33.492 -11.784 -23.905  0.00  0.00    -0.040 C 
ATOM     25  C   UNL     1      33.098 -10.729 -23.079  0.00  0.00    +0.034 C 
ATOM     26  C   UNL     1      34.522 -11.610 -24.847  0.00  0.00    -0.003 C 
ATOM     27  C   UNL     1      33.752  -9.523 -23.224  0.00  0.00    +0.181 C 
ATOM     28  C   UNL     1      34.762  -9.352 -24.147  0.00  0.00    +0.182 C 
ATOM     29  C   UNL     1      35.170 -10.379 -24.974  0.00  0.00    +0.040 C 
ATOM     30  C   UNL     1      34.471  -7.502 -23.096  0.00  0.00    +0.589 C 
ENDBRANCH  19  24
ENDBRANCH   2  19
TORSDOF 3
ENDMDL
MODEL 4
REMARK VINA RESULT:     -10.9      0.844      1.469
REMARK  Name = 54576693
REMARK  3 active torsions:
REMARK  status: ('A' for Active; 'I' for Inactive)
REMARK    1  A    between atoms: N_2  and  C_19
REMARK    2  A    between atoms: N_4  and  C_14
REMARK    3  A    between atoms: C_19  and  C_24
REMARK                            x       y       z     vdW  Elec       q    Type
REMARK                         _______ _______ _______ _____ _____    ______ ____
ROOT
ATOM      1  O   UNL     1      31.941 -22.065 -18.000  0.00  0.00    -0.252 OA
ATOM      2  N   UNL     1      35.543 -20.051 -20.799  0.00  0.00    +0.392 N 
ATOM      3  N   UNL     1      33.942 -21.745 -19.116  0.00  0.00    -0.268 N 
ATOM      4  N   UNL     1      33.824 -23.205 -17.265  0.00  0.00    -0.266 N 
ATOM      5  C   UNL     1      34.212 -19.615 -20.359  0.00  0.00    -0.055 C 
ATOM      6  C   UNL     1      36.178 -20.865 -19.754  0.00  0.00    -0.055 C 
ATOM      7  C   UNL     1      35.336 -22.098 -19.415  0.00  0.00    +0.072 C 
ATOM      8  C   UNL     1      33.324 -20.824 -20.071  0.00  0.00    +0.072 C 
ATOM      9  C   UNL     1      33.143 -22.319 -18.102  0.00  0.00    +0.308 C 
ATOM     10  H   UNL     1      35.440 -20.622 -21.639  0.00  0.00    -0.079 HD
ATOM     11  H   UNL     1      34.577 -23.695 -17.668  0.00  0.00    +0.156 HD
ENDROOT
BRANCH   4  14
ATOM     12 CL   UNL     1      36.228 -23.484 -15.381  0.00  0.00    -0.081 Cl
ATOM     13  N   UNL     1      31.881 -23.868 -14.198  0.00  0.00    -0.241 NA
ATOM     14  C   UNL     1      33.552 -23.478 -15.901  0.00  0.00    +0.082 C 
ATOM     15  C   UNL     1      34.562 -23.625 -14.955  0.00  0.00    +0.074 C 
ATOM     16  C   UNL     1      32.241 -23.608 -15.474  0.00  0.00    +0.114 C 
ATOM     17  C   UNL     1      34.232 -23.895 -13.631  0.00  0.00    +0.033 C 
ATOM     18  C   UNL     1      32.889 -24.005 -13.307  0.00  0.00    +0.100 C 
ENDBRANCH   4  14
BRANCH   2  19
ATOM     19  C   UNL     1      36.378 -18.897 -21.130  0.00  0.00    -0.050 C 
BRANCH  19  24
ATOM     20  F   UNL     1      34.153 -15.196 -26.339  0.00  0.00    -0.125 F 
ATOM     21  F   UNL     1      32.265 -16.126 -25.737  0.00  0.00    -0.125 F 
ATOM     22  O   UNL     1      34.212 -17.175 -25.233  0.00  0.00    -0.395 OA
ATOM     23  O   UNL     1      33.543 -15.119 -24.157  0.00  0.00    -0.395 OA
ATOM     24  C   UNL     1      35.617 -17.861 -21.913  0.00  0.00    -0.040 C 
ATOM     25  C   UNL     1      35.302 -18.099 -23.253  0.00  0.00    +0.034 C 
ATOM     26  C   UNL     1      35.227 -16.664 -21.286  0.00  0.00    -0.003 C 
ATOM     27  C   UNL     1      34.603 -17.120 -23.930  0.00  0.00    +0.181 C 
ATOM     28  C   UNL     1      34.221 -15.947 -23.316  0.00  0.00    +0.182 C 
ATOM     29  C   UNL     1      34.519 -15.689 -21.993  0.00  0.00    +0.040 C 
ATOM     30  C   UNL     1      33.548 -15.907 -25.355  0.00  0.00    +0.589 C 
ENDBRANCH  19  24
ENDBRANCH   2  19
TORSDOF 3
ENDMDL
MODEL 5
REMARK VINA RESULT:     -10.9      5.807     10.796
REMARK  Name = 54576693
REMARK  3 active torsions:
REMARK  status: ('A' for Active; 'I' for Inactive)
REMARK    1  A    between atoms: N_2  and  C_19
REMARK    2  A    between atoms: N_4  and  C_14
REMARK    3  A    between atoms: C_19  and  C_24
REMARK                            x       y       z     vdW  Elec       q    Type
REMARK                         _______ _______ _______ _____ _____    ______ ____
ROOT
ATOM      1  O   UNL     1      33.106 -12.849 -25.328  0.00  0.00    -0.252 OA
ATOM      2  N   UNL     1      34.843 -16.959 -23.102  0.00  0.00    +0.392 N 
ATOM      3  N   UNL     1      33.675 -14.404 -23.712  0.00  0.00    -0.268 N 
ATOM      4  N   UNL     1      33.409 -12.128 -23.143  0.00  0.00    -0.266 N 
ATOM      5  C   UNL     1      34.811 -16.469 -24.486  0.00  0.00    -0.055 C 
ATOM      6  C   UNL     1      35.004 -15.834 -22.172  0.00  0.00    -0.055 C 
ATOM      7  C   UNL     1      33.865 -14.820 -22.316  0.00  0.00    +0.072 C 
ATOM      8  C   UNL     1      33.647 -15.501 -24.681  0.00  0.00    +0.072 C 
ATOM      9  C   UNL     1      33.383 -13.093 -24.152  0.00  0.00    +0.308 C 
ATOM     10  H   UNL     1      33.958 -17.425 -22.899  0.00  0.00    -0.079 HD
ATOM     11  H   UNL     1      33.167 -12.435 -22.239  0.00  0.00    +0.156 HD
ENDROOT
BRANCH   4  14
ATOM     12 CL   UNL     1      31.534 -10.091 -21.824  0.00  0.00    -0.081 Cl
ATOM     13  N   UNL     1      35.280  -9.115 -24.159  0.00  0.00    -0.241 NA
ATOM     14  C   UNL     1      33.743 -10.758 -23.274  0.00  0.00    +0.082 C 
ATOM     15  C   UNL     1      32.968  -9.745 -22.719  0.00  0.00    +0.074 C 
ATOM     16  C   UNL     1      34.879 -10.392 -23.979  0.00  0.00    +0.114 C 
ATOM     17  C   UNL     1      33.348  -8.417 -22.884  0.00  0.00    +0.033 C 
ATOM     18  C   UNL     1      34.502  -8.157 -23.606  0.00  0.00    +0.100 C 
ENDBRANCH   4  14
BRANCH   2  19
ATOM     19  C   UNL     1      35.922 -17.930 -22.925  0.00  0.00    -0.050 C 
BRANCH  19  24
ATOM     20  F   UNL     1      32.518 -21.345 -18.177  0.00  0.00    -0.125 F 
ATOM     21  F   UNL     1      33.037 -23.008 -19.502  0.00  0.00    -0.125 F 
ATOM     22  O   UNL     1      32.914 -20.915 -20.368  0.00  0.00    -0.395 OA
ATOM     23  O   UNL     1      34.671 -21.578 -18.849  0.00  0.00    -0.395 OA
ATOM     24  C   UNL     1      35.621 -18.906 -21.819  0.00  0.00    -0.040 C 
ATOM     25  C   UNL     1      34.330 -19.422 -21.683  0.00  0.00    +0.034 C 
ATOM     26  C   UNL     1      36.644 -19.292 -20.935  0.00  0.00    -0.003 C 
ATOM     27  C   UNL     1      34.102 -20.314 -20.655  0.00  0.00    +0.181 C 
ATOM     28  C   UNL     1      35.105 -20.692 -19.788  0.00  0.00    +0.182 C 
ATOM     29  C   UNL     1      36.388 -20.198 -19.903  0.00  0.00    +0.040 C 
ATOM     30  C   UNL     1      33.294 -21.704 -19.230  0.00  0.00    +0.589 C 
ENDBRANCH  19  24
ENDBRANCH   2  19
TORSDOF 3
ENDMDL
MODEL 6
REMARK VINA RESULT:     -10.9      7.719     12.338
REMARK  Name = 54576693
REMARK  3 active torsions:
REMARK  status: ('A' for Active; 'I' for Inactive)
REMARK    1  A    between atoms: N_2  and  C_19
REMARK    2  A    between atoms: N_4  and  C_14
REMARK    3  A    between atoms: C_19  and  C_24
REMARK                            x       y       z     vdW  Elec       q    Type
REMARK                         _______ _______ _______ _____ _____    ______ ____
ROOT
ATOM      1  O   UNL     1      31.714  -9.467 -21.251  0.00  0.00    -0.252 OA
ATOM      2  N   UNL     1      33.569 -13.211 -23.973  0.00  0.00    +0.392 N 
ATOM      3  N   UNL     1      33.072 -10.703 -22.659  0.00  0.00    -0.268 N 
ATOM      4  N   UNL     1      33.070  -8.344 -22.764  0.00  0.00    -0.266 N 
ATOM      5  C   UNL     1      32.371 -13.033 -23.142  0.00  0.00    -0.055 C 
ATOM      6  C   UNL     1      33.912 -11.949 -24.640  0.00  0.00    -0.055 C 
ATOM      7  C   UNL     1      34.171 -10.831 -23.625  0.00  0.00    +0.072 C 
ATOM      8  C   UNL     1      32.616 -11.967 -22.077  0.00  0.00    +0.072 C 
ATOM      9  C   UNL     1      32.546  -9.489 -22.161  0.00  0.00    +0.308 C 
ATOM     10  H   UNL     1      34.347 -13.484 -23.372  0.00  0.00    -0.079 HD
ATOM     11  H   UNL     1      33.995  -8.409 -23.094  0.00  0.00    +0.156 HD
ENDROOT
BRANCH   4  14
ATOM     12 CL   UNL     1      34.587  -6.190 -24.334  0.00  0.00    -0.081 Cl
ATOM     13  N   UNL     1      30.448  -5.756 -22.567  0.00  0.00    -0.241 NA
ATOM     14  C   UNL     1      32.418  -7.101 -22.956  0.00  0.00    +0.082 C 
ATOM     15  C   UNL     1      33.008  -6.050 -23.651  0.00  0.00    +0.074 C 
ATOM     16  C   UNL     1      31.148  -6.904 -22.439  0.00  0.00    +0.114 C 
ATOM     17  C   UNL     1      32.318  -4.852 -23.804  0.00  0.00    +0.033 C 
ATOM     18  C   UNL     1      31.052  -4.757 -23.249  0.00  0.00    +0.100 C 
ENDBRANCH   4  14
BRANCH   2  19
ATOM     19  C   UNL     1      33.358 -14.272 -24.957  0.00  0.00    -0.050 C 
BRANCH  19  24
ATOM     20  F   UNL     1      37.051 -19.018 -21.856  0.00  0.00    -0.125 F 
ATOM     21  F   UNL     1      35.228 -19.149 -20.652  0.00  0.00    -0.125 F 
ATOM     22  O   UNL     1      35.692 -17.207 -21.728  0.00  0.00    -0.395 OA
ATOM     23  O   UNL     1      35.054 -19.213 -22.911  0.00  0.00    -0.395 OA
ATOM     24  C   UNL     1      33.796 -15.614 -24.436  0.00  0.00    -0.040 C 
ATOM     25  C   UNL     1      34.566 -15.689 -23.274  0.00  0.00    +0.034 C 
ATOM     26  C   UNL     1      33.424 -16.782 -25.125  0.00  0.00    -0.003 C 
ATOM     27  C   UNL     1      34.944 -16.941 -22.834  0.00  0.00    +0.181 C 
ATOM     28  C   UNL     1      34.580 -18.086 -23.510  0.00  0.00    +0.182 C 
ATOM     29  C   UNL     1      33.819 -18.039 -24.660  0.00  0.00    +0.040 C 
ATOM     30  C   UNL     1      35.749 -18.641 -21.796  0.00  0.00    +0.589 C 
ENDBRANCH  19  24
ENDBRANCH   2  19
TORSDOF 3
ENDMDL
MODEL 7
REMARK VINA RESULT:     -10.6      5.903     10.817
REMARK  Name = 54576693
REMARK  3 active torsions:
REMARK  status: ('A' for Active; 'I' for Inactive)
REMARK    1  A    between atoms: N_2  and  C_19
REMARK    2  A    between atoms: N_4  and  C_14
REMARK    3  A    between atoms: C_19  and  C_24
REMARK                            x       y       z     vdW  Elec       q    Type
REMARK                         _______ _______ _______ _____ _____    ______ ____
ROOT
ATOM      1  O   UNL     1      37.165 -19.666 -20.085  0.00  0.00    -0.252 OA
ATOM      2  N   UNL     1      34.573 -22.884 -17.293  0.00  0.00    +0.392 N 
ATOM      3  N   UNL     1      35.593 -21.222 -19.405  0.00  0.00    -0.268 N 
ATOM      4  N   UNL     1      35.148 -19.788 -21.227  0.00  0.00    -0.266 N 
ATOM      5  C   UNL     1      35.709 -21.987 -17.049  0.00  0.00    -0.055 C 
ATOM      6  C   UNL     1      33.653 -22.279 -18.264  0.00  0.00    -0.055 C 
ATOM      7  C   UNL     1      34.354 -21.989 -19.595  0.00  0.00    +0.072 C 
ATOM      8  C   UNL     1      36.470 -21.725 -18.346  0.00  0.00    +0.072 C 
ATOM      9  C   UNL     1      36.049 -20.171 -20.232  0.00  0.00    +0.308 C 
ATOM     10  H   UNL     1      34.925 -23.761 -17.680  0.00  0.00    -0.079 HD
ATOM     11  H   UNL     1      34.552 -20.493 -21.570  0.00  0.00    +0.156 HD
ENDROOT
BRANCH   4  14
ATOM     12 CL   UNL     1      34.599 -19.643 -24.241  0.00  0.00    -0.081 Cl
ATOM     13  N   UNL     1      34.970 -16.109 -21.446  0.00  0.00    -0.241 NA
ATOM     14  C   UNL     1      34.996 -18.501 -21.798  0.00  0.00    +0.082 C 
ATOM     15  C   UNL     1      34.745 -18.311 -23.153  0.00  0.00    +0.074 C 
ATOM     16  C   UNL     1      35.099 -17.376 -20.995  0.00  0.00    +0.114 C 
ATOM     17  C   UNL     1      34.607 -17.021 -23.655  0.00  0.00    +0.033 C 
ATOM     18  C   UNL     1      34.727 -15.964 -22.768  0.00  0.00    +0.100 C 
ENDBRANCH   4  14
BRANCH   2  19
ATOM     19  C   UNL     1      33.876 -23.183 -16.043  0.00  0.00    -0.050 C 
BRANCH  19  24
ATOM     20  F   UNL     1      38.582 -23.604 -11.199  0.00  0.00    -0.125 F 
ATOM     21  F   UNL     1      36.861 -24.371 -10.085  0.00  0.00    -0.125 F 
ATOM     22  O   UNL     1      36.497 -22.993 -11.849  0.00  0.00    -0.395 OA
ATOM     23  O   UNL     1      37.323 -25.246 -12.125  0.00  0.00    -0.395 OA
ATOM     24  C   UNL     1      34.803 -23.768 -15.011  0.00  0.00    -0.040 C 
ATOM     25  C   UNL     1      35.176 -23.004 -13.903  0.00  0.00    +0.034 C 
ATOM     26  C   UNL     1      35.284 -25.080 -15.172  0.00  0.00    -0.003 C 
ATOM     27  C   UNL     1      36.027 -23.582 -12.983  0.00  0.00    +0.181 C 
ATOM     28  C   UNL     1      36.499 -24.868 -13.141  0.00  0.00    +0.182 C 
ATOM     29  C   UNL     1      36.144 -25.643 -14.226  0.00  0.00    +0.040 C 
ATOM     30  C   UNL     1      37.309 -24.055 -11.325  0.00  0.00    +0.589 C 
ENDBRANCH  19  24
ENDBRANCH   2  19
TORSDOF 3
ENDMDL
MODEL 8
REMARK VINA RESULT:     -10.6      9.074     12.250
REMARK  Name = 54576693
REMARK  3 active torsions:
REMARK  status: ('A' for Active; 'I' for Inactive)
REMARK    1  A    between atoms: N_2  and  C_19
REMARK    2  A    between atoms: N_4  and  C_14
REMARK    3  A    between atoms: C_19  and  C_24
REMARK                            x       y       z     vdW  Elec       q    Type
REMARK                         _______ _______ _______ _____ _____    ______ ____
ROOT
ATOM      1  O   UNL     1      31.859 -13.440 -20.368  0.00  0.00    -0.252 OA
ATOM      2  N   UNL     1      31.901  -8.482 -20.897  0.00  0.00    +0.392 N 
ATOM      3  N   UNL     1      31.867 -11.327 -21.310  0.00  0.00    -0.268 N 
ATOM      4  N   UNL     1      32.637 -13.188 -22.540  0.00  0.00    -0.266 N 
ATOM      5  C   UNL     1      31.951  -9.399 -19.751  0.00  0.00    -0.055 C 
ATOM      6  C   UNL     1      32.606  -9.069 -22.044  0.00  0.00    -0.055 C 
ATOM      7  C   UNL     1      31.991 -10.411 -22.452  0.00  0.00    +0.072 C 
ATOM      8  C   UNL     1      31.290 -10.729 -20.104  0.00  0.00    +0.072 C 
ATOM      9  C   UNL     1      32.115 -12.718 -21.334  0.00  0.00    +0.308 C 
ATOM     10  H   UNL     1      30.925  -8.334 -21.155  0.00  0.00    -0.079 HD
ATOM     11  H   UNL     1      32.373 -12.697 -23.351  0.00  0.00    +0.156 HD
ENDROOT
BRANCH   4  14
ATOM     12 CL   UNL     1      33.080 -14.157 -25.417  0.00  0.00    -0.081 Cl
ATOM     13  N   UNL     1      34.947 -15.942 -21.706  0.00  0.00    -0.241 NA
ATOM     14  C   UNL     1      33.504 -14.293 -22.727  0.00  0.00    +0.082 C 
ATOM     15  C   UNL     1      33.780 -14.820 -23.985  0.00  0.00    +0.074 C 
ATOM     16  C   UNL     1      34.108 -14.886 -21.630  0.00  0.00    +0.114 C 
ATOM     17  C   UNL     1      34.638 -15.908 -24.104  0.00  0.00    +0.033 C 
ATOM     18  C   UNL     1      35.191 -16.427 -22.944  0.00  0.00    +0.100 C 
ENDBRANCH   4  14
BRANCH   2  19
ATOM     19  C   UNL     1      32.482  -7.187 -20.545  0.00  0.00    -0.050 C 
BRANCH  19  24
ATOM     20  F   UNL     1      32.023  -1.786 -24.595  0.00  0.00    -0.125 F 
ATOM     21  F   UNL     1      30.961  -3.244 -25.833  0.00  0.00    -0.125 F 
ATOM     22  O   UNL     1      32.480  -3.990 -24.323  0.00  0.00    -0.395 OA
ATOM     23  O   UNL     1      30.371  -3.021 -23.655  0.00  0.00    -0.395 OA
ATOM     24  C   UNL     1      31.887  -6.067 -21.356  0.00  0.00    -0.040 C 
ATOM     25  C   UNL     1      32.558  -5.599 -22.488  0.00  0.00    +0.034 C 
ATOM     26  C   UNL     1      30.659  -5.503 -20.967  0.00  0.00    -0.003 C 
ATOM     27  C   UNL     1      31.974  -4.572 -23.200  0.00  0.00    +0.181 C 
ATOM     28  C   UNL     1      30.770  -4.019 -22.819  0.00  0.00    +0.182 C 
ATOM     29  C   UNL     1      30.088  -4.464 -21.706  0.00  0.00    +0.040 C 
ATOM     30  C   UNL     1      31.458  -3.018 -24.591  0.00  0.00    +0.589 C 
ENDBRANCH  19  24
ENDBRANCH   2  19
TORSDOF 3
ENDMDL
MODEL 9
REMARK VINA RESULT:     -10.5      9.386     14.099
REMARK  Name = 54576693
REMARK  3 active torsions:
REMARK  status: ('A' for Active; 'I' for Inactive)
REMARK    1  A    between atoms: N_2  and  C_19
REMARK    2  A    between atoms: N_4  and  C_14
REMARK    3  A    between atoms: C_19  and  C_24
REMARK                            x       y       z     vdW  Elec       q    Type
REMARK                         _______ _______ _______ _____ _____    ______ ____
ROOT
ATOM      1  O   UNL     1      32.021  -5.652 -20.633  0.00  0.00    -0.252 OA
ATOM      2  N   UNL     1      32.246 -10.605 -21.164  0.00  0.00    +0.392 N 
ATOM      3  N   UNL     1      32.525  -7.758 -21.447  0.00  0.00    -0.268 N 
ATOM      4  N   UNL     1      32.589  -5.876 -22.872  0.00  0.00    -0.266 N 
ATOM      5  C   UNL     1      31.570  -9.696 -20.230  0.00  0.00    -0.055 C 
ATOM      6  C   UNL     1      32.307 -10.000 -22.501  0.00  0.00    -0.055 C 
ATOM      7  C   UNL     1      33.055  -8.663 -22.476  0.00  0.00    +0.072 C 
ATOM      8  C   UNL     1      32.325  -8.373 -20.134  0.00  0.00    +0.072 C 
ATOM      9  C   UNL     1      32.344  -6.363 -21.587  0.00  0.00    +0.308 C 
ATOM     10  H   UNL     1      33.199 -10.765 -20.834  0.00  0.00    -0.079 HD
ATOM     11  H   UNL     1      33.258  -6.365 -23.404  0.00  0.00    +0.156 HD
ENDROOT
BRANCH   4  14
ATOM     12 CL   UNL     1      33.856  -4.861 -25.474  0.00  0.00    -0.081 Cl
ATOM     13  N   UNL     1      30.218  -3.107 -23.441  0.00  0.00    -0.241 NA
ATOM     14  C   UNL     1      31.982  -4.758 -23.496  0.00  0.00    +0.082 C 
ATOM     15  C   UNL     1      32.469  -4.210 -24.678  0.00  0.00    +0.074 C 
ATOM     16  C   UNL     1      30.864  -4.174 -22.923  0.00  0.00    +0.114 C 
ATOM     17  C   UNL     1      31.831  -3.110 -25.242  0.00  0.00    +0.033 C 
ATOM     18  C   UNL     1      30.719  -2.601 -24.591  0.00  0.00    +0.100 C 
ENDBRANCH   4  14
BRANCH   2  19
ATOM     19  C   UNL     1      31.559 -11.894 -21.215  0.00  0.00    -0.050 C 
BRANCH  19  24
ATOM     20  F   UNL     1      34.108 -17.316 -24.361  0.00  0.00    -0.125 F 
ATOM     21  F   UNL     1      35.662 -15.857 -24.860  0.00  0.00    -0.125 F 
ATOM     22  O   UNL     1      33.571 -15.113 -24.391  0.00  0.00    -0.395 OA
ATOM     23  O   UNL     1      35.008 -16.064 -22.699  0.00  0.00    -0.395 OA
ATOM     24  C   UNL     1      32.496 -13.015 -21.578  0.00  0.00    -0.040 C 
ATOM     25  C   UNL     1      32.528 -13.494 -22.890  0.00  0.00    +0.034 C 
ATOM     26  C   UNL     1      33.333 -13.568 -20.593  0.00  0.00    -0.003 C 
ATOM     27  C   UNL     1      33.404 -14.521 -23.176  0.00  0.00    +0.181 C 
ATOM     28  C   UNL     1      34.224 -15.064 -22.210  0.00  0.00    +0.182 C 
ATOM     29  C   UNL     1      34.211 -14.608 -20.908  0.00  0.00    +0.040 C 
ATOM     30  C   UNL     1      34.583 -16.079 -24.069  0.00  0.00    +0.589 C 
ENDBRANCH  19  24
ENDBRANCH   2  19
TORSDOF 3
ENDMDL
