MODEL 1
REMARK VINA RESULT:     -11.1      0.000      0.000
REMARK  Name = 657140
REMARK  9 active torsions:
REMARK  status: ('A' for Active; 'I' for Inactive)
REMARK    1  A    between atoms: C_1  and  N_8
REMARK    2  A    between atoms: C_2  and  O_20
REMARK    3  A    between atoms: C_9  and  C_11
REMARK    4  A    between atoms: C_14  and  N_19
REMARK    5  A    between atoms: O_20  and  C_21
REMARK    6  A    between atoms: C_22  and  C_28
REMARK    7  A    between atoms: C_24  and  C_32
REMARK    8  A    between atoms: C_28  and  O_29
REMARK    9  A    between atoms: C_32  and  O_33
REMARK                            x       y       z     vdW  Elec       q    Type
REMARK                         _______ _______ _______ _____ _____    ______ ____
ROOT
ATOM      1  C   UNL     1      32.046 -23.263 -15.903  0.00  0.00    +0.086 C 
ATOM      2  C   UNL     1      32.872 -23.455 -14.809  0.00  0.00    +0.159 C 
ATOM      3  C   UNL     1      30.785 -23.835 -15.965  0.00  0.00    +0.018 C 
ATOM      4  C   UNL     1      32.427 -24.242 -13.747  0.00  0.00    +0.039 C 
ATOM      5  C   UNL     1      30.340 -24.622 -14.904  0.00  0.00    +0.001 C 
ATOM      6  C   UNL     1      31.161 -24.825 -13.794  0.00  0.00    +0.003 C 
ENDROOT
BRANCH   1   8
ATOM      7  O   UNL     1      33.746 -23.972 -18.268  0.00  0.00    -0.270 OA
ATOM      8  N   UNL     1      32.483 -22.465 -16.989  0.00  0.00    -0.278 N 
ATOM      9  C   UNL     1      33.281 -22.837 -18.080  0.00  0.00    +0.250 C 
ATOM     10  H   UNL     1      32.187 -21.526 -16.975  0.00  0.00    +0.155 HD
BRANCH   9  11
ATOM     11  C   UNL     1      33.589 -21.780 -19.030  0.00  0.00    +0.055 C 
ATOM     12  C   UNL     1      34.904 -21.340 -19.181  0.00  0.00    +0.029 C 
ATOM     13  C   UNL     1      32.571 -21.208 -19.792  0.00  0.00    +0.005 C 
ATOM     14  C   UNL     1      35.200 -20.328 -20.094  0.00  0.00    +0.143 C 
ATOM     15  C   UNL     1      32.866 -20.195 -20.704  0.00  0.00    +0.002 C 
ATOM     16  C   UNL     1      34.181 -19.756 -20.855  0.00  0.00    +0.024 C 
BRANCH  14  19
ATOM     17  O   UNL     1      37.323 -19.956 -19.274  0.00  0.00    -0.126 OA
ATOM     18  O   UNL     1      36.901 -19.420 -21.360  0.00  0.00    -0.126 OA
ATOM     19  N   UNL     1      36.539 -19.880 -20.250  0.00  0.00    +0.058 N 
ENDBRANCH  14  19
ENDBRANCH   9  11
ENDBRANCH   1   8
BRANCH   2  20
ATOM     20  O   UNL     1      34.112 -22.893 -14.742  0.00  0.00    -0.452 OA
BRANCH  20  21
ATOM     21  C   UNL     1      35.134 -23.657 -14.203  0.00  0.00    +0.146 C 
ATOM     22  C   UNL     1      36.765 -24.017 -12.485  0.00  0.00    +0.085 C 
ATOM     23  C   UNL     1      35.736 -23.247 -13.027  0.00  0.00    +0.044 C 
ATOM     24  C   UNL     1      37.175 -25.185 -13.128  0.00  0.00    +0.082 C 
ATOM     25  C   UNL     1      35.527 -24.813 -14.856  0.00  0.00    +0.038 C 
ATOM     26  C   UNL     1      36.556 -25.582 -14.313  0.00  0.00    +0.010 C 
BRANCH  22  28
ATOM     27  O   UNL     1      38.363 -22.818 -11.170  0.00  0.00    -0.245 OA
ATOM     28  C   UNL     1      37.391 -23.574 -11.247  0.00  0.00    +0.338 C 
BRANCH  28  29
ATOM     29  O   UNL     1      36.783 -24.089 -10.145  0.00  0.00    -0.477 OA
ATOM     30  H   UNL     1      37.098 -23.871  -9.291  0.00  0.00    +0.295 HD
ENDBRANCH  28  29
ENDBRANCH  22  28
BRANCH  24  32
ATOM     31  O   UNL     1      39.379 -26.114 -13.069  0.00  0.00    -0.245 OA
ATOM     32  C   UNL     1      38.246 -26.010 -12.588  0.00  0.00    +0.338 C 
BRANCH  32  33
ATOM     33  O   UNL     1      37.869 -26.679 -11.465  0.00  0.00    -0.477 OA
ATOM     34  H   UNL     1      37.151 -26.365 -10.952  0.00  0.00    +0.295 HD
ENDBRANCH  32  33
ENDBRANCH  24  32
ENDBRANCH  20  21
ENDBRANCH   2  20
TORSDOF 9
ENDMDL
MODEL 2
REMARK VINA RESULT:     -10.7      2.888      8.388
REMARK  Name = 657140
REMARK  9 active torsions:
REMARK  status: ('A' for Active; 'I' for Inactive)
REMARK    1  A    between atoms: C_1  and  N_8
REMARK    2  A    between atoms: C_2  and  O_20
REMARK    3  A    between atoms: C_9  and  C_11
REMARK    4  A    between atoms: C_14  and  N_19
REMARK    5  A    between atoms: O_20  and  C_21
REMARK    6  A    between atoms: C_22  and  C_28
REMARK    7  A    between atoms: C_24  and  C_32
REMARK    8  A    between atoms: C_28  and  O_29
REMARK    9  A    between atoms: C_32  and  O_33
REMARK                            x       y       z     vdW  Elec       q    Type
REMARK                         _______ _______ _______ _____ _____    ______ ____
ROOT
ATOM      1  C   UNL     1      34.910 -22.839 -15.950  0.00  0.00    +0.086 C 
ATOM      2  C   UNL     1      35.322 -22.488 -17.225  0.00  0.00    +0.159 C 
ATOM      3  C   UNL     1      35.774 -22.771 -14.868  0.00  0.00    +0.018 C 
ATOM      4  C   UNL     1      36.634 -22.060 -17.424  0.00  0.00    +0.039 C 
ATOM      5  C   UNL     1      37.086 -22.342 -15.068  0.00  0.00    +0.001 C 
ATOM      6  C   UNL     1      37.516 -21.986 -16.347  0.00  0.00    +0.003 C 
ENDROOT
BRANCH   1   8
ATOM      7  O   UNL     1      33.595 -23.864 -13.458  0.00  0.00    -0.270 OA
ATOM      8  N   UNL     1      33.581 -23.275 -15.729  0.00  0.00    -0.278 N 
ATOM      9  C   UNL     1      33.003 -23.750 -14.543  0.00  0.00    +0.250 C 
ATOM     10  H   UNL     1      32.985 -23.241 -16.512  0.00  0.00    +0.155 HD
BRANCH   9  11
ATOM     11  C   UNL     1      31.609 -24.154 -14.634  0.00  0.00    +0.055 C 
ATOM     12  C   UNL     1      30.756 -23.518 -15.536  0.00  0.00    +0.029 C 
ATOM     13  C   UNL     1      31.126 -25.180 -13.822  0.00  0.00    +0.005 C 
ATOM     14  C   UNL     1      29.419 -23.907 -15.625  0.00  0.00    +0.143 C 
ATOM     15  C   UNL     1      29.789 -25.569 -13.910  0.00  0.00    +0.002 C 
ATOM     16  C   UNL     1      28.936 -24.933 -14.812  0.00  0.00    +0.024 C 
BRANCH  14  19
ATOM     17  O   UNL     1      28.572 -22.009 -16.623  0.00  0.00    -0.126 OA
ATOM     18  O   UNL     1      27.784 -23.959 -17.250  0.00  0.00    -0.126 OA
ATOM     19  N   UNL     1      28.550 -23.261 -16.543  0.00  0.00    +0.058 N 
ENDBRANCH  14  19
ENDBRANCH   9  11
ENDBRANCH   1   8
BRANCH   2  20
ATOM     20  O   UNL     1      34.476 -22.552 -18.291  0.00  0.00    -0.452 OA
BRANCH  20  21
ATOM     21  C   UNL     1      34.523 -21.518 -19.211  0.00  0.00    +0.146 C 
ATOM     22  C   UNL     1      35.778 -19.851 -20.388  0.00  0.00    +0.085 C 
ATOM     23  C   UNL     1      35.731 -20.892 -19.461  0.00  0.00    +0.044 C 
ATOM     24  C   UNL     1      34.616 -19.452 -21.049  0.00  0.00    +0.082 C 
ATOM     25  C   UNL     1      33.360 -21.137 -19.856  0.00  0.00    +0.038 C 
ATOM     26  C   UNL     1      33.408 -20.095 -20.783  0.00  0.00    +0.010 C 
BRANCH  22  28
ATOM     27  O   UNL     1      37.574 -19.056 -21.754  0.00  0.00    -0.245 OA
ATOM     28  C   UNL     1      37.056 -19.199 -20.643  0.00  0.00    +0.338 C 
BRANCH  28  29
ATOM     29  O   UNL     1      37.644 -18.746 -19.504  0.00  0.00    -0.477 OA
ATOM     30  H   UNL     1      38.252 -19.290 -19.043  0.00  0.00    +0.295 HD
ENDBRANCH  28  29
ENDBRANCH  22  28
BRANCH  24  32
ATOM     31  O   UNL     1      34.340 -18.477 -23.216  0.00  0.00    -0.245 OA
ATOM     32  C   UNL     1      34.632 -18.368 -22.021  0.00  0.00    +0.338 C 
BRANCH  32  33
ATOM     33  O   UNL     1      35.011 -17.183 -21.470  0.00  0.00    -0.477 OA
ATOM     34  H   UNL     1      35.920 -16.997 -21.339  0.00  0.00    +0.295 HD
ENDBRANCH  32  33
ENDBRANCH  24  32
ENDBRANCH  20  21
ENDBRANCH   2  20
TORSDOF 9
ENDMDL
MODEL 3
REMARK VINA RESULT:     -10.7      1.622      2.437
REMARK  Name = 657140
REMARK  9 active torsions:
REMARK  status: ('A' for Active; 'I' for Inactive)
REMARK    1  A    between atoms: C_1  and  N_8
REMARK    2  A    between atoms: C_2  and  O_20
REMARK    3  A    between atoms: C_9  and  C_11
REMARK    4  A    between atoms: C_14  and  N_19
REMARK    5  A    between atoms: O_20  and  C_21
REMARK    6  A    between atoms: C_22  and  C_28
REMARK    7  A    between atoms: C_24  and  C_32
REMARK    8  A    between atoms: C_28  and  O_29
REMARK    9  A    between atoms: C_32  and  O_33
REMARK                            x       y       z     vdW  Elec       q    Type
REMARK                         _______ _______ _______ _____ _____    ______ ____
ROOT
ATOM      1  C   UNL     1      32.577 -23.017 -16.406  0.00  0.00    +0.086 C 
ATOM      2  C   UNL     1      33.110 -24.045 -15.647  0.00  0.00    +0.159 C 
ATOM      3  C   UNL     1      31.234 -22.684 -16.330  0.00  0.00    +0.018 C 
ATOM      4  C   UNL     1      32.277 -24.763 -14.789  0.00  0.00    +0.039 C 
ATOM      5  C   UNL     1      30.401 -23.402 -15.473  0.00  0.00    +0.001 C 
ATOM      6  C   UNL     1      30.922 -24.441 -14.701  0.00  0.00    +0.003 C 
ENDROOT
BRANCH   1   8
ATOM      7  O   UNL     1      33.618 -23.702 -19.133  0.00  0.00    -0.270 OA
ATOM      8  N   UNL     1      33.411 -22.277 -17.281  0.00  0.00    -0.278 N 
ATOM      9  C   UNL     1      33.877 -22.636 -18.553  0.00  0.00    +0.250 C 
ATOM     10  H   UNL     1      33.701 -21.396 -16.951  0.00  0.00    +0.155 HD
BRANCH   9  11
ATOM     11  C   UNL     1      34.749 -21.671 -19.205  0.00  0.00    +0.055 C 
ATOM     12  C   UNL     1      34.229 -20.794 -20.157  0.00  0.00    +0.029 C 
ATOM     13  C   UNL     1      36.103 -21.622 -18.876  0.00  0.00    +0.005 C 
ATOM     14  C   UNL     1      35.066 -19.867 -20.781  0.00  0.00    +0.143 C 
ATOM     15  C   UNL     1      36.939 -20.696 -19.499  0.00  0.00    +0.002 C 
ATOM     16  C   UNL     1      36.420 -19.819 -20.452  0.00  0.00    +0.024 C 
BRANCH  14  19
ATOM     17  O   UNL     1      33.694 -19.399 -22.574  0.00  0.00    -0.126 OA
ATOM     18  O   UNL     1      34.931 -17.781 -21.754  0.00  0.00    -0.126 OA
ATOM     19  N   UNL     1      34.538 -18.973 -21.749  0.00  0.00    +0.058 N 
ENDBRANCH  14  19
ENDBRANCH   9  11
ENDBRANCH   1   8
BRANCH   2  20
ATOM     20  O   UNL     1      34.431 -24.375 -15.716  0.00  0.00    -0.452 OA
BRANCH  20  21
ATOM     21  C   UNL     1      35.233 -24.042 -14.638  0.00  0.00    +0.146 C 
ATOM     22  C   UNL     1      35.992 -24.484 -12.409  0.00  0.00    +0.085 C 
ATOM     23  C   UNL     1      35.184 -24.819 -13.494  0.00  0.00    +0.044 C 
ATOM     24  C   UNL     1      36.837 -23.377 -12.484  0.00  0.00    +0.082 C 
ATOM     25  C   UNL     1      36.065 -22.940 -14.732  0.00  0.00    +0.038 C 
ATOM     26  C   UNL     1      36.873 -22.605 -13.645  0.00  0.00    +0.010 C 
BRANCH  22  28
ATOM     27  O   UNL     1      35.319 -25.024 -10.178  0.00  0.00    -0.245 OA
ATOM     28  C   UNL     1      35.931 -25.310 -11.210  0.00  0.00    +0.338 C 
BRANCH  28  29
ATOM     29  O   UNL     1      36.636 -26.465 -11.340  0.00  0.00    -0.477 OA
ATOM     30  H   UNL     1      36.282 -27.269 -11.014  0.00  0.00    +0.295 HD
ENDBRANCH  28  29
ENDBRANCH  22  28
BRANCH  24  32
ATOM     31  O   UNL     1      38.895 -23.263 -11.270  0.00  0.00    -0.245 OA
ATOM     32  C   UNL     1      37.693 -23.000 -11.368  0.00  0.00    +0.338 C 
BRANCH  32  33
ATOM     33  O   UNL     1      37.021 -22.307 -10.410  0.00  0.00    -0.477 OA
ATOM     34  H   UNL     1      36.400 -22.746  -9.862  0.00  0.00    +0.295 HD
ENDBRANCH  32  33
ENDBRANCH  24  32
ENDBRANCH  20  21
ENDBRANCH   2  20
TORSDOF 9
ENDMDL
MODEL 4
REMARK VINA RESULT:     -10.7      2.581      7.125
REMARK  Name = 657140
REMARK  9 active torsions:
REMARK  status: ('A' for Active; 'I' for Inactive)
REMARK    1  A    between atoms: C_1  and  N_8
REMARK    2  A    between atoms: C_2  and  O_20
REMARK    3  A    between atoms: C_9  and  C_11
REMARK    4  A    between atoms: C_14  and  N_19
REMARK    5  A    between atoms: O_20  and  C_21
REMARK    6  A    between atoms: C_22  and  C_28
REMARK    7  A    between atoms: C_24  and  C_32
REMARK    8  A    between atoms: C_28  and  O_29
REMARK    9  A    between atoms: C_32  and  O_33
REMARK                            x       y       z     vdW  Elec       q    Type
REMARK                         _______ _______ _______ _____ _____    ______ ____
ROOT
ATOM      1  C   UNL     1      35.979 -25.285 -14.315  0.00  0.00    +0.086 C 
ATOM      2  C   UNL     1      36.849 -24.209 -14.369  0.00  0.00    +0.159 C 
ATOM      3  C   UNL     1      36.444 -26.582 -14.170  0.00  0.00    +0.018 C 
ATOM      4  C   UNL     1      38.222 -24.436 -14.277  0.00  0.00    +0.039 C 
ATOM      5  C   UNL     1      37.817 -26.810 -14.079  0.00  0.00    +0.001 C 
ATOM      6  C   UNL     1      38.706 -25.735 -14.132  0.00  0.00    +0.003 C 
ENDROOT
BRANCH   1   8
ATOM      7  O   UNL     1      34.022 -24.362 -12.240  0.00  0.00    -0.270 OA
ATOM      8  N   UNL     1      34.582 -25.071 -14.405  0.00  0.00    -0.278 N 
ATOM      9  C   UNL     1      33.699 -24.638 -13.406  0.00  0.00    +0.250 C 
ATOM     10  H   UNL     1      34.177 -25.252 -15.285  0.00  0.00    +0.155 HD
BRANCH   9  11
ATOM     11  C   UNL     1      32.301 -24.539 -13.794  0.00  0.00    +0.055 C 
ATOM     12  C   UNL     1      31.928 -23.707 -14.850  0.00  0.00    +0.029 C 
ATOM     13  C   UNL     1      31.334 -25.278 -13.113  0.00  0.00    +0.005 C 
ATOM     14  C   UNL     1      30.586 -23.614 -15.223  0.00  0.00    +0.143 C 
ATOM     15  C   UNL     1      29.993 -25.185 -13.486  0.00  0.00    +0.002 C 
ATOM     16  C   UNL     1      29.620 -24.353 -14.541  0.00  0.00    +0.024 C 
BRANCH  14  19
ATOM     17  O   UNL     1      28.993 -22.477 -16.443  0.00  0.00    -0.126 OA
ATOM     18  O   UNL     1      31.090 -22.335 -17.075  0.00  0.00    -0.126 OA
ATOM     19  N   UNL     1      30.205 -22.768 -16.298  0.00  0.00    +0.058 N 
ENDBRANCH  14  19
ENDBRANCH   9  11
ENDBRANCH   1   8
BRANCH   2  20
ATOM     20  O   UNL     1      36.397 -22.931 -14.510  0.00  0.00    -0.452 OA
BRANCH  20  21
ATOM     21  C   UNL     1      36.296 -22.424 -15.794  0.00  0.00    +0.146 C 
ATOM     22  C   UNL     1      35.092 -22.234 -17.857  0.00  0.00    +0.085 C 
ATOM     23  C   UNL     1      35.192 -22.746 -16.563  0.00  0.00    +0.044 C 
ATOM     24  C   UNL     1      36.097 -21.408 -18.361  0.00  0.00    +0.082 C 
ATOM     25  C   UNL     1      37.304 -21.606 -16.276  0.00  0.00    +0.038 C 
ATOM     26  C   UNL     1      37.202 -21.094 -17.570  0.00  0.00    +0.010 C 
BRANCH  22  28
ATOM     27  O   UNL     1      33.713 -23.683 -19.169  0.00  0.00    -0.245 OA
ATOM     28  C   UNL     1      33.925 -22.580 -18.657  0.00  0.00    +0.338 C 
BRANCH  28  29
ATOM     29  O   UNL     1      33.061 -21.539 -18.792  0.00  0.00    -0.477 OA
ATOM     30  H   UNL     1      32.207 -21.683 -19.149  0.00  0.00    +0.295 HD
ENDBRANCH  28  29
ENDBRANCH  22  28
BRANCH  24  32
ATOM     31  O   UNL     1      35.296 -21.282 -20.611  0.00  0.00    -0.245 OA
ATOM     32  C   UNL     1      36.022 -20.859 -19.707  0.00  0.00    +0.338 C 
BRANCH  32  33
ATOM     33  O   UNL     1      36.856 -19.798 -19.881  0.00  0.00    -0.477 OA
ATOM     34  H   UNL     1      36.523 -18.925 -19.819  0.00  0.00    +0.295 HD
ENDBRANCH  32  33
ENDBRANCH  24  32
ENDBRANCH  20  21
ENDBRANCH   2  20
TORSDOF 9
ENDMDL
MODEL 5
REMARK VINA RESULT:     -10.4      1.010      2.166
REMARK  Name = 657140
REMARK  9 active torsions:
REMARK  status: ('A' for Active; 'I' for Inactive)
REMARK    1  A    between atoms: C_1  and  N_8
REMARK    2  A    between atoms: C_2  and  O_20
REMARK    3  A    between atoms: C_9  and  C_11
REMARK    4  A    between atoms: C_14  and  N_19
REMARK    5  A    between atoms: O_20  and  C_21
REMARK    6  A    between atoms: C_22  and  C_28
REMARK    7  A    between atoms: C_24  and  C_32
REMARK    8  A    between atoms: C_28  and  O_29
REMARK    9  A    between atoms: C_32  and  O_33
REMARK                            x       y       z     vdW  Elec       q    Type
REMARK                         _______ _______ _______ _____ _____    ______ ____
ROOT
ATOM      1  C   UNL     1      31.801 -23.184 -16.074  0.00  0.00    +0.086 C 
ATOM      2  C   UNL     1      32.613 -23.483 -14.992  0.00  0.00    +0.159 C 
ATOM      3  C   UNL     1      30.496 -23.643 -16.145  0.00  0.00    +0.018 C 
ATOM      4  C   UNL     1      32.107 -24.264 -13.954  0.00  0.00    +0.039 C 
ATOM      5  C   UNL     1      29.989 -24.425 -15.107  0.00  0.00    +0.001 C 
ATOM      6  C   UNL     1      30.795 -24.735 -14.011  0.00  0.00    +0.003 C 
ENDROOT
BRANCH   1   8
ATOM      7  O   UNL     1      33.730 -23.869 -18.265  0.00  0.00    -0.270 OA
ATOM      8  N   UNL     1      32.300 -22.390 -17.136  0.00  0.00    -0.278 N 
ATOM      9  C   UNL     1      33.205 -22.750 -18.144  0.00  0.00    +0.250 C 
ATOM     10  H   UNL     1      31.968 -21.464 -17.170  0.00  0.00    +0.155 HD
BRANCH   9  11
ATOM     11  C   UNL     1      33.554 -21.701 -19.088  0.00  0.00    +0.055 C 
ATOM     12  C   UNL     1      34.880 -21.285 -19.211  0.00  0.00    +0.029 C 
ATOM     13  C   UNL     1      32.563 -21.111 -19.873  0.00  0.00    +0.005 C 
ATOM     14  C   UNL     1      35.214 -20.280 -20.118  0.00  0.00    +0.143 C 
ATOM     15  C   UNL     1      32.897 -20.105 -20.779  0.00  0.00    +0.002 C 
ATOM     16  C   UNL     1      34.223 -19.690 -20.902  0.00  0.00    +0.024 C 
BRANCH  14  19
ATOM     17  O   UNL     1      36.910 -19.228 -21.274  0.00  0.00    -0.126 OA
ATOM     18  O   UNL     1      37.374 -20.124 -19.325  0.00  0.00    -0.126 OA
ATOM     19  N   UNL     1      36.564 -19.857 -20.245  0.00  0.00    +0.058 N 
ENDBRANCH  14  19
ENDBRANCH   9  11
ENDBRANCH   1   8
BRANCH   2  20
ATOM     20  O   UNL     1      33.897 -23.032 -14.917  0.00  0.00    -0.452 OA
BRANCH  20  21
ATOM     21  C   UNL     1      34.811 -23.811 -14.227  0.00  0.00    +0.146 C 
ATOM     22  C   UNL     1      36.327 -25.665 -14.173  0.00  0.00    +0.085 C 
ATOM     23  C   UNL     1      35.407 -24.882 -14.869  0.00  0.00    +0.044 C 
ATOM     24  C   UNL     1      36.637 -25.365 -12.847  0.00  0.00    +0.082 C 
ATOM     25  C   UNL     1      35.105 -23.497 -12.911  0.00  0.00    +0.038 C 
ATOM     26  C   UNL     1      36.026 -24.281 -12.216  0.00  0.00    +0.010 C 
BRANCH  22  28
ATOM     27  O   UNL     1      38.044 -27.280 -14.577  0.00  0.00    -0.245 OA
ATOM     28  C   UNL     1      36.948 -26.790 -14.860  0.00  0.00    +0.338 C 
BRANCH  28  29
ATOM     29  O   UNL     1      36.180 -27.265 -15.876  0.00  0.00    -0.477 OA
ATOM     30  H   UNL     1      36.317 -26.958 -16.750  0.00  0.00    +0.295 HD
ENDBRANCH  28  29
ENDBRANCH  22  28
BRANCH  24  32
ATOM     31  O   UNL     1      37.303 -27.008 -11.240  0.00  0.00    -0.245 OA
ATOM     32  C   UNL     1      37.594 -26.164 -12.093  0.00  0.00    +0.338 C 
BRANCH  32  33
ATOM     33  O   UNL     1      38.881 -25.883 -12.428  0.00  0.00    -0.477 OA
ATOM     34  H   UNL     1      39.583 -26.372 -12.046  0.00  0.00    +0.295 HD
ENDBRANCH  32  33
ENDBRANCH  24  32
ENDBRANCH  20  21
ENDBRANCH   2  20
TORSDOF 9
ENDMDL
MODEL 6
REMARK VINA RESULT:     -10.2      1.717      2.781
REMARK  Name = 657140
REMARK  9 active torsions:
REMARK  status: ('A' for Active; 'I' for Inactive)
REMARK    1  A    between atoms: C_1  and  N_8
REMARK    2  A    between atoms: C_2  and  O_20
REMARK    3  A    between atoms: C_9  and  C_11
REMARK    4  A    between atoms: C_14  and  N_19
REMARK    5  A    between atoms: O_20  and  C_21
REMARK    6  A    between atoms: C_22  and  C_28
REMARK    7  A    between atoms: C_24  and  C_32
REMARK    8  A    between atoms: C_28  and  O_29
REMARK    9  A    between atoms: C_32  and  O_33
REMARK                            x       y       z     vdW  Elec       q    Type
REMARK                         _______ _______ _______ _____ _____    ______ ____
ROOT
ATOM      1  C   UNL     1      33.175 -22.618 -17.146  0.00  0.00    +0.086 C 
ATOM      2  C   UNL     1      33.840 -23.486 -16.296  0.00  0.00    +0.159 C 
ATOM      3  C   UNL     1      31.797 -22.482 -17.106  0.00  0.00    +0.018 C 
ATOM      4  C   UNL     1      33.105 -24.241 -15.382  0.00  0.00    +0.039 C 
ATOM      5  C   UNL     1      31.062 -23.237 -16.192  0.00  0.00    +0.001 C 
ATOM      6  C   UNL     1      31.717 -24.117 -15.329  0.00  0.00    +0.003 C 
ENDROOT
BRANCH   1   8
ATOM      7  O   UNL     1      32.425 -21.673 -19.890  0.00  0.00    -0.270 OA
ATOM      8  N   UNL     1      33.907 -21.843 -18.079  0.00  0.00    -0.278 N 
ATOM      9  C   UNL     1      33.518 -21.421 -19.358  0.00  0.00    +0.250 C 
ATOM     10  H   UNL     1      34.807 -21.565 -17.792  0.00  0.00    +0.155 HD
BRANCH   9  11
ATOM     11  C   UNL     1      34.505 -20.653 -20.100  0.00  0.00    +0.055 C 
ATOM     12  C   UNL     1      34.104 -19.853 -21.171  0.00  0.00    +0.029 C 
ATOM     13  C   UNL     1      35.850 -20.713 -19.740  0.00  0.00    +0.005 C 
ATOM     14  C   UNL     1      35.051 -19.115 -21.882  0.00  0.00    +0.143 C 
ATOM     15  C   UNL     1      36.797 -19.976 -20.451  0.00  0.00    +0.002 C 
ATOM     16  C   UNL     1      36.397 -19.177 -21.521  0.00  0.00    +0.024 C 
BRANCH  14  19
ATOM     17  O   UNL     1      35.205 -17.190 -23.142  0.00  0.00    -0.126 OA
ATOM     18  O   UNL     1      33.737 -18.711 -23.733  0.00  0.00    -0.126 OA
ATOM     19  N   UNL     1      34.645 -18.300 -22.971  0.00  0.00    +0.058 N 
ENDBRANCH  14  19
ENDBRANCH   9  11
ENDBRANCH   1   8
BRANCH   2  20
ATOM     20  O   UNL     1      35.195 -23.622 -16.330  0.00  0.00    -0.452 OA
BRANCH  20  21
ATOM     21  C   UNL     1      35.864 -23.685 -15.119  0.00  0.00    +0.146 C 
ATOM     22  C   UNL     1      37.099 -24.945 -13.499  0.00  0.00    +0.085 C 
ATOM     23  C   UNL     1      36.425 -24.884 -14.718  0.00  0.00    +0.044 C 
ATOM     24  C   UNL     1      37.202 -23.806 -12.700  0.00  0.00    +0.082 C 
ATOM     25  C   UNL     1      35.956 -22.544 -14.342  0.00  0.00    +0.038 C 
ATOM     26  C   UNL     1      36.631 -22.606 -13.122  0.00  0.00    +0.010 C 
BRANCH  22  28
ATOM     27  O   UNL     1      38.779 -26.648 -13.458  0.00  0.00    -0.245 OA
ATOM     28  C   UNL     1      37.685 -26.214 -13.087  0.00  0.00    +0.338 C 
BRANCH  28  29
ATOM     29  O   UNL     1      36.887 -26.898 -12.224  0.00  0.00    -0.477 OA
ATOM     30  H   UNL     1      35.960 -26.921 -12.361  0.00  0.00    +0.295 HD
ENDBRANCH  28  29
ENDBRANCH  22  28
BRANCH  24  32
ATOM     31  O   UNL     1      39.031 -23.390 -11.215  0.00  0.00    -0.245 OA
ATOM     32  C   UNL     1      37.899 -23.838 -11.422  0.00  0.00    +0.338 C 
BRANCH  32  33
ATOM     33  O   UNL     1      37.161 -24.427 -10.444  0.00  0.00    -0.477 OA
ATOM     34  H   UNL     1      37.570 -24.697  -9.646  0.00  0.00    +0.295 HD
ENDBRANCH  32  33
ENDBRANCH  24  32
ENDBRANCH  20  21
ENDBRANCH   2  20
TORSDOF 9
ENDMDL
MODEL 7
REMARK VINA RESULT:     -10.1      1.502      2.515
REMARK  Name = 657140
REMARK  9 active torsions:
REMARK  status: ('A' for Active; 'I' for Inactive)
REMARK    1  A    between atoms: C_1  and  N_8
REMARK    2  A    between atoms: C_2  and  O_20
REMARK    3  A    between atoms: C_9  and  C_11
REMARK    4  A    between atoms: C_14  and  N_19
REMARK    5  A    between atoms: O_20  and  C_21
REMARK    6  A    between atoms: C_22  and  C_28
REMARK    7  A    between atoms: C_24  and  C_32
REMARK    8  A    between atoms: C_28  and  O_29
REMARK    9  A    between atoms: C_32  and  O_33
REMARK                            x       y       z     vdW  Elec       q    Type
REMARK                         _______ _______ _______ _____ _____    ______ ____
ROOT
ATOM      1  C   UNL     1      32.032 -23.246 -15.572  0.00  0.00    +0.086 C 
ATOM      2  C   UNL     1      32.446 -24.380 -14.893  0.00  0.00    +0.159 C 
ATOM      3  C   UNL     1      30.771 -22.707 -15.374  0.00  0.00    +0.018 C 
ATOM      4  C   UNL     1      31.575 -24.993 -13.993  0.00  0.00    +0.039 C 
ATOM      5  C   UNL     1      29.900 -23.320 -14.474  0.00  0.00    +0.001 C 
ATOM      6  C   UNL     1      30.302 -24.464 -13.783  0.00  0.00    +0.003 C 
ENDROOT
BRANCH   1   8
ATOM      7  O   UNL     1      33.192 -24.241 -18.151  0.00  0.00    -0.270 OA
ATOM      8  N   UNL     1      32.906 -22.611 -16.488  0.00  0.00    -0.278 N 
ATOM      9  C   UNL     1      33.427 -23.114 -17.688  0.00  0.00    +0.250 C 
ATOM     10  H   UNL     1      33.183 -21.697 -16.250  0.00  0.00    +0.155 HD
BRANCH   9  11
ATOM     11  C   UNL     1      34.330 -22.229 -18.408  0.00  0.00    +0.055 C 
ATOM     12  C   UNL     1      33.834 -21.389 -19.405  0.00  0.00    +0.029 C 
ATOM     13  C   UNL     1      35.690 -22.218 -18.099  0.00  0.00    +0.005 C 
ATOM     14  C   UNL     1      34.700 -20.538 -20.094  0.00  0.00    +0.143 C 
ATOM     15  C   UNL     1      36.556 -21.369 -18.787  0.00  0.00    +0.002 C 
ATOM     16  C   UNL     1      36.060 -20.529 -19.785  0.00  0.00    +0.024 C 
BRANCH  14  19
ATOM     17  O   UNL     1      33.076 -19.930 -21.614  0.00  0.00    -0.126 OA
ATOM     18  O   UNL     1      34.887 -18.698 -21.471  0.00  0.00    -0.126 OA
ATOM     19  N   UNL     1      34.197 -19.681 -21.108  0.00  0.00    +0.058 N 
ENDBRANCH  14  19
ENDBRANCH   9  11
ENDBRANCH   1   8
BRANCH   2  20
ATOM     20  O   UNL     1      33.686 -24.914 -15.083  0.00  0.00    -0.452 OA
BRANCH  20  21
ATOM     21  C   UNL     1      34.684 -24.550 -14.195  0.00  0.00    +0.146 C 
ATOM     22  C   UNL     1      37.011 -24.278 -13.693  0.00  0.00    +0.085 C 
ATOM     23  C   UNL     1      36.007 -24.646 -14.588  0.00  0.00    +0.044 C 
ATOM     24  C   UNL     1      36.676 -23.821 -12.419  0.00  0.00    +0.082 C 
ATOM     25  C   UNL     1      34.332 -24.098 -12.935  0.00  0.00    +0.038 C 
ATOM     26  C   UNL     1      35.337 -23.731 -12.040  0.00  0.00    +0.010 C 
BRANCH  22  28
ATOM     27  O   UNL     1      39.286 -24.995 -13.517  0.00  0.00    -0.245 OA
ATOM     28  C   UNL     1      38.400 -24.383 -14.119  0.00  0.00    +0.338 C 
BRANCH  28  29
ATOM     29  O   UNL     1      38.637 -23.722 -15.283  0.00  0.00    -0.477 OA
ATOM     30  H   UNL     1      37.925 -23.343 -15.760  0.00  0.00    +0.295 HD
ENDBRANCH  28  29
ENDBRANCH  22  28
BRANCH  24  32
ATOM     31  O   UNL     1      38.209 -22.308 -11.377  0.00  0.00    -0.245 OA
ATOM     32  C   UNL     1      37.701 -23.430 -11.461  0.00  0.00    +0.338 C 
BRANCH  32  33
ATOM     33  O   UNL     1      38.059 -24.453 -10.639  0.00  0.00    -0.477 OA
ATOM     34  H   UNL     1      37.427 -24.833 -10.061  0.00  0.00    +0.295 HD
ENDBRANCH  32  33
ENDBRANCH  24  32
ENDBRANCH  20  21
ENDBRANCH   2  20
TORSDOF 9
ENDMDL
MODEL 8
REMARK VINA RESULT:     -10.0      2.062      2.820
REMARK  Name = 657140
REMARK  9 active torsions:
REMARK  status: ('A' for Active; 'I' for Inactive)
REMARK    1  A    between atoms: C_1  and  N_8
REMARK    2  A    between atoms: C_2  and  O_20
REMARK    3  A    between atoms: C_9  and  C_11
REMARK    4  A    between atoms: C_14  and  N_19
REMARK    5  A    between atoms: O_20  and  C_21
REMARK    6  A    between atoms: C_22  and  C_28
REMARK    7  A    between atoms: C_24  and  C_32
REMARK    8  A    between atoms: C_28  and  O_29
REMARK    9  A    between atoms: C_32  and  O_33
REMARK                            x       y       z     vdW  Elec       q    Type
REMARK                         _______ _______ _______ _____ _____    ______ ____
ROOT
ATOM      1  C   UNL     1      33.161 -22.946 -16.134  0.00  0.00    +0.086 C 
ATOM      2  C   UNL     1      33.671 -23.061 -14.852  0.00  0.00    +0.159 C 
ATOM      3  C   UNL     1      31.941 -23.505 -16.478  0.00  0.00    +0.018 C 
ATOM      4  C   UNL     1      32.943 -23.756 -13.887  0.00  0.00    +0.039 C 
ATOM      5  C   UNL     1      31.212 -24.201 -15.514  0.00  0.00    +0.001 C 
ATOM      6  C   UNL     1      31.713 -24.325 -14.217  0.00  0.00    +0.003 C 
ENDROOT
BRANCH   1   8
ATOM      7  O   UNL     1      32.563 -22.521 -19.041  0.00  0.00    -0.270 OA
ATOM      8  N   UNL     1      33.888 -22.242 -17.125  0.00  0.00    -0.278 N 
ATOM      9  C   UNL     1      33.572 -22.067 -18.480  0.00  0.00    +0.250 C 
ATOM     10  H   UNL     1      34.726 -21.822 -16.823  0.00  0.00    +0.155 HD
BRANCH   9  11
ATOM     11  C   UNL     1      34.537 -21.311 -19.264  0.00  0.00    +0.055 C 
ATOM     12  C   UNL     1      34.095 -20.422 -20.244  0.00  0.00    +0.029 C 
ATOM     13  C   UNL     1      35.903 -21.473 -19.034  0.00  0.00    +0.005 C 
ATOM     14  C   UNL     1      35.020 -19.696 -20.994  0.00  0.00    +0.143 C 
ATOM     15  C   UNL     1      36.828 -20.748 -19.784  0.00  0.00    +0.002 C 
ATOM     16  C   UNL     1      36.386 -19.859 -20.764  0.00  0.00    +0.024 C 
BRANCH  14  19
ATOM     17  O   UNL     1      35.030 -17.621 -22.002  0.00  0.00    -0.126 OA
ATOM     18  O   UNL     1      33.729 -19.181 -22.834  0.00  0.00    -0.126 OA
ATOM     19  N   UNL     1      34.572 -18.790 -21.991  0.00  0.00    +0.058 N 
ENDBRANCH  14  19
ENDBRANCH   9  11
ENDBRANCH   1   8
BRANCH   2  20
ATOM     20  O   UNL     1      34.870 -22.511 -14.508  0.00  0.00    -0.452 OA
BRANCH  20  21
ATOM     21  C   UNL     1      35.980 -23.339 -14.509  0.00  0.00    +0.146 C 
ATOM     22  C   UNL     1      36.921 -25.539 -14.633  0.00  0.00    +0.085 C 
ATOM     23  C   UNL     1      35.803 -24.706 -14.632  0.00  0.00    +0.044 C 
ATOM     24  C   UNL     1      38.198 -24.993 -14.511  0.00  0.00    +0.082 C 
ATOM     25  C   UNL     1      37.239 -22.778 -14.387  0.00  0.00    +0.038 C 
ATOM     26  C   UNL     1      38.357 -23.612 -14.388  0.00  0.00    +0.010 C 
BRANCH  22  28
ATOM     27  O   UNL     1      36.533 -27.576 -15.826  0.00  0.00    -0.245 OA
ATOM     28  C   UNL     1      36.722 -26.976 -14.764  0.00  0.00    +0.338 C 
BRANCH  28  29
ATOM     29  O   UNL     1      36.765 -27.617 -13.565  0.00  0.00    -0.477 OA
ATOM     30  H   UNL     1      36.361 -27.231 -12.814  0.00  0.00    +0.295 HD
ENDBRANCH  28  29
ENDBRANCH  22  28
BRANCH  24  32
ATOM     31  O   UNL     1      39.778 -26.513 -13.554  0.00  0.00    -0.245 OA
ATOM     32  C   UNL     1      39.386 -25.835 -14.509  0.00  0.00    +0.338 C 
BRANCH  32  33
ATOM     33  O   UNL     1      40.045 -25.805 -15.698  0.00  0.00    -0.477 OA
ATOM     34  H   UNL     1      39.578 -25.619 -16.488  0.00  0.00    +0.295 HD
ENDBRANCH  32  33
ENDBRANCH  24  32
ENDBRANCH  20  21
ENDBRANCH   2  20
TORSDOF 9
ENDMDL
MODEL 9
REMARK VINA RESULT:     -10.0      2.603      5.911
REMARK  Name = 657140
REMARK  9 active torsions:
REMARK  status: ('A' for Active; 'I' for Inactive)
REMARK    1  A    between atoms: C_1  and  N_8
REMARK    2  A    between atoms: C_2  and  O_20
REMARK    3  A    between atoms: C_9  and  C_11
REMARK    4  A    between atoms: C_14  and  N_19
REMARK    5  A    between atoms: O_20  and  C_21
REMARK    6  A    between atoms: C_22  and  C_28
REMARK    7  A    between atoms: C_24  and  C_32
REMARK    8  A    between atoms: C_28  and  O_29
REMARK    9  A    between atoms: C_32  and  O_33
REMARK                            x       y       z     vdW  Elec       q    Type
REMARK                         _______ _______ _______ _____ _____    ______ ____
ROOT
ATOM      1  C   UNL     1      33.794 -22.414 -17.770  0.00  0.00    +0.086 C 
ATOM      2  C   UNL     1      35.008 -22.426 -17.103  0.00  0.00    +0.159 C 
ATOM      3  C   UNL     1      33.680 -21.905 -19.054  0.00  0.00    +0.018 C 
ATOM      4  C   UNL     1      36.139 -21.913 -17.736  0.00  0.00    +0.039 C 
ATOM      5  C   UNL     1      34.812 -21.392 -19.687  0.00  0.00    +0.001 C 
ATOM      6  C   UNL     1      36.042 -21.396 -19.028  0.00  0.00    +0.003 C 
ENDROOT
BRANCH   1   8
ATOM      7  O   UNL     1      32.997 -22.422 -14.880  0.00  0.00    -0.270 OA
ATOM      8  N   UNL     1      32.635 -22.933 -17.141  0.00  0.00    -0.278 N 
ATOM      9  C   UNL     1      32.299 -22.917 -15.780  0.00  0.00    +0.250 C 
ATOM     10  H   UNL     1      31.981 -23.362 -17.738  0.00  0.00    +0.155 HD
BRANCH   9  11
ATOM     11  C   UNL     1      31.043 -23.559 -15.429  0.00  0.00    +0.055 C 
ATOM     12  C   UNL     1      29.844 -23.080 -15.955  0.00  0.00    +0.029 C 
ATOM     13  C   UNL     1      31.037 -24.656 -14.568  0.00  0.00    +0.005 C 
ATOM     14  C   UNL     1      28.638 -23.697 -15.620  0.00  0.00    +0.143 C 
ATOM     15  C   UNL     1      29.833 -25.274 -14.231  0.00  0.00    +0.002 C 
ATOM     16  C   UNL     1      28.634 -24.794 -14.758  0.00  0.00    +0.024 C 
BRANCH  14  19
ATOM     17  O   UNL     1      27.191 -23.357 -17.382  0.00  0.00    -0.126 OA
ATOM     18  O   UNL     1      26.597 -22.649 -15.391  0.00  0.00    -0.126 OA
ATOM     19  N   UNL     1      27.417 -23.211 -16.157  0.00  0.00    +0.058 N 
ENDBRANCH  14  19
ENDBRANCH   9  11
ENDBRANCH   1   8
BRANCH   2  20
ATOM     20  O   UNL     1      35.125 -22.927 -15.841  0.00  0.00    -0.452 OA
BRANCH  20  21
ATOM     21  C   UNL     1      36.325 -23.527 -15.497  0.00  0.00    +0.146 C 
ATOM     22  C   UNL     1      37.520 -25.389 -14.580  0.00  0.00    +0.085 C 
ATOM     23  C   UNL     1      36.311 -24.786 -14.925  0.00  0.00    +0.044 C 
ATOM     24  C   UNL     1      38.724 -24.724 -14.813  0.00  0.00    +0.082 C 
ATOM     25  C   UNL     1      37.508 -22.850 -15.737  0.00  0.00    +0.038 C 
ATOM     26  C   UNL     1      38.717 -23.455 -15.392  0.00  0.00    +0.010 C 
BRANCH  22  28
ATOM     27  O   UNL     1      37.987 -27.732 -14.471  0.00  0.00    -0.245 OA
ATOM     28  C   UNL     1      37.493 -26.715 -13.978  0.00  0.00    +0.338 C 
BRANCH  28  29
ATOM     29  O   UNL     1      36.851 -26.727 -12.779  0.00  0.00    -0.477 OA
ATOM     30  H   UNL     1      36.049 -26.255 -12.673  0.00  0.00    +0.295 HD
ENDBRANCH  28  29
ENDBRANCH  22  28
BRANCH  24  32
ATOM     31  O   UNL     1      40.607 -25.153 -13.402  0.00  0.00    -0.245 OA
ATOM     32  C   UNL     1      40.003 -25.326 -14.465  0.00  0.00    +0.338 C 
BRANCH  32  33
ATOM     33  O   UNL     1      40.486 -26.126 -15.453  0.00  0.00    -0.477 OA
ATOM     34  H   UNL     1      41.394 -26.353 -15.470  0.00  0.00    +0.295 HD
ENDBRANCH  32  33
ENDBRANCH  24  32
ENDBRANCH  20  21
ENDBRANCH   2  20
TORSDOF 9
ENDMDL
