MODEL 1
REMARK VINA RESULT:     -12.1      0.000      0.000
REMARK  Name = 44129603
REMARK  3 active torsions:
REMARK  status: ('A' for Active; 'I' for Inactive)
REMARK    1  A    between atoms: N_5  and  C_17
REMARK    2  A    between atoms: C_12  and  C_24
REMARK    3  A    between atoms: C_24  and  O_25
REMARK                            x       y       z     vdW  Elec       q    Type
REMARK                         _______ _______ _______ _____ _____    ______ ____
ROOT
ATOM      1  N   UNL     1      36.608 -22.969 -14.761  0.00  0.00    -0.246 N 
ATOM      2  N   UNL     1      37.579 -23.053 -13.829  0.00  0.00    -0.163 NA
ATOM      3  N   UNL     1      34.021 -22.867 -16.210  0.00  0.00    -0.336 NA
ATOM      4  N   UNL     1      31.702 -23.544 -16.233  0.00  0.00    -0.170 NA
ATOM      5  N   UNL     1      32.643 -22.386 -18.045  0.00  0.00    -0.247 N 
ATOM      6  C   UNL     1      34.431 -24.142 -12.125  0.00  0.00    +0.035 C 
ATOM      7  C   UNL     1      35.565 -23.703 -12.981  0.00  0.00    +0.024 A 
ATOM      8  C   UNL     1      33.272 -24.728 -12.977  0.00  0.00    +0.035 C 
ATOM      9  C   UNL     1      35.387 -23.354 -14.301  0.00  0.00    +0.106 A 
ATOM     10  C   UNL     1      33.067 -24.050 -14.315  0.00  0.00    +0.030 C 
ATOM     11  C   UNL     1      34.118 -23.423 -14.988  0.00  0.00    +0.158 C 
ATOM     12  C   UNL     1      36.934 -23.498 -12.743  0.00  0.00    +0.174 A 
ATOM     13  C   UNL     1      31.872 -24.087 -15.007  0.00  0.00    +0.110 C 
ATOM     14  C   UNL     1      36.954 -22.479 -16.076  0.00  0.00    +0.154 C 
ATOM     15  C   UNL     1      32.797 -22.962 -16.765  0.00  0.00    +0.149 C 
ATOM     16  H   UNL     1      31.734 -22.476 -18.413  0.00  0.00    +0.165 HD
ENDROOT
BRANCH   5  17
ATOM     17  C   UNL     1      33.532 -21.708 -18.899  0.00  0.00    +0.058 C 
ATOM     18  C   UNL     1      33.048 -20.762 -19.800  0.00  0.00    +0.015 C 
ATOM     19  C   UNL     1      34.899 -21.984 -18.842  0.00  0.00    +0.015 C 
ATOM     20  C   UNL     1      33.931 -20.089 -20.646  0.00  0.00    +0.001 C 
ATOM     21  C   UNL     1      35.781 -21.311 -19.688  0.00  0.00    +0.001 C 
ATOM     22  C   UNL     1      35.297 -20.364 -20.590  0.00  0.00    +0.000 C 
ENDBRANCH   5  17
BRANCH  12  24
ATOM     23  O   UNL     1      37.629 -24.748 -10.826  0.00  0.00    -0.243 OA
ATOM     24  C   UNL     1      37.660 -23.717 -11.525  0.00  0.00    +0.357 C 
BRANCH  24  25
ATOM     25  O   UNL     1      38.436 -22.650 -11.160  0.00  0.00    -0.476 OA
ATOM     26  H   UNL     1      39.362 -22.672 -11.306  0.00  0.00    +0.295 HD
ENDBRANCH  24  25
ENDBRANCH  12  24
TORSDOF 3
ENDMDL
MODEL 2
REMARK VINA RESULT:     -10.2     11.717     14.765
REMARK  Name = 44129603
REMARK  3 active torsions:
REMARK  status: ('A' for Active; 'I' for Inactive)
REMARK    1  A    between atoms: N_5  and  C_17
REMARK    2  A    between atoms: C_12  and  C_24
REMARK    3  A    between atoms: C_24  and  O_25
REMARK                            x       y       z     vdW  Elec       q    Type
REMARK                         _______ _______ _______ _____ _____    ______ ____
ROOT
ATOM      1  N   UNL     1      33.788 -12.026 -23.785  0.00  0.00    -0.246 N 
ATOM      2  N   UNL     1      34.231 -13.224 -24.217  0.00  0.00    -0.163 NA
ATOM      3  N   UNL     1      32.764  -9.753 -22.175  0.00  0.00    -0.336 NA
ATOM      4  N   UNL     1      31.466  -9.076 -20.254  0.00  0.00    -0.170 NA
ATOM      5  N   UNL     1      32.337  -7.488 -21.747  0.00  0.00    -0.247 N 
ATOM      6  C   UNL     1      32.761 -13.837 -20.831  0.00  0.00    +0.035 C 
ATOM      7  C   UNL     1      33.271 -13.394 -22.156  0.00  0.00    +0.024 A 
ATOM      8  C   UNL     1      31.667 -12.874 -20.294  0.00  0.00    +0.035 C 
ATOM      9  C   UNL     1      33.201 -12.079 -22.560  0.00  0.00    +0.106 A 
ATOM     10  C   UNL     1      31.888 -11.415 -20.635  0.00  0.00    +0.030 C 
ATOM     11  C   UNL     1      32.594 -11.027 -21.776  0.00  0.00    +0.158 C 
ATOM     12  C   UNL     1      33.915 -14.055 -23.215  0.00  0.00    +0.174 A 
ATOM     13  C   UNL     1      31.331 -10.377 -19.914  0.00  0.00    +0.110 C 
ATOM     14  C   UNL     1      34.000 -10.869 -24.625  0.00  0.00    +0.154 C 
ATOM     15  C   UNL     1      32.181  -8.841 -21.374  0.00  0.00    +0.149 C 
ATOM     16  H   UNL     1      31.897  -6.855 -21.134  0.00  0.00    +0.165 HD
ENDROOT
BRANCH   5  17
ATOM     17  C   UNL     1      32.997  -6.866 -22.823  0.00  0.00    +0.058 C 
ATOM     18  C   UNL     1      32.272  -6.113 -23.745  0.00  0.00    +0.015 C 
ATOM     19  C   UNL     1      34.378  -7.003 -22.965  0.00  0.00    +0.015 C 
ATOM     20  C   UNL     1      32.928  -5.496 -24.812  0.00  0.00    +0.001 C 
ATOM     21  C   UNL     1      35.034  -6.386 -24.031  0.00  0.00    +0.001 C 
ATOM     22  C   UNL     1      34.308  -5.633 -24.954  0.00  0.00    +0.000 C 
ENDBRANCH   5  17
BRANCH  12  24
ATOM     23  O   UNL     1      34.911 -16.111 -22.506  0.00  0.00    -0.243 OA
ATOM     24  C   UNL     1      34.237 -15.449 -23.319  0.00  0.00    +0.357 C 
BRANCH  24  25
ATOM     25  O   UNL     1      33.720 -16.040 -24.441  0.00  0.00    -0.476 OA
ATOM     26  H   UNL     1      33.117 -16.753 -24.360  0.00  0.00    +0.295 HD
ENDBRANCH  24  25
ENDBRANCH  12  24
TORSDOF 3
ENDMDL
MODEL 3
REMARK VINA RESULT:      -9.9      3.608      6.708
REMARK  Name = 44129603
REMARK  3 active torsions:
REMARK  status: ('A' for Active; 'I' for Inactive)
REMARK    1  A    between atoms: N_5  and  C_17
REMARK    2  A    between atoms: C_12  and  C_24
REMARK    3  A    between atoms: C_24  and  O_25
REMARK                            x       y       z     vdW  Elec       q    Type
REMARK                         _______ _______ _______ _____ _____    ______ ____
ROOT
ATOM      1  N   UNL     1      36.467 -21.794 -17.655  0.00  0.00    -0.246 N 
ATOM      2  N   UNL     1      36.844 -21.038 -18.706  0.00  0.00    -0.163 NA
ATOM      3  N   UNL     1      35.019 -23.568 -15.767  0.00  0.00    -0.336 NA
ATOM      4  N   UNL     1      32.870 -24.363 -15.003  0.00  0.00    -0.170 NA
ATOM      5  N   UNL     1      34.852 -25.001 -13.919  0.00  0.00    -0.247 N 
ATOM      6  C   UNL     1      33.205 -21.745 -19.211  0.00  0.00    +0.035 C 
ATOM      7  C   UNL     1      34.629 -21.561 -18.821  0.00  0.00    +0.024 A 
ATOM      8  C   UNL     1      32.315 -22.058 -17.977  0.00  0.00    +0.035 C 
ATOM      9  C   UNL     1      35.147 -22.126 -17.678  0.00  0.00    +0.106 A 
ATOM     10  C   UNL     1      32.984 -22.906 -16.916  0.00  0.00    +0.030 C 
ATOM     11  C   UNL     1      34.369 -22.897 -16.735  0.00  0.00    +0.158 C 
ATOM     12  C   UNL     1      35.717 -20.904 -19.417  0.00  0.00    +0.174 A 
ATOM     13  C   UNL     1      32.282 -23.660 -15.996  0.00  0.00    +0.110 C 
ATOM     14  C   UNL     1      37.465 -22.169 -16.680  0.00  0.00    +0.154 C 
ATOM     15  C   UNL     1      34.216 -24.273 -14.948  0.00  0.00    +0.149 C 
ATOM     16  H   UNL     1      34.228 -25.503 -13.345  0.00  0.00    +0.165 HD
ENDROOT
BRANCH   5  17
ATOM     17  C   UNL     1      36.202 -25.150 -13.552  0.00  0.00    +0.058 C 
ATOM     18  C   UNL     1      36.694 -24.498 -12.422  0.00  0.00    +0.015 C 
ATOM     19  C   UNL     1      37.047 -25.953 -14.318  0.00  0.00    +0.015 C 
ATOM     20  C   UNL     1      38.033 -24.647 -12.058  0.00  0.00    +0.001 C 
ATOM     21  C   UNL     1      38.386 -26.102 -13.954  0.00  0.00    +0.001 C 
ATOM     22  C   UNL     1      38.878 -25.449 -12.824  0.00  0.00    +0.000 C 
ENDBRANCH   5  17
BRANCH  12  24
ATOM     23  O   UNL     1      34.838 -20.132 -21.503  0.00  0.00    -0.243 OA
ATOM     24  C   UNL     1      35.730 -20.142 -20.633  0.00  0.00    +0.357 C 
BRANCH  24  25
ATOM     25  O   UNL     1      36.858 -19.380 -20.780  0.00  0.00    -0.476 OA
ATOM     26  H   UNL     1      37.286 -19.332 -21.613  0.00  0.00    +0.295 HD
ENDBRANCH  24  25
ENDBRANCH  12  24
TORSDOF 3
ENDMDL
MODEL 4
REMARK VINA RESULT:      -9.9      3.556      7.047
REMARK  Name = 44129603
REMARK  3 active torsions:
REMARK  status: ('A' for Active; 'I' for Inactive)
REMARK    1  A    between atoms: N_5  and  C_17
REMARK    2  A    between atoms: C_12  and  C_24
REMARK    3  A    between atoms: C_24  and  O_25
REMARK                            x       y       z     vdW  Elec       q    Type
REMARK                         _______ _______ _______ _____ _____    ______ ____
ROOT
ATOM      1  N   UNL     1      32.368 -23.956 -14.839  0.00  0.00    -0.246 N 
ATOM      2  N   UNL     1      31.022 -24.026 -14.817  0.00  0.00    -0.163 NA
ATOM      3  N   UNL     1      35.199 -23.265 -15.402  0.00  0.00    -0.336 NA
ATOM      4  N   UNL     1      36.773 -22.403 -17.018  0.00  0.00    -0.170 NA
ATOM      5  N   UNL     1      37.498 -23.231 -14.945  0.00  0.00    -0.247 N 
ATOM      6  C   UNL     1      31.891 -21.987 -17.832  0.00  0.00    +0.035 C 
ATOM      7  C   UNL     1      31.756 -22.828 -16.613  0.00  0.00    +0.024 A 
ATOM      8  C   UNL     1      33.279 -22.179 -18.502  0.00  0.00    +0.035 C 
ATOM      9  C   UNL     1      32.853 -23.255 -15.899  0.00  0.00    +0.106 A 
ATOM     10  C   UNL     1      34.422 -22.398 -17.534  0.00  0.00    +0.030 C 
ATOM     11  C   UNL     1      34.219 -22.975 -16.279  0.00  0.00    +0.158 C 
ATOM     12  C   UNL     1      30.654 -23.331 -15.902  0.00  0.00    +0.174 A 
ATOM     13  C   UNL     1      35.742 -22.143 -17.852  0.00  0.00    +0.110 C 
ATOM     14  C   UNL     1      33.109 -24.585 -13.769  0.00  0.00    +0.154 C 
ATOM     15  C   UNL     1      36.436 -22.953 -15.833  0.00  0.00    +0.149 C 
ATOM     16  H   UNL     1      38.384 -22.987 -15.298  0.00  0.00    +0.165 HD
ENDROOT
BRANCH   5  17
ATOM     17  C   UNL     1      37.539 -23.789 -13.654  0.00  0.00    +0.058 C 
ATOM     18  C   UNL     1      37.114 -23.041 -12.557  0.00  0.00    +0.015 C 
ATOM     19  C   UNL     1      38.005 -25.091 -13.472  0.00  0.00    +0.015 C 
ATOM     20  C   UNL     1      37.154 -23.595 -11.276  0.00  0.00    +0.001 C 
ATOM     21  C   UNL     1      38.045 -25.645 -12.192  0.00  0.00    +0.001 C 
ATOM     22  C   UNL     1      37.620 -24.897 -11.095  0.00  0.00    +0.000 C 
ENDBRANCH   5  17
BRANCH  12  24
ATOM     23  O   UNL     1      28.696 -22.139 -16.585  0.00  0.00    -0.243 OA
ATOM     24  C   UNL     1      29.261 -23.187 -16.215  0.00  0.00    +0.357 C 
BRANCH  24  25
ATOM     25  O   UNL     1      28.552 -24.349 -16.071  0.00  0.00    -0.476 OA
ATOM     26  H   UNL     1      28.549 -24.984 -16.760  0.00  0.00    +0.295 HD
ENDBRANCH  24  25
ENDBRANCH  12  24
TORSDOF 3
ENDMDL
MODEL 5
REMARK VINA RESULT:      -9.8      1.770      4.490
REMARK  Name = 44129603
REMARK  3 active torsions:
REMARK  status: ('A' for Active; 'I' for Inactive)
REMARK    1  A    between atoms: N_5  and  C_17
REMARK    2  A    between atoms: C_12  and  C_24
REMARK    3  A    between atoms: C_24  and  O_25
REMARK                            x       y       z     vdW  Elec       q    Type
REMARK                         _______ _______ _______ _____ _____    ______ ____
ROOT
ATOM      1  N   UNL     1      34.957 -23.810 -13.157  0.00  0.00    -0.246 N 
ATOM      2  N   UNL     1      35.875 -24.105 -12.214  0.00  0.00    -0.163 NA
ATOM      3  N   UNL     1      33.535 -23.213 -15.692  0.00  0.00    -0.336 NA
ATOM      4  N   UNL     1      33.708 -22.327 -17.932  0.00  0.00    -0.170 NA
ATOM      5  N   UNL     1      31.636 -22.986 -17.048  0.00  0.00    -0.247 N 
ATOM      6  C   UNL     1      37.815 -23.254 -15.297  0.00  0.00    +0.035 C 
ATOM      7  C   UNL     1      36.871 -23.534 -14.183  0.00  0.00    +0.024 A 
ATOM      8  C   UNL     1      37.174 -22.327 -16.365  0.00  0.00    +0.035 C 
ATOM      9  C   UNL     1      35.507 -23.456 -14.350  0.00  0.00    +0.106 A 
ATOM     10  C   UNL     1      35.694 -22.554 -16.590  0.00  0.00    +0.030 C 
ATOM     11  C   UNL     1      34.867 -23.057 -15.583  0.00  0.00    +0.158 C 
ATOM     12  C   UNL     1      37.042 -23.938 -12.849  0.00  0.00    +0.174 A 
ATOM     13  C   UNL     1      35.041 -22.191 -17.752  0.00  0.00    +0.110 C 
ATOM     14  C   UNL     1      33.557 -23.921 -12.816  0.00  0.00    +0.154 C 
ATOM     15  C   UNL     1      33.030 -22.834 -16.882  0.00  0.00    +0.149 C 
ATOM     16  H   UNL     1      31.309 -22.698 -17.931  0.00  0.00    +0.165 HD
ENDROOT
BRANCH   5  17
ATOM     17  C   UNL     1      30.622 -23.467 -16.200  0.00  0.00    +0.058 C 
ATOM     18  C   UNL     1      29.367 -22.859 -16.198  0.00  0.00    +0.015 C 
ATOM     19  C   UNL     1      30.872 -24.554 -15.362  0.00  0.00    +0.015 C 
ATOM     20  C   UNL     1      28.361 -23.337 -15.357  0.00  0.00    +0.001 C 
ATOM     21  C   UNL     1      29.866 -25.032 -14.521  0.00  0.00    +0.001 C 
ATOM     22  C   UNL     1      28.612 -24.424 -14.519  0.00  0.00    +0.000 C 
ENDBRANCH   5  17
BRANCH  12  24
ATOM     23  O   UNL     1      38.705 -23.498 -11.187  0.00  0.00    -0.243 OA
ATOM     24  C   UNL     1      38.272 -24.165 -12.146  0.00  0.00    +0.357 C 
BRANCH  24  25
ATOM     25  O   UNL     1      38.982 -25.231 -12.631  0.00  0.00    -0.476 OA
ATOM     26  H   UNL     1      39.398 -25.826 -12.038  0.00  0.00    +0.295 HD
ENDBRANCH  24  25
ENDBRANCH  12  24
TORSDOF 3
ENDMDL
MODEL 6
REMARK VINA RESULT:      -9.4      2.564      4.389
REMARK  Name = 44129603
REMARK  3 active torsions:
REMARK  status: ('A' for Active; 'I' for Inactive)
REMARK    1  A    between atoms: N_5  and  C_17
REMARK    2  A    between atoms: C_12  and  C_24
REMARK    3  A    between atoms: C_24  and  O_25
REMARK                            x       y       z     vdW  Elec       q    Type
REMARK                         _______ _______ _______ _____ _____    ______ ____
ROOT
ATOM      1  N   UNL     1      32.383 -23.060 -16.103  0.00  0.00    -0.246 N 
ATOM      2  N   UNL     1      31.315 -23.634 -15.513  0.00  0.00    -0.163 NA
ATOM      3  N   UNL     1      35.111 -22.319 -17.006  0.00  0.00    -0.336 NA
ATOM      4  N   UNL     1      37.467 -22.297 -16.475  0.00  0.00    -0.170 NA
ATOM      5  N   UNL     1      36.657 -21.273 -18.425  0.00  0.00    -0.247 N 
ATOM      6  C   UNL     1      34.314 -24.951 -13.702  0.00  0.00    +0.035 C 
ATOM      7  C   UNL     1      33.259 -24.301 -14.526  0.00  0.00    +0.024 A 
ATOM      8  C   UNL     1      35.620 -24.111 -13.688  0.00  0.00    +0.035 C 
ATOM      9  C   UNL     1      33.568 -23.424 -15.541  0.00  0.00    +0.106 A 
ATOM     10  C   UNL     1      35.927 -23.400 -14.990  0.00  0.00    +0.030 C 
ATOM     11  C   UNL     1      34.914 -23.016 -15.872  0.00  0.00    +0.158 C 
ATOM     12  C   UNL     1      31.858 -24.395 -14.553  0.00  0.00    +0.174 A 
ATOM     13  C   UNL     1      37.197 -22.994 -15.348  0.00  0.00    +0.110 C 
ATOM     14  C   UNL     1      32.160 -22.181 -17.228  0.00  0.00    +0.154 C 
ATOM     15  C   UNL     1      36.398 -21.999 -17.243  0.00  0.00    +0.149 C 
ATOM     16  H   UNL     1      37.609 -21.062 -18.560  0.00  0.00    +0.165 HD
ENDROOT
BRANCH   5  17
ATOM     17  C   UNL     1      35.822 -20.792 -19.450  0.00  0.00    +0.058 C 
ATOM     18  C   UNL     1      34.472 -21.140 -19.471  0.00  0.00    +0.015 C 
ATOM     19  C   UNL     1      36.345 -19.967 -20.446  0.00  0.00    +0.015 C 
ATOM     20  C   UNL     1      33.643 -20.662 -20.487  0.00  0.00    +0.001 C 
ATOM     21  C   UNL     1      35.516 -19.489 -21.462  0.00  0.00    +0.001 C 
ATOM     22  C   UNL     1      34.166 -19.836 -21.482  0.00  0.00    +0.000 C 
ENDBRANCH   5  17
BRANCH  12  24
ATOM     23  O   UNL     1      30.973 -25.119 -12.452  0.00  0.00    -0.243 OA
ATOM     24  C   UNL     1      31.009 -25.173 -13.697  0.00  0.00    +0.357 C 
BRANCH  24  25
ATOM     25  O   UNL     1      30.191 -26.030 -14.382  0.00  0.00    -0.476 OA
ATOM     26  H   UNL     1      30.353 -26.209 -15.288  0.00  0.00    +0.295 HD
ENDBRANCH  24  25
ENDBRANCH  12  24
TORSDOF 3
ENDMDL
MODEL 7
REMARK VINA RESULT:      -9.2      3.491      6.720
REMARK  Name = 44129603
REMARK  3 active torsions:
REMARK  status: ('A' for Active; 'I' for Inactive)
REMARK    1  A    between atoms: N_5  and  C_17
REMARK    2  A    between atoms: C_12  and  C_24
REMARK    3  A    between atoms: C_24  and  O_25
REMARK                            x       y       z     vdW  Elec       q    Type
REMARK                         _______ _______ _______ _____ _____    ______ ____
ROOT
ATOM      1  N   UNL     1      35.178 -22.590 -16.641  0.00  0.00    -0.246 N 
ATOM      2  N   UNL     1      35.200 -22.067 -17.884  0.00  0.00    -0.163 NA
ATOM      3  N   UNL     1      34.425 -23.927 -14.102  0.00  0.00    -0.336 NA
ATOM      4  N   UNL     1      32.629 -24.524 -12.601  0.00  0.00    -0.170 NA
ATOM      5  N   UNL     1      34.867 -24.956 -12.042  0.00  0.00    -0.247 N 
ATOM      6  C   UNL     1      31.607 -22.814 -17.151  0.00  0.00    +0.035 C 
ATOM      7  C   UNL     1      33.072 -22.574 -17.240  0.00  0.00    +0.024 A 
ATOM      8  C   UNL     1      31.128 -22.860 -15.674  0.00  0.00    +0.035 C 
ATOM      9  C   UNL     1      33.926 -22.902 -16.211  0.00  0.00    +0.106 A 
ATOM     10  C   UNL     1      32.115 -23.485 -14.711  0.00  0.00    +0.030 C 
ATOM     11  C   UNL     1      33.491 -23.457 -14.949  0.00  0.00    +0.158 C 
ATOM     12  C   UNL     1      33.910 -22.064 -18.245  0.00  0.00    +0.174 A 
ATOM     13  C   UNL     1      31.745 -24.029 -13.496  0.00  0.00    +0.110 C 
ATOM     14  C   UNL     1      36.433 -22.773 -15.948  0.00  0.00    +0.154 C 
ATOM     15  C   UNL     1      33.927 -24.443 -12.961  0.00  0.00    +0.149 C 
ATOM     16  H   UNL     1      34.461 -25.324 -11.224  0.00  0.00    +0.165 HD
ENDROOT
BRANCH   5  17
ATOM     17  C   UNL     1      36.271 -25.045 -12.064  0.00  0.00    +0.058 C 
ATOM     18  C   UNL     1      36.892 -26.089 -12.748  0.00  0.00    +0.015 C 
ATOM     19  C   UNL     1      37.040 -24.088 -11.403  0.00  0.00    +0.015 C 
ATOM     20  C   UNL     1      38.285 -26.177 -12.771  0.00  0.00    +0.001 C 
ATOM     21  C   UNL     1      38.433 -24.176 -11.426  0.00  0.00    +0.001 C 
ATOM     22  C   UNL     1      39.055 -25.220 -12.110  0.00  0.00    +0.000 C 
ENDBRANCH   5  17
BRANCH  12  24
ATOM     23  O   UNL     1      32.438 -21.739 -20.102  0.00  0.00    -0.243 OA
ATOM     24  C   UNL     1      33.534 -21.563 -19.536  0.00  0.00    +0.357 C 
BRANCH  24  25
ATOM     25  O   UNL     1      34.523 -20.835 -20.142  0.00  0.00    -0.476 OA
ATOM     26  H   UNL     1      34.304 -20.204 -20.800  0.00  0.00    +0.295 HD
ENDBRANCH  24  25
ENDBRANCH  12  24
TORSDOF 3
ENDMDL
