MODEL 1
REMARK VINA RESULT:     -12.9      0.000      0.000
REMARK  Name = 6105620
REMARK  4 active torsions:
REMARK  status: ('A' for Active; 'I' for Inactive)
REMARK    1  A    between atoms: N_2  and  C_7
REMARK    2  A    between atoms: N_3  and  C_21
REMARK    3  A    between atoms: C_9  and  C_29
REMARK    4  A    between atoms: C_30  and  C_31
REMARK                            x       y       z     vdW  Elec       q    Type
REMARK                         _______ _______ _______ _____ _____    ______ ____
ROOT
ATOM      1  N   UNL     1      33.628 -22.767 -17.165  0.00  0.00    -0.086 NA
ATOM      2  N   UNL     1      35.016 -22.531 -16.780  0.00  0.00    -0.132 N 
ATOM      3  N   UNL     1      33.494 -22.223 -18.475  0.00  0.00    -0.240 N 
ATOM      4  N   UNL     1      35.635 -21.796 -17.782  0.00  0.00    -0.146 NA
ATOM      5  C   UNL     1      34.719 -21.646 -18.727  0.00  0.00    +0.162 C 
ATOM      6  H   UNL     1      32.706 -22.253 -19.065  0.00  0.00    +0.170 HD
ENDROOT
BRANCH   2  11
ATOM      7  O   UNL     1      36.569 -27.218 -15.486  0.00  0.00    -0.220 OA
ATOM      8  O   UNL     1      38.653 -24.196 -11.806  0.00  0.00    -0.220 OA
ATOM      9  N   UNL     1      37.821 -26.989 -13.594  0.00  0.00    -0.062 NA
ATOM     10  N   UNL     1      38.321 -26.264 -12.710  0.00  0.00    -0.062 NA
ATOM     11  C   UNL     1      35.797 -23.107 -15.756  0.00  0.00    +0.089 C 
ATOM     12  C   UNL     1      36.022 -24.494 -15.716  0.00  0.00    +0.030 C 
ATOM     13  C   UNL     1      36.368 -22.304 -14.752  0.00  0.00    +0.019 C 
ATOM     14  C   UNL     1      36.797 -25.055 -14.697  0.00  0.00    +0.097 C 
ATOM     15  C   UNL     1      37.351 -24.252 -13.719  0.00  0.00    +0.096 C 
ATOM     16  C   UNL     1      37.142 -22.870 -13.737  0.00  0.00    +0.014 C 
ATOM     17  C   UNL     1      37.055 -26.496 -14.621  0.00  0.00    +0.174 C 
ATOM     18  C   UNL     1      38.155 -24.902 -12.678  0.00  0.00    +0.174 C 
ENDBRANCH   2  11
BRANCH   1  21
ATOM     19  S   UNL     1      32.924 -23.904 -14.847  0.00  0.00    -0.074 S 
ATOM     20  N   UNL     1      31.349 -23.234 -16.832  0.00  0.00    -0.310 N 
ATOM     21  C   UNL     1      32.629 -23.228 -16.446  0.00  0.00    +0.222 C 
ATOM     22  C   UNL     1      30.526 -23.769 -15.893  0.00  0.00    +0.052 C 
ATOM     23  C   UNL     1      31.175 -24.198 -14.731  0.00  0.00    +0.041 C 
ATOM     24  C   UNL     1      29.151 -23.902 -16.022  0.00  0.00    +0.015 C 
ATOM     25  C   UNL     1      30.474 -24.766 -13.680  0.00  0.00    +0.007 C 
ATOM     26  C   UNL     1      28.432 -24.473 -14.970  0.00  0.00    +0.001 C 
ATOM     27  C   UNL     1      29.090 -24.902 -13.807  0.00  0.00    +0.001 C 
ATOM     28  H   UNL     1      31.037 -22.888 -17.700  0.00  0.00    +0.149 HD
ENDBRANCH   1  21
BRANCH   5  29
ATOM     29  C   UNL     1      35.022 -20.897 -19.956  0.00  0.00    +0.037 C 
ATOM     30  C   UNL     1      34.271 -19.887 -20.360  0.00  0.00    +0.003 C 
BRANCH  30  31
ATOM     31  C   UNL     1      34.529 -19.115 -21.588  0.00  0.00    +0.000 C 
ATOM     32  C   UNL     1      35.272 -17.947 -21.512  0.00  0.00    +0.000 C 
ATOM     33  C   UNL     1      34.023 -19.569 -22.795  0.00  0.00    +0.000 C 
ATOM     34  C   UNL     1      35.516 -17.216 -22.674  0.00  0.00    +0.000 C 
ATOM     35  C   UNL     1      34.267 -18.838 -23.957  0.00  0.00    +0.000 C 
ATOM     36  C   UNL     1      35.014 -17.661 -23.897  0.00  0.00    +0.000 C 
ENDBRANCH  30  31
ENDBRANCH   5  29
TORSDOF 4
ENDMDL
MODEL 2
REMARK VINA RESULT:     -12.8      2.377      5.432
REMARK  Name = 6105620
REMARK  4 active torsions:
REMARK  status: ('A' for Active; 'I' for Inactive)
REMARK    1  A    between atoms: N_2  and  C_7
REMARK    2  A    between atoms: N_3  and  C_21
REMARK    3  A    between atoms: C_9  and  C_29
REMARK    4  A    between atoms: C_30  and  C_31
REMARK                            x       y       z     vdW  Elec       q    Type
REMARK                         _______ _______ _______ _____ _____    ______ ____
ROOT
ATOM      1  N   UNL     1      35.615 -22.584 -16.977  0.00  0.00    -0.086 NA
ATOM      2  N   UNL     1      34.196 -22.616 -17.320  0.00  0.00    -0.132 N 
ATOM      3  N   UNL     1      36.231 -21.759 -17.961  0.00  0.00    -0.240 N 
ATOM      4  N   UNL     1      34.013 -21.920 -18.508  0.00  0.00    -0.146 NA
ATOM      5  C   UNL     1      35.208 -21.453 -18.832  0.00  0.00    +0.162 C 
ATOM      6  H   UNL     1      37.172 -21.473 -18.009  0.00  0.00    +0.170 HD
ENDROOT
BRANCH   2  11
ATOM      7  O   UNL     1      33.359 -24.692 -12.733  0.00  0.00    -0.220 OA
ATOM      8  O   UNL     1      28.573 -24.016 -14.646  0.00  0.00    -0.220 OA
ATOM      9  N   UNL     1      31.098 -24.883 -12.509  0.00  0.00    -0.062 NA
ATOM     10  N   UNL     1      29.949 -24.721 -12.968  0.00  0.00    -0.062 NA
ATOM     11  C   UNL     1      33.074 -22.998 -16.558  0.00  0.00    +0.089 C 
ATOM     12  C   UNL     1      33.230 -23.563 -15.279  0.00  0.00    +0.030 C 
ATOM     13  C   UNL     1      31.771 -22.823 -17.059  0.00  0.00    +0.019 C 
ATOM     14  C   UNL     1      32.111 -23.938 -14.531  0.00  0.00    +0.097 C 
ATOM     15  C   UNL     1      30.839 -23.760 -15.039  0.00  0.00    +0.096 C 
ATOM     16  C   UNL     1      30.657 -23.200 -16.307  0.00  0.00    +0.014 C 
ATOM     17  C   UNL     1      32.233 -24.530 -13.195  0.00  0.00    +0.174 C 
ATOM     18  C   UNL     1      29.707 -24.174 -14.204  0.00  0.00    +0.174 C 
ENDBRANCH   2  11
BRANCH   1  21
ATOM     19  S   UNL     1      37.912 -22.820 -15.625  0.00  0.00    -0.074 S 
ATOM     20  N   UNL     1      35.782 -24.334 -15.417  0.00  0.00    -0.310 N 
ATOM     21  C   UNL     1      36.269 -23.272 -16.069  0.00  0.00    +0.222 C 
ATOM     22  C   UNL     1      36.672 -24.853 -14.532  0.00  0.00    +0.052 C 
ATOM     23  C   UNL     1      37.898 -24.181 -14.482  0.00  0.00    +0.041 C 
ATOM     24  C   UNL     1      36.438 -25.954 -13.721  0.00  0.00    +0.015 C 
ATOM     25  C   UNL     1      38.909 -24.589 -13.629  0.00  0.00    +0.007 C 
ATOM     26  C   UNL     1      37.450 -26.375 -12.856  0.00  0.00    +0.001 C 
ATOM     27  C   UNL     1      38.678 -25.697 -12.811  0.00  0.00    +0.001 C 
ATOM     28  H   UNL     1      34.879 -24.699 -15.563  0.00  0.00    +0.149 HD
ENDBRANCH   1  21
BRANCH   5  29
ATOM     29  C   UNL     1      35.400 -20.662 -20.057  0.00  0.00    +0.037 C 
ATOM     30  C   UNL     1      34.472 -19.832 -20.504  0.00  0.00    +0.003 C 
BRANCH  30  31
ATOM     31  C   UNL     1      34.614 -19.028 -21.730  0.00  0.00    +0.000 C 
ATOM     32  C   UNL     1      35.275 -17.810 -21.670  0.00  0.00    +0.000 C 
ATOM     33  C   UNL     1      34.084 -19.502 -22.918  0.00  0.00    +0.000 C 
ATOM     34  C   UNL     1      35.409 -17.048 -22.831  0.00  0.00    +0.000 C 
ATOM     35  C   UNL     1      34.219 -18.740 -24.079  0.00  0.00    +0.000 C 
ATOM     36  C   UNL     1      34.881 -17.513 -24.035  0.00  0.00    +0.000 C 
ENDBRANCH  30  31
ENDBRANCH   5  29
TORSDOF 4
ENDMDL
MODEL 3
REMARK VINA RESULT:     -12.4      2.434      5.984
REMARK  Name = 6105620
REMARK  4 active torsions:
REMARK  status: ('A' for Active; 'I' for Inactive)
REMARK    1  A    between atoms: N_2  and  C_7
REMARK    2  A    between atoms: N_3  and  C_21
REMARK    3  A    between atoms: C_9  and  C_29
REMARK    4  A    between atoms: C_30  and  C_31
REMARK                            x       y       z     vdW  Elec       q    Type
REMARK                         _______ _______ _______ _____ _____    ______ ____
ROOT
ATOM      1  N   UNL     1      35.623 -22.623 -16.570  0.00  0.00    -0.086 NA
ATOM      2  N   UNL     1      34.234 -22.868 -16.946  0.00  0.00    -0.132 N 
ATOM      3  N   UNL     1      36.167 -21.814 -17.608  0.00  0.00    -0.240 N 
ATOM      4  N   UNL     1      34.009 -22.307 -18.196  0.00  0.00    -0.146 NA
ATOM      5  C   UNL     1      35.147 -21.718 -18.530  0.00  0.00    +0.162 C 
ATOM      6  H   UNL     1      37.066 -21.414 -17.657  0.00  0.00    +0.170 HD
ENDROOT
BRANCH   2  11
ATOM      7  O   UNL     1      29.162 -22.299 -17.014  0.00  0.00    -0.220 OA
ATOM      8  O   UNL     1      29.974 -25.421 -12.937  0.00  0.00    -0.220 OA
ATOM      9  N   UNL     1      28.349 -23.513 -15.263  0.00  0.00    -0.062 NA
ATOM     10  N   UNL     1      28.543 -24.262 -14.284  0.00  0.00    -0.062 NA
ATOM     11  C   UNL     1      33.141 -23.325 -16.181  0.00  0.00    +0.089 C 
ATOM     12  C   UNL     1      31.826 -22.947 -16.508  0.00  0.00    +0.030 C 
ATOM     13  C   UNL     1      33.342 -24.170 -15.075  0.00  0.00    +0.019 C 
ATOM     14  C   UNL     1      30.750 -23.406 -15.744  0.00  0.00    +0.097 C 
ATOM     15  C   UNL     1      30.965 -24.235 -14.660  0.00  0.00    +0.096 C 
ATOM     16  C   UNL     1      32.263 -24.625 -14.316  0.00  0.00    +0.014 C 
ATOM     17  C   UNL     1      29.365 -23.034 -16.052  0.00  0.00    +0.174 C 
ATOM     18  C   UNL     1      29.793 -24.682 -13.900  0.00  0.00    +0.174 C 
ENDBRANCH   2  11
BRANCH   1  21
ATOM     19  S   UNL     1      35.884 -22.812 -13.913  0.00  0.00    -0.074 S 
ATOM     20  N   UNL     1      37.392 -23.930 -15.742  0.00  0.00    -0.310 N 
ATOM     21  C   UNL     1      36.325 -23.140 -15.586  0.00  0.00    +0.222 C 
ATOM     22  C   UNL     1      37.926 -24.323 -14.556  0.00  0.00    +0.052 C 
ATOM     23  C   UNL     1      37.259 -23.829 -13.430  0.00  0.00    +0.041 C 
ATOM     24  C   UNL     1      39.035 -25.144 -14.414  0.00  0.00    +0.015 C 
ATOM     25  C   UNL     1      37.681 -24.140 -12.148  0.00  0.00    +0.007 C 
ATOM     26  C   UNL     1      39.470 -25.464 -13.127  0.00  0.00    +0.001 C 
ATOM     27  C   UNL     1      38.797 -24.966 -12.001  0.00  0.00    +0.001 C 
ATOM     28  H   UNL     1      37.753 -24.198 -16.618  0.00  0.00    +0.149 HD
ENDBRANCH   1  21
BRANCH   5  29
ATOM     29  C   UNL     1      35.283 -21.018 -19.816  0.00  0.00    +0.037 C 
ATOM     30  C   UNL     1      34.624 -19.902 -20.075  0.00  0.00    +0.003 C 
BRANCH  30  31
ATOM     31  C   UNL     1      34.720 -19.171 -21.350  0.00  0.00    +0.000 C 
ATOM     32  C   UNL     1      35.327 -17.924 -21.374  0.00  0.00    +0.000 C 
ATOM     33  C   UNL     1      34.201 -19.742 -22.501  0.00  0.00    +0.000 C 
ATOM     34  C   UNL     1      35.418 -17.232 -22.582  0.00  0.00    +0.000 C 
ATOM     35  C   UNL     1      34.293 -19.050 -23.709  0.00  0.00    +0.000 C 
ATOM     36  C   UNL     1      34.901 -17.795 -23.749  0.00  0.00    +0.000 C 
ENDBRANCH  30  31
ENDBRANCH   5  29
TORSDOF 4
ENDMDL
MODEL 4
REMARK VINA RESULT:     -12.3      1.349      2.059
REMARK  Name = 6105620
REMARK  4 active torsions:
REMARK  status: ('A' for Active; 'I' for Inactive)
REMARK    1  A    between atoms: N_2  and  C_7
REMARK    2  A    between atoms: N_3  and  C_21
REMARK    3  A    between atoms: C_9  and  C_29
REMARK    4  A    between atoms: C_30  and  C_31
REMARK                            x       y       z     vdW  Elec       q    Type
REMARK                         _______ _______ _______ _____ _____    ______ ____
ROOT
ATOM      1  N   UNL     1      33.733 -23.157 -16.589  0.00  0.00    -0.086 NA
ATOM      2  N   UNL     1      35.104 -23.031 -16.107  0.00  0.00    -0.132 N 
ATOM      3  N   UNL     1      33.725 -22.570 -17.887  0.00  0.00    -0.240 N 
ATOM      4  N   UNL     1      35.838 -22.314 -17.043  0.00  0.00    -0.146 NA
ATOM      5  C   UNL     1      35.000 -22.074 -18.040  0.00  0.00    +0.162 C 
ATOM      6  H   UNL     1      32.978 -22.528 -18.528  0.00  0.00    +0.170 HD
ENDROOT
BRANCH   2  11
ATOM      7  O   UNL     1      37.678 -21.656 -11.919  0.00  0.00    -0.220 OA
ATOM      8  O   UNL     1      37.858 -26.850 -11.798  0.00  0.00    -0.220 OA
ATOM      9  N   UNL     1      38.353 -23.586 -10.908  0.00  0.00    -0.062 NA
ATOM     10  N   UNL     1      38.397 -24.833 -10.879  0.00  0.00    -0.062 NA
ATOM     11  C   UNL     1      35.773 -23.687 -15.053  0.00  0.00    +0.089 C 
ATOM     12  C   UNL     1      36.396 -22.953 -14.028  0.00  0.00    +0.030 C 
ATOM     13  C   UNL     1      35.833 -25.092 -15.004  0.00  0.00    +0.019 C 
ATOM     14  C   UNL     1      37.056 -23.612 -12.987  0.00  0.00    +0.097 C 
ATOM     15  C   UNL     1      37.105 -24.993 -12.955  0.00  0.00    +0.096 C 
ATOM     16  C   UNL     1      36.493 -25.745 -13.963  0.00  0.00    +0.014 C 
ATOM     17  C   UNL     1      37.717 -22.883 -11.901  0.00  0.00    +0.174 C 
ATOM     18  C   UNL     1      37.812 -25.624 -11.836  0.00  0.00    +0.174 C 
ENDBRANCH   2  11
BRANCH   1  21
ATOM     19  S   UNL     1      32.782 -24.174 -14.304  0.00  0.00    -0.074 S 
ATOM     20  N   UNL     1      31.421 -23.564 -16.459  0.00  0.00    -0.310 N 
ATOM     21  C   UNL     1      32.659 -23.566 -15.952  0.00  0.00    +0.222 C 
ATOM     22  C   UNL     1      30.499 -24.040 -15.583  0.00  0.00    +0.052 C 
ATOM     23  C   UNL     1      31.023 -24.429 -14.346  0.00  0.00    +0.041 C 
ATOM     24  C   UNL     1      29.140 -24.152 -15.840  0.00  0.00    +0.015 C 
ATOM     25  C   UNL     1      30.210 -24.935 -13.345  0.00  0.00    +0.007 C 
ATOM     26  C   UNL     1      28.310 -24.660 -14.838  0.00  0.00    +0.001 C 
ATOM     27  C   UNL     1      28.842 -25.050 -13.600  0.00  0.00    +0.001 C 
ATOM     28  H   UNL     1      31.203 -23.252 -17.367  0.00  0.00    +0.149 HD
ENDBRANCH   1  21
BRANCH   5  29
ATOM     29  C   UNL     1      35.436 -21.317 -19.222  0.00  0.00    +0.037 C 
ATOM     30  C   UNL     1      34.619 -20.500 -19.868  0.00  0.00    +0.003 C 
BRANCH  30  31
ATOM     31  C   UNL     1      35.007 -19.728 -21.061  0.00  0.00    +0.000 C 
ATOM     32  C   UNL     1      36.269 -19.157 -21.120  0.00  0.00    +0.000 C 
ATOM     33  C   UNL     1      34.103 -19.588 -22.101  0.00  0.00    +0.000 C 
ATOM     34  C   UNL     1      36.635 -18.426 -22.250  0.00  0.00    +0.000 C 
ATOM     35  C   UNL     1      34.470 -18.857 -23.232  0.00  0.00    +0.000 C 
ATOM     36  C   UNL     1      35.736 -18.276 -23.306  0.00  0.00    +0.000 C 
ENDBRANCH  30  31
ENDBRANCH   5  29
TORSDOF 4
ENDMDL
