MODEL 1
REMARK VINA RESULT:     -12.5      0.000      0.000
REMARK  Name = 46926973
REMARK  4 active torsions:
REMARK  status: ('A' for Active; 'I' for Inactive)
REMARK    1  A    between atoms: C_4  and  C_17
REMARK    2  A    between atoms: C_6  and  C_13
REMARK    3  A    between atoms: C_17  and  C_19
REMARK    4  A    between atoms: C_21  and  C_26
REMARK                            x       y       z     vdW  Elec       q    Type
REMARK                         _______ _______ _______ _____ _____    ______ ____
ROOT
ATOM      1  O   UNL     1      33.374 -19.552 -22.191  0.00  0.00    -0.274 OA
ATOM      2  N   UNL     1      35.530 -19.712 -21.266  0.00  0.00    -0.269 N 
ATOM      3  N   UNL     1      36.409 -20.802 -19.360  0.00  0.00    -0.229 NA
ATOM      4  C   UNL     1      34.573 -19.291 -22.199  0.00  0.00    +0.232 C 
ATOM      5  C   UNL     1      35.338 -20.512 -20.133  0.00  0.00    +0.134 C 
ATOM      6  C   UNL     1      34.927 -22.076 -17.935  0.00  0.00    +0.038 C 
ATOM      7  C   UNL     1      34.052 -20.959 -19.877  0.00  0.00    +0.035 C 
ATOM      8  C   UNL     1      33.851 -21.755 -18.755  0.00  0.00    +0.006 C 
ATOM      9  C   UNL     1      36.174 -21.579 -18.278  0.00  0.00    +0.102 C 
ATOM     10  H   UNL     1      36.453 -19.408 -21.428  0.00  0.00    +0.156 HD
ENDROOT
BRANCH   6  13
ATOM     11  N   UNL     1      35.877 -23.238 -16.104  0.00  0.00    -0.241 NA
ATOM     12  N   UNL     1      33.345 -24.085 -15.247  0.00  0.00    -0.239 NA
ATOM     13  C   UNL     1      34.750 -22.900 -16.763  0.00  0.00    +0.102 C 
ATOM     14  C   UNL     1      33.507 -23.316 -16.341  0.00  0.00    +0.118 C 
ATOM     15  C   UNL     1      35.715 -24.007 -15.009  0.00  0.00    +0.119 C 
ATOM     16  C   UNL     1      34.472 -24.424 -14.588  0.00  0.00    +0.120 C 
ENDBRANCH   6  13
BRANCH   4  17
ATOM     17  C   UNL     1      35.210 -18.434 -23.282  0.00  0.00    +0.113 C 
BRANCH  17  19
ATOM     18  N   UNL     1      34.479 -14.927 -22.056  0.00  0.00    -0.244 NA
ATOM     19  C   UNL     1      34.739 -17.003 -23.267  0.00  0.00    +0.006 C 
ATOM     20  C   UNL     1      33.721 -15.108 -24.345  0.00  0.00    -0.004 C 
ATOM     21  C   UNL     1      33.908 -14.406 -23.166  0.00  0.00    +0.077 C 
ATOM     22  C   UNL     1      34.148 -16.432 -24.388  0.00  0.00    -0.005 C 
ATOM     23  C   UNL     1      34.880 -16.215 -22.136  0.00  0.00    +0.095 C 
ATOM     24  C   UNL     1      33.087 -14.499 -25.548  0.00  0.00    +0.033 C 
BRANCH  21  26
ATOM     25  N   UNL     1      32.703 -10.360 -22.753  0.00  0.00    -0.248 NA
ATOM     26  C   UNL     1      33.497 -13.027 -23.025  0.00  0.00    +0.020 C 
ATOM     27  C   UNL     1      32.493 -12.686 -22.125  0.00  0.00    +0.016 C 
ATOM     28  C   UNL     1      34.105 -12.036 -23.789  0.00  0.00    +0.022 C 
ATOM     29  C   UNL     1      32.136 -11.350 -22.028  0.00  0.00    +0.059 C 
ATOM     30  C   UNL     1      33.675 -10.730 -23.617  0.00  0.00    +0.098 C 
ATOM     31  C   UNL     1      31.062 -10.947 -21.073  0.00  0.00    +0.052 C 
ENDBRANCH  21  26
ENDBRANCH  17  19
ENDBRANCH   4  17
TORSDOF 4
ENDMDL
MODEL 2
REMARK VINA RESULT:     -11.8      1.706      3.161
REMARK  Name = 46926973
REMARK  4 active torsions:
REMARK  status: ('A' for Active; 'I' for Inactive)
REMARK    1  A    between atoms: C_4  and  C_17
REMARK    2  A    between atoms: C_6  and  C_13
REMARK    3  A    between atoms: C_17  and  C_19
REMARK    4  A    between atoms: C_21  and  C_26
REMARK                            x       y       z     vdW  Elec       q    Type
REMARK                         _______ _______ _______ _____ _____    ______ ____
ROOT
ATOM      1  O   UNL     1      33.342 -20.588 -20.499  0.00  0.00    -0.274 OA
ATOM      2  N   UNL     1      35.079 -21.360 -19.115  0.00  0.00    -0.269 N 
ATOM      3  N   UNL     1      35.129 -22.592 -17.097  0.00  0.00    -0.229 NA
ATOM      4  C   UNL     1      34.533 -20.703 -20.226  0.00  0.00    +0.232 C 
ATOM      5  C   UNL     1      34.402 -22.020 -18.083  0.00  0.00    +0.134 C 
ATOM      6  C   UNL     1      33.048 -23.301 -16.090  0.00  0.00    +0.038 C 
ATOM      7  C   UNL     1      33.018 -22.045 -18.141  0.00  0.00    +0.035 C 
ATOM      8  C   UNL     1      32.335 -22.699 -17.122  0.00  0.00    +0.006 C 
ATOM      9  C   UNL     1      34.431 -23.219 -16.123  0.00  0.00    +0.102 C 
ATOM     10  H   UNL     1      36.062 -21.356 -19.053  0.00  0.00    +0.156 HD
ENDROOT
BRANCH   6  13
ATOM     11  N   UNL     1      31.062 -24.250 -15.219  0.00  0.00    -0.241 NA
ATOM     12  N   UNL     1      32.377 -24.993 -12.856  0.00  0.00    -0.239 NA
ATOM     13  C   UNL     1      32.368 -23.987 -15.017  0.00  0.00    +0.102 C 
ATOM     14  C   UNL     1      33.014 -24.353 -13.856  0.00  0.00    +0.118 C 
ATOM     15  C   UNL     1      30.425 -24.891 -14.219  0.00  0.00    +0.119 C 
ATOM     16  C   UNL     1      31.070 -25.255 -13.058  0.00  0.00    +0.120 C 
ENDBRANCH   6  13
BRANCH   4  17
ATOM     17  C   UNL     1      35.628 -20.121 -21.106  0.00  0.00    +0.113 C 
BRANCH  17  19
ATOM     18  N   UNL     1      35.008 -16.415 -21.566  0.00  0.00    -0.244 NA
ATOM     19  C   UNL     1      35.248 -18.813 -21.750  0.00  0.00    +0.006 C 
ATOM     20  C   UNL     1      34.453 -17.543 -23.632  0.00  0.00    -0.004 C 
ATOM     21  C   UNL     1      34.575 -16.408 -22.847  0.00  0.00    +0.077 C 
ATOM     22  C   UNL     1      34.798 -18.765 -23.064  0.00  0.00    -0.005 C 
ATOM     23  C   UNL     1      35.334 -17.620 -21.050  0.00  0.00    +0.095 C 
ATOM     24  C   UNL     1      33.971 -17.495 -25.041  0.00  0.00    +0.033 C 
BRANCH  21  26
ATOM     25  N   UNL     1      33.592 -12.553 -24.319  0.00  0.00    -0.248 NA
ATOM     26  C   UNL     1      34.240 -15.094 -23.349  0.00  0.00    +0.020 C 
ATOM     27  C   UNL     1      33.815 -14.936 -24.664  0.00  0.00    +0.016 C 
ATOM     28  C   UNL     1      34.341 -13.983 -22.519  0.00  0.00    +0.022 C 
ATOM     29  C   UNL     1      33.505 -13.655 -25.096  0.00  0.00    +0.059 C 
ATOM     30  C   UNL     1      34.009 -12.746 -23.047  0.00  0.00    +0.098 C 
ATOM     31  C   UNL     1      33.046 -13.448 -26.501  0.00  0.00    +0.052 C 
ENDBRANCH  21  26
ENDBRANCH  17  19
ENDBRANCH   4  17
TORSDOF 4
ENDMDL
MODEL 3
REMARK VINA RESULT:     -11.6      2.573     11.344
REMARK  Name = 46926973
REMARK  4 active torsions:
REMARK  status: ('A' for Active; 'I' for Inactive)
REMARK    1  A    between atoms: C_4  and  C_17
REMARK    2  A    between atoms: C_6  and  C_13
REMARK    3  A    between atoms: C_17  and  C_19
REMARK    4  A    between atoms: C_21  and  C_26
REMARK                            x       y       z     vdW  Elec       q    Type
REMARK                         _______ _______ _______ _____ _____    ______ ____
ROOT
ATOM      1  O   UNL     1      32.814 -14.158 -22.585  0.00  0.00    -0.274 OA
ATOM      2  N   UNL     1      34.178 -12.562 -23.646  0.00  0.00    -0.269 N 
ATOM      3  N   UNL     1      34.194 -10.197 -23.681  0.00  0.00    -0.229 NA
ATOM      4  C   UNL     1      33.756 -13.856 -23.311  0.00  0.00    +0.232 C 
ATOM      5  C   UNL     1      33.628 -11.342 -23.236  0.00  0.00    +0.134 C 
ATOM      6  C   UNL     1      32.532  -8.982 -22.413  0.00  0.00    +0.038 C 
ATOM      7  C   UNL     1      32.530 -11.387 -22.391  0.00  0.00    +0.035 C 
ATOM      8  C   UNL     1      31.977 -10.181 -21.977  0.00  0.00    +0.006 C 
ATOM      9  C   UNL     1      33.629  -9.044 -23.257  0.00  0.00    +0.102 C 
ATOM     10  H   UNL     1      34.957 -12.504 -24.245  0.00  0.00    +0.156 HD
ENDROOT
BRANCH   6  13
ATOM     11  N   UNL     1      31.007  -7.210 -22.786  0.00  0.00    -0.241 NA
ATOM     12  N   UNL     1      31.904  -5.870 -20.492  0.00  0.00    -0.239 NA
ATOM     13  C   UNL     1      31.980  -7.713 -22.000  0.00  0.00    +0.102 C 
ATOM     14  C   UNL     1      32.421  -7.055 -20.874  0.00  0.00    +0.118 C 
ATOM     15  C   UNL     1      30.490  -6.026 -22.403  0.00  0.00    +0.119 C 
ATOM     16  C   UNL     1      30.931  -5.367 -21.277  0.00  0.00    +0.120 C 
ENDBRANCH   6  13
BRANCH   4  17
ATOM     17  C   UNL     1      34.637 -14.903 -23.974  0.00  0.00    +0.113 C 
BRANCH  17  19
ATOM     18  N   UNL     1      35.093 -17.215 -21.010  0.00  0.00    -0.244 NA
ATOM     19  C   UNL     1      34.778 -16.167 -23.166  0.00  0.00    +0.006 C 
ATOM     20  C   UNL     1      34.862 -18.565 -23.003  0.00  0.00    -0.004 C 
ATOM     21  C   UNL     1      35.041 -18.412 -21.638  0.00  0.00    +0.077 C 
ATOM     22  C   UNL     1      34.729 -17.416 -23.774  0.00  0.00    -0.005 C 
ATOM     23  C   UNL     1      34.960 -16.121 -21.793  0.00  0.00    +0.095 C 
ATOM     24  C   UNL     1      34.811 -19.903 -23.658  0.00  0.00    +0.033 C 
BRANCH  21  26
ATOM     25  N   UNL     1      35.477 -21.742 -19.047  0.00  0.00    -0.248 NA
ATOM     26  C   UNL     1      35.189 -19.547 -20.754  0.00  0.00    +0.020 C 
ATOM     27  C   UNL     1      34.065 -20.200 -20.261  0.00  0.00    +0.016 C 
ATOM     28  C   UNL     1      36.457 -19.990 -20.395  0.00  0.00    +0.022 C 
ATOM     29  C   UNL     1      34.262 -21.283 -19.419  0.00  0.00    +0.059 C 
ATOM     30  C   UNL     1      36.547 -21.082 -19.546  0.00  0.00    +0.098 C 
ATOM     31  C   UNL     1      33.078 -22.008 -18.870  0.00  0.00    +0.052 C 
ENDBRANCH  21  26
ENDBRANCH  17  19
ENDBRANCH   4  17
TORSDOF 4
ENDMDL
MODEL 4
REMARK VINA RESULT:     -11.4      2.231     10.673
REMARK  Name = 46926973
REMARK  4 active torsions:
REMARK  status: ('A' for Active; 'I' for Inactive)
REMARK    1  A    between atoms: C_4  and  C_17
REMARK    2  A    between atoms: C_6  and  C_13
REMARK    3  A    between atoms: C_17  and  C_19
REMARK    4  A    between atoms: C_21  and  C_26
REMARK                            x       y       z     vdW  Elec       q    Type
REMARK                         _______ _______ _______ _____ _____    ______ ____
ROOT
ATOM      1  O   UNL     1      36.433 -19.250 -19.715  0.00  0.00    -0.274 OA
ATOM      2  N   UNL     1      35.274 -20.072 -21.589  0.00  0.00    -0.269 N 
ATOM      3  N   UNL     1      34.261 -19.040 -23.461  0.00  0.00    -0.229 NA
ATOM      4  C   UNL     1      35.973 -20.174 -20.378  0.00  0.00    +0.232 C 
ATOM      5  C   UNL     1      34.947 -18.912 -22.302  0.00  0.00    +0.134 C 
ATOM      6  C   UNL     1      34.332 -16.632 -23.668  0.00  0.00    +0.038 C 
ATOM      7  C   UNL     1      35.354 -17.699 -21.771  0.00  0.00    +0.035 C 
ATOM      8  C   UNL     1      35.036 -16.542 -22.472  0.00  0.00    +0.006 C 
ATOM      9  C   UNL     1      33.970 -17.892 -24.114  0.00  0.00    +0.102 C 
ATOM     10  H   UNL     1      34.975 -20.922 -21.987  0.00  0.00    +0.156 HD
ENDROOT
BRANCH   6  13
ATOM     11  N   UNL     1      33.815 -15.620 -25.745  0.00  0.00    -0.241 NA
ATOM     12  N   UNL     1      33.517 -13.114 -24.523  0.00  0.00    -0.239 NA
ATOM     13  C   UNL     1      33.986 -15.448 -24.419  0.00  0.00    +0.102 C 
ATOM     14  C   UNL     1      33.839 -14.217 -23.819  0.00  0.00    +0.118 C 
ATOM     15  C   UNL     1      33.492 -14.517 -26.448  0.00  0.00    +0.119 C 
ATOM     16  C   UNL     1      33.346 -13.286 -25.849  0.00  0.00    +0.120 C 
ENDBRANCH   6  13
BRANCH   4  17
ATOM     17  C   UNL     1      36.111 -21.627 -19.952  0.00  0.00    +0.113 C 
BRANCH  17  19
ATOM     18  N   UNL     1      32.864 -22.491 -18.208  0.00  0.00    -0.244 NA
ATOM     19  C   UNL     1      35.142 -22.030 -18.871  0.00  0.00    +0.006 C 
ATOM     20  C   UNL     1      34.663 -22.672 -16.603  0.00  0.00    -0.004 C 
ATOM     21  C   UNL     1      33.329 -22.750 -16.965  0.00  0.00    +0.077 C 
ATOM     22  C   UNL     1      35.581 -22.304 -17.581  0.00  0.00    -0.005 C 
ATOM     23  C   UNL     1      33.785 -22.137 -19.131  0.00  0.00    +0.095 C 
ATOM     24  C   UNL     1      35.137 -22.965 -15.220  0.00  0.00    +0.033 C 
BRANCH  21  26
ATOM     25  N   UNL     1      30.316 -23.846 -14.186  0.00  0.00    -0.248 NA
ATOM     26  C   UNL     1      32.302 -23.124 -16.018  0.00  0.00    +0.020 C 
ATOM     27  C   UNL     1      30.970 -22.810 -16.271  0.00  0.00    +0.016 C 
ATOM     28  C   UNL     1      32.641 -23.798 -14.850  0.00  0.00    +0.022 C 
ATOM     29  C   UNL     1      30.025 -23.190 -15.332  0.00  0.00    +0.059 C 
ATOM     30  C   UNL     1      31.621 -24.133 -13.974  0.00  0.00    +0.098 C 
ATOM     31  C   UNL     1      28.587 -22.870 -15.570  0.00  0.00    +0.052 C 
ENDBRANCH  21  26
ENDBRANCH  17  19
ENDBRANCH   4  17
TORSDOF 4
ENDMDL
MODEL 5
REMARK VINA RESULT:     -11.1      1.876     10.939
REMARK  Name = 46926973
REMARK  4 active torsions:
REMARK  status: ('A' for Active; 'I' for Inactive)
REMARK    1  A    between atoms: C_4  and  C_17
REMARK    2  A    between atoms: C_6  and  C_13
REMARK    3  A    between atoms: C_17  and  C_19
REMARK    4  A    between atoms: C_21  and  C_26
REMARK                            x       y       z     vdW  Elec       q    Type
REMARK                         _______ _______ _______ _____ _____    ______ ____
ROOT
ATOM      1  O   UNL     1      36.278 -19.180 -19.852  0.00  0.00    -0.274 OA
ATOM      2  N   UNL     1      35.272 -19.775 -21.893  0.00  0.00    -0.269 N 
ATOM      3  N   UNL     1      34.341 -18.529 -23.675  0.00  0.00    -0.229 NA
ATOM      4  C   UNL     1      35.896 -20.019 -20.662  0.00  0.00    +0.232 C 
ATOM      5  C   UNL     1      34.947 -18.540 -22.467  0.00  0.00    +0.134 C 
ATOM      6  C   UNL     1      34.333 -16.114 -23.555  0.00  0.00    +0.038 C 
ATOM      7  C   UNL     1      35.273 -17.398 -21.752  0.00  0.00    +0.035 C 
ATOM      8  C   UNL     1      34.956 -16.167 -22.313  0.00  0.00    +0.006 C 
ATOM      9  C   UNL     1      34.049 -17.313 -24.189  0.00  0.00    +0.102 C 
ATOM     10  H   UNL     1      35.032 -20.572 -22.421  0.00  0.00    +0.156 HD
ENDROOT
BRANCH   6  13
ATOM     11  N   UNL     1      34.210 -13.754 -23.410  0.00  0.00    -0.241 NA
ATOM     12  N   UNL     1      33.151 -13.587 -26.001  0.00  0.00    -0.239 NA
ATOM     13  C   UNL     1      33.990 -14.851 -24.163  0.00  0.00    +0.102 C 
ATOM     14  C   UNL     1      33.470 -14.768 -25.436  0.00  0.00    +0.118 C 
ATOM     15  C   UNL     1      33.892 -12.573 -23.976  0.00  0.00    +0.119 C 
ATOM     16  C   UNL     1      33.371 -12.491 -25.248  0.00  0.00    +0.120 C 
ENDBRANCH   6  13
BRANCH   4  17
ATOM     17  C   UNL     1      36.063 -21.512 -20.425  0.00  0.00    +0.113 C 
BRANCH  17  19
ATOM     18  N   UNL     1      33.897 -22.958 -17.677  0.00  0.00    -0.244 NA
ATOM     19  C   UNL     1      35.609 -21.956 -19.059  0.00  0.00    +0.006 C 
ATOM     20  C   UNL     1      35.977 -22.211 -16.696  0.00  0.00    -0.004 C 
ATOM     21  C   UNL     1      34.718 -22.783 -16.617  0.00  0.00    +0.077 C 
ATOM     22  C   UNL     1      36.424 -21.793 -17.945  0.00  0.00    -0.005 C 
ATOM     23  C   UNL     1      34.366 -22.539 -18.873  0.00  0.00    +0.095 C 
ATOM     24  C   UNL     1      36.852 -22.034 -15.502  0.00  0.00    +0.033 C 
BRANCH  21  26
ATOM     25  N   UNL     1      33.105 -24.145 -12.938  0.00  0.00    -0.248 NA
ATOM     26  C   UNL     1      34.168 -23.247 -15.362  0.00  0.00    +0.020 C 
ATOM     27  C   UNL     1      32.819 -23.061 -15.080  0.00  0.00    +0.016 C 
ATOM     28  C   UNL     1      34.986 -23.882 -14.434  0.00  0.00    +0.022 C 
ATOM     29  C   UNL     1      32.341 -23.525 -13.864  0.00  0.00    +0.059 C 
ATOM     30  C   UNL     1      34.411 -24.308 -13.248  0.00  0.00    +0.098 C 
ATOM     31  C   UNL     1      30.899 -23.342 -13.527  0.00  0.00    +0.052 C 
ENDBRANCH  21  26
ENDBRANCH  17  19
ENDBRANCH   4  17
TORSDOF 4
ENDMDL
MODEL 6
REMARK VINA RESULT:     -11.0      1.109      2.001
REMARK  Name = 46926973
REMARK  4 active torsions:
REMARK  status: ('A' for Active; 'I' for Inactive)
REMARK    1  A    between atoms: C_4  and  C_17
REMARK    2  A    between atoms: C_6  and  C_13
REMARK    3  A    between atoms: C_17  and  C_19
REMARK    4  A    between atoms: C_21  and  C_26
REMARK                            x       y       z     vdW  Elec       q    Type
REMARK                         _______ _______ _______ _____ _____    ______ ____
ROOT
ATOM      1  O   UNL     1      33.364 -19.460 -22.774  0.00  0.00    -0.274 OA
ATOM      2  N   UNL     1      35.529 -19.091 -21.934  0.00  0.00    -0.269 N 
ATOM      3  N   UNL     1      36.707 -19.904 -20.050  0.00  0.00    -0.229 NA
ATOM      4  C   UNL     1      34.467 -18.926 -22.833  0.00  0.00    +0.232 C 
ATOM      5  C   UNL     1      35.571 -19.889 -20.784  0.00  0.00    +0.134 C 
ATOM      6  C   UNL     1      35.617 -21.458 -18.551  0.00  0.00    +0.038 C 
ATOM      7  C   UNL     1      34.435 -20.619 -20.471  0.00  0.00    +0.035 C 
ATOM      8  C   UNL     1      34.466 -21.415 -19.331  0.00  0.00    +0.006 C 
ATOM      9  C   UNL     1      36.699 -20.690 -18.950  0.00  0.00    +0.102 C 
ATOM     10  H   UNL     1      36.348 -18.584 -22.136  0.00  0.00    +0.156 HD
ENDROOT
BRANCH   6  13
ATOM     11  N   UNL     1      36.860 -22.275 -16.710  0.00  0.00    -0.241 NA
ATOM     12  N   UNL     1      34.664 -23.770 -15.810  0.00  0.00    -0.239 NA
ATOM     13  C   UNL     1      35.680 -22.274 -17.362  0.00  0.00    +0.102 C 
ATOM     14  C   UNL     1      34.602 -23.008 -16.920  0.00  0.00    +0.118 C 
ATOM     15  C   UNL     1      36.922 -23.036 -15.599  0.00  0.00    +0.119 C 
ATOM     16  C   UNL     1      35.844 -23.771 -15.157  0.00  0.00    +0.120 C 
ENDBRANCH   6  13
BRANCH   4  17
ATOM     17  C   UNL     1      34.846 -17.968 -23.951  0.00  0.00    +0.113 C 
BRANCH  17  19
ATOM     18  N   UNL     1      33.703 -14.393 -24.453  0.00  0.00    -0.244 NA
ATOM     19  C   UNL     1      34.496 -16.532 -23.654  0.00  0.00    +0.006 C 
ATOM     20  C   UNL     1      34.297 -14.684 -22.128  0.00  0.00    -0.004 C 
ATOM     21  C   UNL     1      33.843 -13.924 -23.193  0.00  0.00    +0.077 C 
ATOM     22  C   UNL     1      34.628 -16.013 -22.372  0.00  0.00    -0.005 C 
ATOM     23  C   UNL     1      34.033 -15.688 -24.651  0.00  0.00    +0.095 C 
ATOM     24  C   UNL     1      34.440 -14.130 -20.752  0.00  0.00    +0.033 C 
BRANCH  21  26
ATOM     25  N   UNL     1      32.768  -9.846 -22.737  0.00  0.00    -0.248 NA
ATOM     26  C   UNL     1      33.477 -12.534 -23.037  0.00  0.00    +0.020 C 
ATOM     27  C   UNL     1      34.256 -11.537 -23.616  0.00  0.00    +0.016 C 
ATOM     28  C   UNL     1      32.344 -12.188 -22.309  0.00  0.00    +0.022 C 
ATOM     29  C   UNL     1      33.861 -10.221 -23.437  0.00  0.00    +0.059 C 
ATOM     30  C   UNL     1      32.036 -10.842 -22.189  0.00  0.00    +0.098 C 
ATOM     31  C   UNL     1      34.674  -9.125 -24.043  0.00  0.00    +0.052 C 
ENDBRANCH  21  26
ENDBRANCH  17  19
ENDBRANCH   4  17
TORSDOF 4
ENDMDL
MODEL 7
REMARK VINA RESULT:     -10.9      1.473      1.991
REMARK  Name = 46926973
REMARK  4 active torsions:
REMARK  status: ('A' for Active; 'I' for Inactive)
REMARK    1  A    between atoms: C_4  and  C_17
REMARK    2  A    between atoms: C_6  and  C_13
REMARK    3  A    between atoms: C_17  and  C_19
REMARK    4  A    between atoms: C_21  and  C_26
REMARK                            x       y       z     vdW  Elec       q    Type
REMARK                         _______ _______ _______ _____ _____    ______ ____
ROOT
ATOM      1  O   UNL     1      37.360 -19.229 -20.791  0.00  0.00    -0.274 OA
ATOM      2  N   UNL     1      35.432 -20.563 -20.604  0.00  0.00    -0.269 N 
ATOM      3  N   UNL     1      34.606 -22.005 -18.921  0.00  0.00    -0.229 NA
ATOM      4  C   UNL     1      36.302 -19.664 -21.235  0.00  0.00    +0.232 C 
ATOM      5  C   UNL     1      35.572 -21.158 -19.344  0.00  0.00    +0.134 C 
ATOM      6  C   UNL     1      35.875 -22.297 -16.883  0.00  0.00    +0.038 C 
ATOM      7  C   UNL     1      36.700 -20.836 -18.607  0.00  0.00    +0.035 C 
ATOM      8  C   UNL     1      36.847 -21.422 -17.354  0.00  0.00    +0.006 C 
ATOM      9  C   UNL     1      34.784 -22.554 -17.698  0.00  0.00    +0.102 C 
ATOM     10  H   UNL     1      34.622 -20.805 -21.108  0.00  0.00    +0.156 HD
ENDROOT
BRANCH   6  13
ATOM     11  N   UNL     1      34.905 -23.565 -15.135  0.00  0.00    -0.241 NA
ATOM     12  N   UNL     1      37.278 -23.446 -13.646  0.00  0.00    -0.239 NA
ATOM     13  C   UNL     1      35.999 -22.921 -15.587  0.00  0.00    +0.102 C 
ATOM     14  C   UNL     1      37.165 -22.863 -14.856  0.00  0.00    +0.118 C 
ATOM     15  C   UNL     1      35.018 -24.149 -13.926  0.00  0.00    +0.119 C 
ATOM     16  C   UNL     1      36.183 -24.090 -13.194  0.00  0.00    +0.120 C 
ENDBRANCH   6  13
BRANCH   4  17
ATOM     17  C   UNL     1      35.767 -19.260 -22.601  0.00  0.00    +0.113 C 
BRANCH  17  19
ATOM     18  N   UNL     1      34.755 -15.790 -21.473  0.00  0.00    -0.244 NA
ATOM     19  C   UNL     1      35.217 -17.857 -22.637  0.00  0.00    +0.006 C 
ATOM     20  C   UNL     1      34.175 -16.033 -23.807  0.00  0.00    -0.004 C 
ATOM     21  C   UNL     1      34.238 -15.311 -22.626  0.00  0.00    +0.077 C 
ATOM     22  C   UNL     1      34.677 -17.330 -23.804  0.00  0.00    -0.005 C 
ATOM     23  C   UNL     1      35.233 -17.053 -21.508  0.00  0.00    +0.095 C 
ATOM     24  C   UNL     1      33.595 -15.470 -25.059  0.00  0.00    +0.033 C 
BRANCH  21  26
ATOM     25  N   UNL     1      32.782 -11.337 -22.350  0.00  0.00    -0.248 NA
ATOM     26  C   UNL     1      33.741 -13.956 -22.532  0.00  0.00    +0.020 C 
ATOM     27  C   UNL     1      32.813 -13.619 -21.553  0.00  0.00    +0.016 C 
ATOM     28  C   UNL     1      34.190 -12.985 -23.420  0.00  0.00    +0.022 C 
ATOM     29  C   UNL     1      32.369 -12.307 -21.505  0.00  0.00    +0.059 C 
ATOM     30  C   UNL     1      33.684 -11.702 -23.289  0.00  0.00    +0.098 C 
ATOM     31  C   UNL     1      31.372 -11.909 -20.467  0.00  0.00    +0.052 C 
ENDBRANCH  21  26
ENDBRANCH  17  19
ENDBRANCH   4  17
TORSDOF 4
ENDMDL
MODEL 8
REMARK VINA RESULT:     -10.7      1.123      2.136
REMARK  Name = 46926973
REMARK  4 active torsions:
REMARK  status: ('A' for Active; 'I' for Inactive)
REMARK    1  A    between atoms: C_4  and  C_17
REMARK    2  A    between atoms: C_6  and  C_13
REMARK    3  A    between atoms: C_17  and  C_19
REMARK    4  A    between atoms: C_21  and  C_26
REMARK                            x       y       z     vdW  Elec       q    Type
REMARK                         _______ _______ _______ _____ _____    ______ ____
ROOT
ATOM      1  O   UNL     1      33.590 -19.997 -21.594  0.00  0.00    -0.274 OA
ATOM      2  N   UNL     1      35.727 -20.059 -20.613  0.00  0.00    -0.269 N 
ATOM      3  N   UNL     1      36.594 -21.075 -18.661  0.00  0.00    -0.229 NA
ATOM      4  C   UNL     1      34.779 -19.693 -21.579  0.00  0.00    +0.232 C 
ATOM      5  C   UNL     1      35.534 -20.840 -19.467  0.00  0.00    +0.134 C 
ATOM      6  C   UNL     1      35.123 -22.370 -17.245  0.00  0.00    +0.038 C 
ATOM      7  C   UNL     1      34.258 -21.328 -19.233  0.00  0.00    +0.035 C 
ATOM      8  C   UNL     1      34.057 -22.105 -18.099  0.00  0.00    +0.006 C 
ATOM      9  C   UNL     1      36.360 -21.835 -17.568  0.00  0.00    +0.102 C 
ATOM     10  H   UNL     1      36.642 -19.725 -20.759  0.00  0.00    +0.156 HD
ENDROOT
BRANCH   6  13
ATOM     11  N   UNL     1      33.678 -23.303 -15.619  0.00  0.00    -0.241 NA
ATOM     12  N   UNL     1      35.837 -24.521 -14.308  0.00  0.00    -0.239 NA
ATOM     13  C   UNL     1      34.945 -23.173 -16.059  0.00  0.00    +0.102 C 
ATOM     14  C   UNL     1      36.006 -23.772 -15.415  0.00  0.00    +0.118 C 
ATOM     15  C   UNL     1      33.509 -24.053 -14.512  0.00  0.00    +0.119 C 
ATOM     16  C   UNL     1      34.569 -24.651 -13.868  0.00  0.00    +0.120 C 
ENDBRANCH   6  13
BRANCH   4  17
ATOM     17  C   UNL     1      35.413 -18.837 -22.665  0.00  0.00    +0.113 C 
BRANCH  17  19
ATOM     18  N   UNL     1      34.232 -15.442 -23.853  0.00  0.00    -0.244 NA
ATOM     19  C   UNL     1      34.958 -17.401 -22.637  0.00  0.00    +0.006 C 
ATOM     20  C   UNL     1      34.420 -15.384 -21.443  0.00  0.00    -0.004 C 
ATOM     21  C   UNL     1      34.130 -14.802 -22.666  0.00  0.00    +0.077 C 
ATOM     22  C   UNL     1      34.841 -16.709 -21.437  0.00  0.00    -0.005 C 
ATOM     23  C   UNL     1      34.644 -16.728 -23.807  0.00  0.00    +0.095 C 
ATOM     24  C   UNL     1      34.297 -14.644 -20.155  0.00  0.00    +0.033 C 
BRANCH  21  26
ATOM     25  N   UNL     1      32.828 -10.777 -22.979  0.00  0.00    -0.248 NA
ATOM     26  C   UNL     1      33.687 -13.430 -22.773  0.00  0.00    +0.020 C 
ATOM     27  C   UNL     1      34.366 -12.538 -23.596  0.00  0.00    +0.016 C 
ATOM     28  C   UNL     1      32.578 -12.997 -22.053  0.00  0.00    +0.022 C 
ATOM     29  C   UNL     1      33.900 -11.234 -23.663  0.00  0.00    +0.059 C 
ATOM     30  C   UNL     1      32.193 -11.673 -22.189  0.00  0.00    +0.098 C 
ATOM     31  C   UNL     1      34.605 -10.249 -24.535  0.00  0.00    +0.052 C 
ENDBRANCH  21  26
ENDBRANCH  17  19
ENDBRANCH   4  17
TORSDOF 4
ENDMDL
MODEL 9
REMARK VINA RESULT:     -10.6      3.024      5.684
REMARK  Name = 46926973
REMARK  4 active torsions:
REMARK  status: ('A' for Active; 'I' for Inactive)
REMARK    1  A    between atoms: C_4  and  C_17
REMARK    2  A    between atoms: C_6  and  C_13
REMARK    3  A    between atoms: C_17  and  C_19
REMARK    4  A    between atoms: C_21  and  C_26
REMARK                            x       y       z     vdW  Elec       q    Type
REMARK                         _______ _______ _______ _____ _____    ______ ____
ROOT
ATOM      1  O   UNL     1      34.533 -13.336 -21.862  0.00  0.00    -0.274 OA
ATOM      2  N   UNL     1      34.384 -15.023 -23.493  0.00  0.00    -0.269 N 
ATOM      3  N   UNL     1      34.544 -17.382 -23.417  0.00  0.00    -0.229 NA
ATOM      4  C   UNL     1      34.375 -13.703 -23.022  0.00  0.00    +0.232 C 
ATOM      5  C   UNL     1      34.573 -16.201 -22.759  0.00  0.00    +0.134 C 
ATOM      6  C   UNL     1      34.939 -18.474 -21.296  0.00  0.00    +0.038 C 
ATOM      7  C   UNL     1      34.776 -16.077 -21.394  0.00  0.00    +0.035 C 
ATOM      8  C   UNL     1      34.963 -17.240 -20.656  0.00  0.00    +0.006 C 
ATOM      9  C   UNL     1      34.729 -18.491 -22.666  0.00  0.00    +0.102 C 
ATOM     10  H   UNL     1      34.240 -15.136 -24.460  0.00  0.00    +0.156 HD
ENDROOT
BRANCH   6  13
ATOM     11  N   UNL     1      36.395 -19.967 -20.174  0.00  0.00    -0.241 NA
ATOM     12  N   UNL     1      34.267 -21.691 -19.572  0.00  0.00    -0.239 NA
ATOM     13  C   UNL     1      35.130 -19.700 -20.558  0.00  0.00    +0.102 C 
ATOM     14  C   UNL     1      34.085 -20.547 -20.261  0.00  0.00    +0.118 C 
ATOM     15  C   UNL     1      36.577 -21.110 -19.484  0.00  0.00    +0.119 C 
ATOM     16  C   UNL     1      35.532 -21.957 -19.189  0.00  0.00    +0.120 C 
ENDBRANCH   6  13
BRANCH   4  17
ATOM     17  C   UNL     1      34.134 -12.722 -24.159  0.00  0.00    +0.113 C 
BRANCH  17  19
ATOM     18  N   UNL     1      32.244  -9.872 -22.533  0.00  0.00    -0.244 NA
ATOM     19  C   UNL     1      33.785 -11.334 -23.688  0.00  0.00    +0.006 C 
ATOM     20  C   UNL     1      34.274  -8.987 -23.503  0.00  0.00    -0.004 C 
ATOM     21  C   UNL     1      33.085  -8.849 -22.806  0.00  0.00    +0.077 C 
ATOM     22  C   UNL     1      34.623 -10.257 -23.949  0.00  0.00    -0.005 C 
ATOM     23  C   UNL     1      32.617 -11.091 -22.982  0.00  0.00    +0.095 C 
ATOM     24  C   UNL     1      35.175  -7.833 -23.786  0.00  0.00    +0.033 C 
BRANCH  21  26
ATOM     25  N   UNL     1      31.774  -5.094 -21.332  0.00  0.00    -0.248 NA
ATOM     26  C   UNL     1      32.639  -7.569 -22.304  0.00  0.00    +0.020 C 
ATOM     27  C   UNL     1      32.286  -6.556 -23.189  0.00  0.00    +0.016 C 
ATOM     28  C   UNL     1      32.559  -7.346 -20.933  0.00  0.00    +0.022 C 
ATOM     29  C   UNL     1      31.864  -5.348 -22.657  0.00  0.00    +0.059 C 
ATOM     30  C   UNL     1      32.125  -6.102 -20.503  0.00  0.00    +0.098 C 
ATOM     31  C   UNL     1      31.478  -4.238 -23.577  0.00  0.00    +0.052 C 
ENDBRANCH  21  26
ENDBRANCH  17  19
ENDBRANCH   4  17
TORSDOF 4
ENDMDL
