MODEL 1
REMARK VINA RESULT:     -12.1      0.000      0.000
REMARK  Name = 32778
REMARK  7 active torsions:
REMARK  status: ('A' for Active; 'I' for Inactive)
REMARK    1  A    between atoms: C_1  and  S_7
REMARK    2  A    between atoms: C_2  and  C_23
REMARK    3  A    between atoms: S_7  and  N_12
REMARK    4  A    between atoms: N_11  and  N_16
REMARK    5  A    between atoms: C_23  and  C_24
REMARK    6  A    between atoms: C_24  and  N_26
REMARK    7  A    between atoms: C_27  and  C_31
REMARK                            x       y       z     vdW  Elec       q    Type
REMARK                         _______ _______ _______ _____ _____    ______ ____
ROOT
ATOM      1  C   UNL     1      34.335 -21.329 -19.491  0.00  0.00    +0.125 C 
ATOM      2  C   UNL     1      35.288 -19.365 -21.227  0.00  0.00    -0.020 C 
ATOM      3  C   UNL     1      35.707 -21.104 -19.602  0.00  0.00    +0.020 C 
ATOM      4  C   UNL     1      33.439 -20.573 -20.248  0.00  0.00    +0.020 C 
ATOM      5  C   UNL     1      36.183 -20.122 -20.470  0.00  0.00    -0.003 C 
ATOM      6  C   UNL     1      33.916 -19.590 -21.115  0.00  0.00    -0.003 C 
ENDROOT
BRANCH   1   7
ATOM      7  S   UNL     1      33.731 -22.576 -18.392  0.00  0.00    +0.077 S 
ATOM      8  O   UNL     1      33.827 -23.856 -19.066  0.00  0.00    -0.150 OA
ATOM      9  O   UNL     1      32.455 -22.106 -17.885  0.00  0.00    -0.150 OA
BRANCH   7  12
ATOM     10  O   UNL     1      34.164 -24.299 -15.846  0.00  0.00    -0.250 OA
ATOM     11  N   UNL     1      36.011 -23.075 -15.181  0.00  0.00    -0.230 N 
ATOM     12  N   UNL     1      34.896 -22.503 -17.144  0.00  0.00    -0.168 N 
ATOM     13  C   UNL     1      34.963 -23.383 -16.018  0.00  0.00    +0.333 C 
ATOM     14  H   UNL     1      36.611 -22.322 -15.389  0.00  0.00    +0.171 HD
ATOM     15  H   UNL     1      35.579 -21.794 -17.204  0.00  0.00    +0.178 HD
BRANCH  11  16
ATOM     16  N   UNL     1      36.213 -23.840 -14.042  0.00  0.00    -0.205 NA
ATOM     17  C   UNL     1      38.031 -24.522 -11.500  0.00  0.00    +0.002 C 
ATOM     18  C   UNL     1      37.871 -25.927 -12.068  0.00  0.00    +0.002 C 
ATOM     19  C   UNL     1      36.783 -23.652 -11.584  0.00  0.00    +0.019 C 
ATOM     20  C   UNL     1      37.032 -26.072 -13.333  0.00  0.00    +0.019 C 
ATOM     21  C   UNL     1      36.622 -22.964 -12.943  0.00  0.00    +0.092 C 
ATOM     22  C   UNL     1      37.150 -24.928 -14.339  0.00  0.00    +0.092 C 
ENDBRANCH  11  16
ENDBRANCH   7  12
ENDBRANCH   1   7
BRANCH   2  23
ATOM     23  C   UNL     1      35.799 -18.314 -22.153  0.00  0.00    +0.048 C 
BRANCH  23  24
ATOM     24  C   UNL     1      34.860 -18.029 -23.333  0.00  0.00    +0.094 C 
BRANCH  24  26
ATOM     25  O   UNL     1      33.232 -16.857 -25.340  0.00  0.00    -0.268 OA
ATOM     26  N   UNL     1      34.645 -16.621 -23.533  0.00  0.00    -0.299 N 
ATOM     27  C   UNL     1      33.827 -16.127 -24.547  0.00  0.00    +0.267 C 
ATOM     28  H   UNL     1      35.092 -15.982 -22.931  0.00  0.00    +0.150 HD
BRANCH  27  31
ATOM     29  O   UNL     1      33.373 -12.724 -25.525  0.00  0.00    -0.358 OA
ATOM     30  N   UNL     1      33.350 -14.090 -25.783  0.00  0.00    -0.073 NA
ATOM     31  C   UNL     1      33.736 -14.663 -24.639  0.00  0.00    +0.176 C 
ATOM     32  C   UNL     1      34.011 -13.719 -23.634  0.00  0.00    +0.063 C 
ATOM     33  C   UNL     1      33.768 -12.517 -24.242  0.00  0.00    +0.155 C 
ATOM     34  C   UNL     1      33.847 -11.119 -23.799  0.00  0.00    +0.075 C 
ENDBRANCH  27  31
ENDBRANCH  24  26
ENDBRANCH  23  24
ENDBRANCH   2  23
TORSDOF 7
ENDMDL
MODEL 2
REMARK VINA RESULT:     -11.9      1.289      1.725
REMARK  Name = 32778
REMARK  7 active torsions:
REMARK  status: ('A' for Active; 'I' for Inactive)
REMARK    1  A    between atoms: C_1  and  S_7
REMARK    2  A    between atoms: C_2  and  C_23
REMARK    3  A    between atoms: S_7  and  N_12
REMARK    4  A    between atoms: N_11  and  N_16
REMARK    5  A    between atoms: C_23  and  C_24
REMARK    6  A    between atoms: C_24  and  N_26
REMARK    7  A    between atoms: C_27  and  C_31
REMARK                            x       y       z     vdW  Elec       q    Type
REMARK                         _______ _______ _______ _____ _____    ______ ____
ROOT
ATOM      1  C   UNL     1      34.122 -21.539 -19.326  0.00  0.00    +0.125 C 
ATOM      2  C   UNL     1      35.013 -19.546 -21.062  0.00  0.00    -0.020 C 
ATOM      3  C   UNL     1      33.200 -20.779 -20.046  0.00  0.00    +0.020 C 
ATOM      4  C   UNL     1      35.489 -21.303 -19.473  0.00  0.00    +0.020 C 
ATOM      5  C   UNL     1      33.646 -19.783 -20.915  0.00  0.00    -0.003 C 
ATOM      6  C   UNL     1      35.934 -20.307 -20.342  0.00  0.00    -0.003 C 
ENDROOT
BRANCH   1   7
ATOM      7  S   UNL     1      33.556 -22.800 -18.223  0.00  0.00    +0.077 S 
ATOM      8  O   UNL     1      33.701 -24.080 -18.889  0.00  0.00    -0.150 OA
ATOM      9  O   UNL     1      32.262 -22.373 -17.726  0.00  0.00    -0.150 OA
BRANCH   7  12
ATOM     10  O   UNL     1      34.082 -24.539 -15.706  0.00  0.00    -0.250 OA
ATOM     11  N   UNL     1      35.852 -23.220 -15.012  0.00  0.00    -0.230 N 
ATOM     12  N   UNL     1      34.711 -22.680 -16.969  0.00  0.00    -0.168 N 
ATOM     13  C   UNL     1      34.826 -23.574 -15.858  0.00  0.00    +0.333 C 
ATOM     14  H   UNL     1      36.406 -22.429 -15.204  0.00  0.00    +0.171 HD
ATOM     15  H   UNL     1      35.350 -21.931 -17.014  0.00  0.00    +0.178 HD
BRANCH  11  16
ATOM     16  N   UNL     1      36.095 -23.991 -13.886  0.00  0.00    -0.205 NA
ATOM     17  C   UNL     1      37.912 -24.574 -11.318  0.00  0.00    +0.002 C 
ATOM     18  C   UNL     1      37.886 -25.973 -11.920  0.00  0.00    +0.002 C 
ATOM     19  C   UNL     1      36.595 -23.813 -11.411  0.00  0.00    +0.019 C 
ATOM     20  C   UNL     1      37.089 -26.160 -13.207  0.00  0.00    +0.019 C 
ATOM     21  C   UNL     1      36.403 -23.109 -12.758  0.00  0.00    +0.092 C 
ATOM     22  C   UNL     1      37.129 -24.987 -14.185  0.00  0.00    +0.092 C 
ENDBRANCH  11  16
ENDBRANCH   7  12
ENDBRANCH   1   7
BRANCH   2  23
ATOM     23  C   UNL     1      35.489 -18.482 -21.992  0.00  0.00    +0.048 C 
BRANCH  23  24
ATOM     24  C   UNL     1      35.259 -17.059 -21.465  0.00  0.00    +0.094 C 
BRANCH  24  26
ATOM     25  O   UNL     1      34.233 -14.440 -21.093  0.00  0.00    -0.268 OA
ATOM     26  N   UNL     1      34.873 -16.146 -22.507  0.00  0.00    -0.299 N 
ATOM     27  C   UNL     1      34.377 -14.872 -22.237  0.00  0.00    +0.267 C 
ATOM     28  H   UNL     1      34.965 -16.430 -23.445  0.00  0.00    +0.150 HD
BRANCH  27  31
ATOM     29  O   UNL     1      33.672 -12.310 -24.620  0.00  0.00    -0.358 OA
ATOM     30  N   UNL     1      34.103 -12.741 -23.370  0.00  0.00    -0.073 NA
ATOM     31  C   UNL     1      33.998 -14.072 -23.410  0.00  0.00    +0.176 C 
ATOM     32  C   UNL     1      33.513 -14.534 -24.646  0.00  0.00    +0.063 C 
ATOM     33  C   UNL     1      33.323 -13.387 -25.370  0.00  0.00    +0.155 C 
ATOM     34  C   UNL     1      32.842 -13.111 -26.730  0.00  0.00    +0.075 C 
ENDBRANCH  27  31
ENDBRANCH  24  26
ENDBRANCH  23  24
ENDBRANCH   2  23
TORSDOF 7
ENDMDL
MODEL 3
REMARK VINA RESULT:     -11.4      1.636      1.994
REMARK  Name = 32778
REMARK  7 active torsions:
REMARK  status: ('A' for Active; 'I' for Inactive)
REMARK    1  A    between atoms: C_1  and  S_7
REMARK    2  A    between atoms: C_2  and  C_23
REMARK    3  A    between atoms: S_7  and  N_12
REMARK    4  A    between atoms: N_11  and  N_16
REMARK    5  A    between atoms: C_23  and  C_24
REMARK    6  A    between atoms: C_24  and  N_26
REMARK    7  A    between atoms: C_27  and  C_31
REMARK                            x       y       z     vdW  Elec       q    Type
REMARK                         _______ _______ _______ _____ _____    ______ ____
ROOT
ATOM      1  C   UNL     1      33.950 -21.593 -19.177  0.00  0.00    +0.125 C 
ATOM      2  C   UNL     1      34.457 -19.709 -21.170  0.00  0.00    -0.020 C 
ATOM      3  C   UNL     1      35.265 -21.289 -19.531  0.00  0.00    +0.020 C 
ATOM      4  C   UNL     1      32.889 -20.955 -19.820  0.00  0.00    +0.020 C 
ATOM      5  C   UNL     1      35.518 -20.346 -20.527  0.00  0.00    -0.003 C 
ATOM      6  C   UNL     1      33.143 -20.013 -20.816  0.00  0.00    -0.003 C 
ENDROOT
BRANCH   1   7
ATOM      7  S   UNL     1      33.629 -22.789 -17.915  0.00  0.00    +0.077 S 
ATOM      8  O   UNL     1      33.790 -24.109 -18.493  0.00  0.00    -0.150 OA
ATOM      9  O   UNL     1      32.378 -22.409 -17.286  0.00  0.00    -0.150 OA
BRANCH   7  12
ATOM     10  O   UNL     1      34.751 -24.385 -15.501  0.00  0.00    -0.250 OA
ATOM     11  N   UNL     1      36.390 -22.813 -15.063  0.00  0.00    -0.230 N 
ATOM     12  N   UNL     1      34.919 -22.480 -16.837  0.00  0.00    -0.168 N 
ATOM     13  C   UNL     1      35.318 -23.327 -15.756  0.00  0.00    +0.333 C 
ATOM     14  H   UNL     1      36.791 -21.954 -15.330  0.00  0.00    +0.171 HD
ATOM     15  H   UNL     1      35.431 -21.648 -16.972  0.00  0.00    +0.178 HD
BRANCH  11  16
ATOM     16  N   UNL     1      36.899 -23.519 -13.983  0.00  0.00    -0.205 NA
ATOM     17  C   UNL     1      37.074 -26.270 -12.360  0.00  0.00    +0.002 C 
ATOM     18  C   UNL     1      36.716 -25.334 -11.213  0.00  0.00    +0.002 C 
ATOM     19  C   UNL     1      38.048 -25.691 -13.379  0.00  0.00    +0.019 C 
ATOM     20  C   UNL     1      36.538 -23.858 -11.552  0.00  0.00    +0.019 C 
ATOM     21  C   UNL     1      37.361 -24.830 -14.443  0.00  0.00    +0.092 C 
ATOM     22  C   UNL     1      35.901 -23.564 -12.910  0.00  0.00    +0.092 C 
ENDBRANCH  11  16
ENDBRANCH   7  12
ENDBRANCH   1   7
BRANCH   2  23
ATOM     23  C   UNL     1      34.729 -18.700 -22.235  0.00  0.00    +0.048 C 
BRANCH  23  24
ATOM     24  C   UNL     1      35.541 -17.494 -21.744  0.00  0.00    +0.094 C 
BRANCH  24  26
ATOM     25  O   UNL     1      35.301 -15.379 -23.620  0.00  0.00    -0.268 OA
ATOM     26  N   UNL     1      34.731 -16.315 -21.592  0.00  0.00    -0.299 N 
ATOM     27  C   UNL     1      34.670 -15.320 -22.566  0.00  0.00    +0.267 C 
ATOM     28  H   UNL     1      34.200 -16.207 -20.770  0.00  0.00    +0.150 HD
BRANCH  27  31
ATOM     29  O   UNL     1      32.821 -12.267 -22.524  0.00  0.00    -0.358 OA
ATOM     30  N   UNL     1      33.670 -13.182 -23.138  0.00  0.00    -0.073 NA
ATOM     31  C   UNL     1      33.821 -14.164 -22.246  0.00  0.00    +0.176 C 
ATOM     32  C   UNL     1      33.100 -13.927 -21.062  0.00  0.00    +0.063 C 
ATOM     33  C   UNL     1      32.490 -12.723 -21.289  0.00  0.00    +0.155 C 
ATOM     34  C   UNL     1      31.592 -11.873 -20.496  0.00  0.00    +0.075 C 
ENDBRANCH  27  31
ENDBRANCH  24  26
ENDBRANCH  23  24
ENDBRANCH   2  23
TORSDOF 7
ENDMDL
MODEL 4
REMARK VINA RESULT:     -11.1      2.675     12.832
REMARK  Name = 32778
REMARK  7 active torsions:
REMARK  status: ('A' for Active; 'I' for Inactive)
REMARK    1  A    between atoms: C_1  and  S_7
REMARK    2  A    between atoms: C_2  and  C_23
REMARK    3  A    between atoms: S_7  and  N_12
REMARK    4  A    between atoms: N_11  and  N_16
REMARK    5  A    between atoms: C_23  and  C_24
REMARK    6  A    between atoms: C_24  and  N_26
REMARK    7  A    between atoms: C_27  and  C_31
REMARK                            x       y       z     vdW  Elec       q    Type
REMARK                         _______ _______ _______ _____ _____    ______ ____
ROOT
ATOM      1  C   UNL     1      34.367 -16.824 -23.756  0.00  0.00    +0.125 C 
ATOM      2  C   UNL     1      35.071 -18.790 -21.907  0.00  0.00    -0.020 C 
ATOM      3  C   UNL     1      34.159 -18.170 -24.057  0.00  0.00    +0.020 C 
ATOM      4  C   UNL     1      34.928 -16.461 -22.532  0.00  0.00    +0.020 C 
ATOM      5  C   UNL     1      34.510 -19.153 -23.132  0.00  0.00    -0.003 C 
ATOM      6  C   UNL     1      35.279 -17.444 -21.607  0.00  0.00    -0.003 C 
ENDROOT
BRANCH   1   7
ATOM      7  S   UNL     1      33.922 -15.578 -24.929  0.00  0.00    +0.077 S 
ATOM      8  O   UNL     1      32.558 -15.825 -25.355  0.00  0.00    -0.150 OA
ATOM      9  O   UNL     1      34.996 -15.517 -25.903  0.00  0.00    -0.150 OA
BRANCH   7  12
ATOM     10  O   UNL     1      33.520 -12.571 -25.584  0.00  0.00    -0.250 OA
ATOM     11  N   UNL     1      33.858 -11.920 -23.389  0.00  0.00    -0.230 N 
ATOM     12  N   UNL     1      33.967 -14.177 -23.952  0.00  0.00    -0.168 N 
ATOM     13  C   UNL     1      33.759 -12.838 -24.410  0.00  0.00    +0.333 C 
ATOM     14  H   UNL     1      34.053 -12.215 -22.470  0.00  0.00    +0.171 HD
ATOM     15  H   UNL     1      34.153 -14.302 -22.992  0.00  0.00    +0.178 HD
BRANCH  11  16
ATOM     16  N   UNL     1      33.678 -10.574 -23.672  0.00  0.00    -0.205 NA
ATOM     17  C   UNL     1      34.516  -7.535 -23.125  0.00  0.00    +0.002 C 
ATOM     18  C   UNL     1      33.008  -7.407 -22.951  0.00  0.00    +0.002 C 
ATOM     19  C   UNL     1      34.953  -8.466 -24.250  0.00  0.00    +0.019 C 
ATOM     20  C   UNL     1      32.177  -8.672 -23.141  0.00  0.00    +0.019 C 
ATOM     21  C   UNL     1      34.988  -9.939 -23.830  0.00  0.00    +0.092 C 
ATOM     22  C   UNL     1      32.822  -9.966 -22.648  0.00  0.00    +0.092 C 
ENDBRANCH  11  16
ENDBRANCH   7  12
ENDBRANCH   1   7
BRANCH   2  23
ATOM     23  C   UNL     1      35.446 -19.841 -20.918  0.00  0.00    +0.048 C 
BRANCH  23  24
ATOM     24  C   UNL     1      34.239 -20.523 -20.260  0.00  0.00    +0.094 C 
BRANCH  24  26
ATOM     25  O   UNL     1      32.593 -22.366 -18.866  0.00  0.00    -0.268 OA
ATOM     26  N   UNL     1      34.601 -21.252 -19.075  0.00  0.00    -0.299 N 
ATOM     27  C   UNL     1      33.729 -22.141 -18.450  0.00  0.00    +0.267 C 
ATOM     28  H   UNL     1      35.498 -21.118 -18.691  0.00  0.00    +0.150 HD
BRANCH  27  31
ATOM     29  O   UNL     1      35.677 -23.446 -15.757  0.00  0.00    -0.358 OA
ATOM     30  N   UNL     1      35.546 -22.763 -16.962  0.00  0.00    -0.073 NA
ATOM     31  C   UNL     1      34.238 -22.784 -17.230  0.00  0.00    +0.176 C 
ATOM     32  C   UNL     1      33.500 -23.458 -16.241  0.00  0.00    +0.063 C 
ATOM     33  C   UNL     1      34.451 -23.855 -15.340  0.00  0.00    +0.155 C 
ATOM     34  C   UNL     1      34.404 -24.598 -14.073  0.00  0.00    +0.075 C 
ENDBRANCH  27  31
ENDBRANCH  24  26
ENDBRANCH  23  24
ENDBRANCH   2  23
TORSDOF 7
ENDMDL
MODEL 5
REMARK VINA RESULT:     -10.8      2.567     12.013
REMARK  Name = 32778
REMARK  7 active torsions:
REMARK  status: ('A' for Active; 'I' for Inactive)
REMARK    1  A    between atoms: C_1  and  S_7
REMARK    2  A    between atoms: C_2  and  C_23
REMARK    3  A    between atoms: S_7  and  N_12
REMARK    4  A    between atoms: N_11  and  N_16
REMARK    5  A    between atoms: C_23  and  C_24
REMARK    6  A    between atoms: C_24  and  N_26
REMARK    7  A    between atoms: C_27  and  C_31
REMARK                            x       y       z     vdW  Elec       q    Type
REMARK                         _______ _______ _______ _____ _____    ______ ____
ROOT
ATOM      1  C   UNL     1      35.445 -20.027 -20.570  0.00  0.00    +0.125 C 
ATOM      2  C   UNL     1      34.296 -21.886 -18.837  0.00  0.00    -0.020 C 
ATOM      3  C   UNL     1      36.257 -20.812 -19.751  0.00  0.00    +0.020 C 
ATOM      4  C   UNL     1      34.059 -20.171 -20.521  0.00  0.00    +0.020 C 
ATOM      5  C   UNL     1      35.683 -21.743 -18.885  0.00  0.00    -0.003 C 
ATOM      6  C   UNL     1      33.484 -21.101 -19.655  0.00  0.00    -0.003 C 
ENDROOT
BRANCH   1   7
ATOM      7  S   UNL     1      36.174 -18.848 -21.666  0.00  0.00    +0.077 S 
ATOM      8  O   UNL     1      35.694 -19.120 -23.007  0.00  0.00    -0.150 OA
ATOM      9  O   UNL     1      37.598 -18.836 -21.383  0.00  0.00    -0.150 OA
BRANCH   7  12
ATOM     10  O   UNL     1      34.555 -16.618 -23.096  0.00  0.00    -0.250 OA
ATOM     11  N   UNL     1      34.304 -15.383 -21.155  0.00  0.00    -0.230 N 
ATOM     12  N   UNL     1      35.474 -17.397 -21.097  0.00  0.00    -0.168 N 
ATOM     13  C   UNL     1      34.747 -16.457 -21.894  0.00  0.00    +0.333 C 
ATOM     14  H   UNL     1      34.500 -15.326 -20.192  0.00  0.00    +0.171 HD
ATOM     15  H   UNL     1      35.581 -17.189 -20.139  0.00  0.00    +0.178 HD
BRANCH  11  16
ATOM     16  N   UNL     1      33.579 -14.383 -21.785  0.00  0.00    -0.205 NA
ATOM     17  C   UNL     1      33.472 -11.398 -22.931  0.00  0.00    +0.002 C 
ATOM     18  C   UNL     1      32.216 -11.373 -22.070  0.00  0.00    +0.002 C 
ATOM     19  C   UNL     1      33.711 -12.706 -23.675  0.00  0.00    +0.019 C 
ATOM     20  C   UNL     1      31.865 -12.652 -21.316  0.00  0.00    +0.019 C 
ATOM     21  C   UNL     1      34.412 -13.765 -22.818  0.00  0.00    +0.092 C 
ATOM     22  C   UNL     1      33.054 -13.451 -20.782  0.00  0.00    +0.092 C 
ENDBRANCH  11  16
ENDBRANCH   7  12
ENDBRANCH   1   7
BRANCH   2  23
ATOM     23  C   UNL     1      33.682 -22.882 -17.911  0.00  0.00    +0.048 C 
BRANCH  23  24
ATOM     24  C   UNL     1      34.062 -22.667 -16.440  0.00  0.00    +0.094 C 
BRANCH  24  26
ATOM     25  O   UNL     1      34.134 -24.731 -14.494  0.00  0.00    -0.268 OA
ATOM     26  N   UNL     1      35.220 -23.429 -16.057  0.00  0.00    -0.299 N 
ATOM     27  C   UNL     1      35.169 -24.429 -15.088  0.00  0.00    +0.267 C 
ATOM     28  H   UNL     1      36.080 -23.238 -16.496  0.00  0.00    +0.150 HD
BRANCH  27  31
ATOM     29  O   UNL     1      37.888 -26.697 -14.631  0.00  0.00    -0.358 OA
ATOM     30  N   UNL     1      36.586 -26.402 -15.019  0.00  0.00    -0.073 NA
ATOM     31  C   UNL     1      36.445 -25.094 -14.788  0.00  0.00    +0.176 C 
ATOM     32  C   UNL     1      37.613 -24.515 -14.260  0.00  0.00    +0.063 C 
ATOM     33  C   UNL     1      38.488 -25.565 -14.181  0.00  0.00    +0.155 C 
ATOM     34  C   UNL     1      39.879 -25.696 -13.727  0.00  0.00    +0.075 C 
ENDBRANCH  27  31
ENDBRANCH  24  26
ENDBRANCH  23  24
ENDBRANCH   2  23
TORSDOF 7
ENDMDL
MODEL 6
REMARK VINA RESULT:     -10.5      3.392     12.133
REMARK  Name = 32778
REMARK  7 active torsions:
REMARK  status: ('A' for Active; 'I' for Inactive)
REMARK    1  A    between atoms: C_1  and  S_7
REMARK    2  A    between atoms: C_2  and  C_23
REMARK    3  A    between atoms: S_7  and  N_12
REMARK    4  A    between atoms: N_11  and  N_16
REMARK    5  A    between atoms: C_23  and  C_24
REMARK    6  A    between atoms: C_24  and  N_26
REMARK    7  A    between atoms: C_27  and  C_31
REMARK                            x       y       z     vdW  Elec       q    Type
REMARK                         _______ _______ _______ _____ _____    ______ ____
ROOT
ATOM      1  C   UNL     1      34.691 -17.505 -23.201  0.00  0.00    +0.125 C 
ATOM      2  C   UNL     1      35.465 -19.263 -21.179  0.00  0.00    -0.020 C 
ATOM      3  C   UNL     1      35.253 -17.010 -22.024  0.00  0.00    +0.020 C 
ATOM      4  C   UNL     1      34.516 -18.879 -23.367  0.00  0.00    +0.020 C 
ATOM      5  C   UNL     1      35.640 -17.889 -21.013  0.00  0.00    -0.003 C 
ATOM      6  C   UNL     1      34.903 -19.758 -22.356  0.00  0.00    -0.003 C 
ENDROOT
BRANCH   1   7
ATOM      7  S   UNL     1      34.199 -16.390 -24.481  0.00  0.00    +0.077 S 
ATOM      8  O   UNL     1      32.790 -16.604 -24.750  0.00  0.00    -0.150 OA
ATOM      9  O   UNL     1      35.178 -16.515 -25.546  0.00  0.00    -0.150 OA
BRANCH   7  12
ATOM     10  O   UNL     1      32.467 -13.814 -24.437  0.00  0.00    -0.250 OA
ATOM     11  N   UNL     1      33.939 -12.699 -23.042  0.00  0.00    -0.230 N 
ATOM     12  N   UNL     1      34.406 -14.884 -23.700  0.00  0.00    -0.168 N 
ATOM     13  C   UNL     1      33.503 -13.777 -23.779  0.00  0.00    +0.333 C 
ATOM     14  H   UNL     1      34.785 -12.747 -22.540  0.00  0.00    +0.171 HD
ATOM     15  H   UNL     1      35.214 -14.769 -23.148  0.00  0.00    +0.178 HD
BRANCH  11  16
ATOM     16  N   UNL     1      33.171 -11.544 -23.016  0.00  0.00    -0.205 NA
ATOM     17  C   UNL     1      32.876  -8.483 -22.136  0.00  0.00    +0.002 C 
ATOM     18  C   UNL     1      31.568  -9.024 -21.574  0.00  0.00    +0.002 C 
ATOM     19  C   UNL     1      33.280  -9.061 -23.487  0.00  0.00    +0.019 C 
ATOM     20  C   UNL     1      31.283 -10.507 -21.785  0.00  0.00    +0.019 C 
ATOM     21  C   UNL     1      34.013 -10.401 -23.371  0.00  0.00    +0.092 C 
ATOM     22  C   UNL     1      32.499 -11.430 -21.717  0.00  0.00    +0.092 C 
ENDBRANCH  11  16
ENDBRANCH   7  12
ENDBRANCH   1   7
BRANCH   2  23
ATOM     23  C   UNL     1      35.880 -20.203 -20.098  0.00  0.00    +0.048 C 
BRANCH  23  24
ATOM     24  C   UNL     1      35.104 -21.526 -20.103  0.00  0.00    +0.094 C 
BRANCH  24  26
ATOM     25  O   UNL     1      33.862 -23.943 -19.285  0.00  0.00    -0.268 OA
ATOM     26  N   UNL     1      34.348 -21.723 -18.895  0.00  0.00    -0.299 N 
ATOM     27  C   UNL     1      33.769 -22.947 -18.568  0.00  0.00    +0.267 C 
ATOM     28  H   UNL     1      34.237 -20.965 -18.277  0.00  0.00    +0.150 HD
BRANCH  27  31
ATOM     29  O   UNL     1      31.308 -22.755 -15.989  0.00  0.00    -0.358 OA
ATOM     30  N   UNL     1      31.718 -22.609 -17.310  0.00  0.00    -0.073 NA
ATOM     31  C   UNL     1      33.002 -22.976 -17.314  0.00  0.00    +0.176 C 
ATOM     32  C   UNL     1      33.453 -23.360 -16.039  0.00  0.00    +0.063 C 
ATOM     33  C   UNL     1      32.350 -23.202 -15.243  0.00  0.00    +0.155 C 
ATOM     34  C   UNL     1      32.090 -23.413 -13.813  0.00  0.00    +0.075 C 
ENDBRANCH  27  31
ENDBRANCH  24  26
ENDBRANCH  23  24
ENDBRANCH   2  23
TORSDOF 7
ENDMDL
MODEL 7
REMARK VINA RESULT:     -10.5      3.134     11.954
REMARK  Name = 32778
REMARK  7 active torsions:
REMARK  status: ('A' for Active; 'I' for Inactive)
REMARK    1  A    between atoms: C_1  and  S_7
REMARK    2  A    between atoms: C_2  and  C_23
REMARK    3  A    between atoms: S_7  and  N_12
REMARK    4  A    between atoms: N_11  and  N_16
REMARK    5  A    between atoms: C_23  and  C_24
REMARK    6  A    between atoms: C_24  and  N_26
REMARK    7  A    between atoms: C_27  and  C_31
REMARK                            x       y       z     vdW  Elec       q    Type
REMARK                         _______ _______ _______ _____ _____    ______ ____
ROOT
ATOM      1  C   UNL     1      34.595 -17.352 -23.265  0.00  0.00    +0.125 C 
ATOM      2  C   UNL     1      34.747 -19.395 -21.372  0.00  0.00    -0.020 C 
ATOM      3  C   UNL     1      35.043 -17.074 -21.974  0.00  0.00    +0.020 C 
ATOM      4  C   UNL     1      34.222 -18.652 -23.610  0.00  0.00    +0.020 C 
ATOM      5  C   UNL     1      35.120 -18.096 -21.028  0.00  0.00    -0.003 C 
ATOM      6  C   UNL     1      34.299 -19.673 -22.664  0.00  0.00    -0.003 C 
ENDROOT
BRANCH   1   7
ATOM      7  S   UNL     1      34.496 -16.056 -24.464  0.00  0.00    +0.077 S 
ATOM      8  O   UNL     1      33.979 -16.619 -25.696  0.00  0.00    -0.150 OA
ATOM      9  O   UNL     1      35.776 -15.373 -24.448  0.00  0.00    -0.150 OA
BRANCH   7  12
ATOM     10  O   UNL     1      34.711 -13.559 -22.633  0.00  0.00    -0.250 OA
ATOM     11  N   UNL     1      32.415 -13.302 -22.503  0.00  0.00    -0.230 N 
ATOM     12  N   UNL     1      33.310 -15.049 -23.758  0.00  0.00    -0.168 N 
ATOM     13  C   UNL     1      33.573 -13.917 -22.923  0.00  0.00    +0.333 C 
ATOM     14  H   UNL     1      31.537 -13.652 -22.780  0.00  0.00    +0.171 HD
ATOM     15  H   UNL     1      32.366 -15.265 -23.941  0.00  0.00    +0.178 HD
BRANCH  11  16
ATOM     16  N   UNL     1      32.500 -12.185 -21.686  0.00  0.00    -0.205 NA
ATOM     17  C   UNL     1      31.040 -10.111 -19.737  0.00  0.00    +0.002 C 
ATOM     18  C   UNL     1      31.722  -9.124 -20.676  0.00  0.00    +0.002 C 
ATOM     19  C   UNL     1      31.872 -11.339 -19.386  0.00  0.00    +0.019 C 
ATOM     20  C   UNL     1      32.570  -9.708 -21.801  0.00  0.00    +0.019 C 
ATOM     21  C   UNL     1      31.780 -12.447 -20.439  0.00  0.00    +0.092 C 
ATOM     22  C   UNL     1      32.043 -11.002 -22.422  0.00  0.00    +0.092 C 
ENDBRANCH  11  16
ENDBRANCH   7  12
ENDBRANCH   1   7
BRANCH   2  23
ATOM     23  C   UNL     1      34.830 -20.488 -20.360  0.00  0.00    +0.048 C 
BRANCH  23  24
ATOM     24  C   UNL     1      36.191 -20.569 -19.656  0.00  0.00    +0.094 C 
BRANCH  24  26
ATOM     25  O   UNL     1      37.538 -20.296 -17.173  0.00  0.00    -0.268 OA
ATOM     26  N   UNL     1      36.197 -21.530 -18.586  0.00  0.00    -0.299 N 
ATOM     27  C   UNL     1      36.887 -21.317 -17.395  0.00  0.00    +0.267 C 
ATOM     28  H   UNL     1      35.694 -22.369 -18.700  0.00  0.00    +0.150 HD
BRANCH  27  31
ATOM     29  O   UNL     1      35.979 -24.058 -15.296  0.00  0.00    -0.358 OA
ATOM     30  N   UNL     1      35.702 -23.129 -16.293  0.00  0.00    -0.073 NA
ATOM     31  C   UNL     1      36.821 -22.409 -16.413  0.00  0.00    +0.176 C 
ATOM     32  C   UNL     1      37.828 -22.833 -15.529  0.00  0.00    +0.063 C 
ATOM     33  C   UNL     1      37.248 -23.871 -14.849  0.00  0.00    +0.155 C 
ATOM     34  C   UNL     1      37.709 -24.774 -13.787  0.00  0.00    +0.075 C 
ENDBRANCH  27  31
ENDBRANCH  24  26
ENDBRANCH  23  24
ENDBRANCH   2  23
TORSDOF 7
ENDMDL
MODEL 8
REMARK VINA RESULT:     -10.5      2.970     11.933
REMARK  Name = 32778
REMARK  7 active torsions:
REMARK  status: ('A' for Active; 'I' for Inactive)
REMARK    1  A    between atoms: C_1  and  S_7
REMARK    2  A    between atoms: C_2  and  C_23
REMARK    3  A    between atoms: S_7  and  N_12
REMARK    4  A    between atoms: N_11  and  N_16
REMARK    5  A    between atoms: C_23  and  C_24
REMARK    6  A    between atoms: C_24  and  N_26
REMARK    7  A    between atoms: C_27  and  C_31
REMARK                            x       y       z     vdW  Elec       q    Type
REMARK                         _______ _______ _______ _____ _____    ______ ____
ROOT
ATOM      1  C   UNL     1      34.343 -16.932 -23.708  0.00  0.00    +0.125 C 
ATOM      2  C   UNL     1      35.100 -18.813 -21.793  0.00  0.00    -0.020 C 
ATOM      3  C   UNL     1      34.924 -16.513 -22.511  0.00  0.00    +0.020 C 
ATOM      4  C   UNL     1      34.140 -18.291 -23.948  0.00  0.00    +0.020 C 
ATOM      5  C   UNL     1      35.303 -17.454 -21.554  0.00  0.00    -0.003 C 
ATOM      6  C   UNL     1      34.519 -19.232 -22.990  0.00  0.00    -0.003 C 
ENDROOT
BRANCH   1   7
ATOM      7  S   UNL     1      33.862 -15.738 -24.920  0.00  0.00    +0.077 S 
ATOM      8  O   UNL     1      33.095 -16.419 -25.945  0.00  0.00    -0.150 OA
ATOM      9  O   UNL     1      35.055 -14.990 -25.270  0.00  0.00    -0.150 OA
BRANCH   7  12
ATOM     10  O   UNL     1      34.403 -13.284 -23.098  0.00  0.00    -0.250 OA
ATOM     11  N   UNL     1      32.165 -13.021 -22.575  0.00  0.00    -0.230 N 
ATOM     12  N   UNL     1      32.821 -14.742 -24.002  0.00  0.00    -0.168 N 
ATOM     13  C   UNL     1      33.230 -13.631 -23.199  0.00  0.00    +0.333 C 
ATOM     14  H   UNL     1      31.250 -13.360 -22.706  0.00  0.00    +0.171 HD
ATOM     15  H   UNL     1      31.858 -14.950 -24.026  0.00  0.00    +0.178 HD
BRANCH  11  16
ATOM     16  N   UNL     1      32.397 -11.923 -21.760  0.00  0.00    -0.205 NA
ATOM     17  C   UNL     1      31.245  -9.751 -19.715  0.00  0.00    +0.002 C 
ATOM     18  C   UNL     1      31.949  -8.817 -20.690  0.00  0.00    +0.002 C 
ATOM     19  C   UNL     1      31.987 -11.049 -19.422  0.00  0.00    +0.019 C 
ATOM     20  C   UNL     1      32.672  -9.460 -21.868  0.00  0.00    +0.019 C 
ATOM     21  C   UNL     1      31.735 -12.135 -20.472  0.00  0.00    +0.092 C 
ATOM     22  C   UNL     1      31.999 -10.698 -22.460  0.00  0.00    +0.092 C 
ENDBRANCH  11  16
ENDBRANCH   7  12
ENDBRANCH   1   7
BRANCH   2  23
ATOM     23  C   UNL     1      35.507 -19.819 -20.770  0.00  0.00    +0.048 C 
BRANCH  23  24
ATOM     24  C   UNL     1      34.365 -20.746 -20.333  0.00  0.00    +0.094 C 
BRANCH  24  26
ATOM     25  O   UNL     1      32.512 -22.131 -18.690  0.00  0.00    -0.268 OA
ATOM     26  N   UNL     1      34.677 -21.470 -19.131  0.00  0.00    -0.299 N 
ATOM     27  C   UNL     1      33.703 -22.125 -18.380  0.00  0.00    +0.267 C 
ATOM     28  H   UNL     1      35.613 -21.504 -18.827  0.00  0.00    +0.150 HD
BRANCH  27  31
ATOM     29  O   UNL     1      35.579 -23.504 -15.674  0.00  0.00    -0.358 OA
ATOM     30  N   UNL     1      35.482 -22.804 -16.872  0.00  0.00    -0.073 NA
ATOM     31  C   UNL     1      34.178 -22.792 -17.159  0.00  0.00    +0.176 C 
ATOM     32  C   UNL     1      33.411 -23.461 -16.190  0.00  0.00    +0.063 C 
ATOM     33  C   UNL     1      34.339 -23.889 -15.279  0.00  0.00    +0.155 C 
ATOM     34  C   UNL     1      34.256 -24.645 -14.023  0.00  0.00    +0.075 C 
ENDBRANCH  27  31
ENDBRANCH  24  26
ENDBRANCH  23  24
ENDBRANCH   2  23
TORSDOF 7
ENDMDL
MODEL 9
REMARK VINA RESULT:     -10.4      3.109      4.176
REMARK  Name = 32778
REMARK  7 active torsions:
REMARK  status: ('A' for Active; 'I' for Inactive)
REMARK    1  A    between atoms: C_1  and  S_7
REMARK    2  A    between atoms: C_2  and  C_23
REMARK    3  A    between atoms: S_7  and  N_12
REMARK    4  A    between atoms: N_11  and  N_16
REMARK    5  A    between atoms: C_23  and  C_24
REMARK    6  A    between atoms: C_24  and  N_26
REMARK    7  A    between atoms: C_27  and  C_31
REMARK                            x       y       z     vdW  Elec       q    Type
REMARK                         _______ _______ _______ _____ _____    ______ ____
ROOT
ATOM      1  C   UNL     1      35.400 -20.301 -20.500  0.00  0.00    +0.125 C 
ATOM      2  C   UNL     1      34.959 -18.400 -22.493  0.00  0.00    -0.020 C 
ATOM      3  C   UNL     1      36.432 -19.446 -20.888  0.00  0.00    +0.020 C 
ATOM      4  C   UNL     1      34.149 -20.206 -21.108  0.00  0.00    +0.020 C 
ATOM      5  C   UNL     1      36.211 -18.495 -21.884  0.00  0.00    -0.003 C 
ATOM      6  C   UNL     1      33.928 -19.255 -22.104  0.00  0.00    -0.003 C 
ENDROOT
BRANCH   1   7
ATOM      7  S   UNL     1      35.682 -21.507 -19.238  0.00  0.00    +0.077 S 
ATOM      8  O   UNL     1      36.552 -20.920 -18.238  0.00  0.00    -0.150 OA
ATOM      9  O   UNL     1      36.058 -22.737 -19.910  0.00  0.00    -0.150 OA
BRANCH   7  12
ATOM     10  O   UNL     1      34.514 -23.403 -17.075  0.00  0.00    -0.250 OA
ATOM     11  N   UNL     1      32.387 -22.514 -17.266  0.00  0.00    -0.230 N 
ATOM     12  N   UNL     1      34.109 -21.676 -18.592  0.00  0.00    -0.168 N 
ATOM     13  C   UNL     1      33.722 -22.614 -17.582  0.00  0.00    +0.333 C 
ATOM     14  H   UNL     1      31.815 -21.853 -17.719  0.00  0.00    +0.171 HD
ATOM     15  H   UNL     1      33.409 -21.078 -18.944  0.00  0.00    +0.178 HD
BRANCH  11  16
ATOM     16  N   UNL     1      31.856 -23.356 -16.300  0.00  0.00    -0.205 NA
ATOM     17  C   UNL     1      29.876 -23.760 -13.821  0.00  0.00    +0.002 C 
ATOM     18  C   UNL     1      31.149 -24.329 -13.210  0.00  0.00    +0.002 C 
ATOM     19  C   UNL     1      29.661 -24.105 -15.289  0.00  0.00    +0.019 C 
ATOM     20  C   UNL     1      32.396 -24.342 -14.089  0.00  0.00    +0.019 C 
ATOM     21  C   UNL     1      30.406 -23.165 -16.242  0.00  0.00    +0.092 C 
ATOM     22  C   UNL     1      32.554 -23.146 -15.027  0.00  0.00    +0.092 C 
ENDBRANCH  11  16
ENDBRANCH   7  12
ENDBRANCH   1   7
BRANCH   2  23
ATOM     23  C   UNL     1      34.723 -17.382 -23.557  0.00  0.00    +0.048 C 
BRANCH  23  24
ATOM     24  C   UNL     1      35.311 -16.004 -23.228  0.00  0.00    +0.094 C 
BRANCH  24  26
ATOM     25  O   UNL     1      33.939 -13.651 -24.025  0.00  0.00    -0.268 OA
ATOM     26  N   UNL     1      34.433 -15.217 -22.405  0.00  0.00    -0.299 N 
ATOM     27  C   UNL     1      33.797 -14.070 -22.876  0.00  0.00    +0.267 C 
ATOM     28  H   UNL     1      34.275 -15.499 -21.475  0.00  0.00    +0.150 HD
BRANCH  27  31
ATOM     29  O   UNL     1      31.920 -12.977 -20.043  0.00  0.00    -0.358 OA
ATOM     30  N   UNL     1      32.737 -13.893 -20.697  0.00  0.00    -0.073 NA
ATOM     31  C   UNL     1      32.956 -13.359 -21.902  0.00  0.00    +0.176 C 
ATOM     32  C   UNL     1      32.311 -12.121 -22.064  0.00  0.00    +0.063 C 
ATOM     33  C   UNL     1      31.673 -11.928 -20.868  0.00  0.00    +0.155 C 
ATOM     34  C   UNL     1      30.819 -10.859 -20.332  0.00  0.00    +0.075 C 
ENDBRANCH  27  31
ENDBRANCH  24  26
ENDBRANCH  23  24
ENDBRANCH   2  23
TORSDOF 7
ENDMDL
