MODEL 1
REMARK VINA RESULT:     -11.6      0.000      0.000
REMARK  Name = 447656
REMARK  5 active torsions:
REMARK  status: ('A' for Active; 'I' for Inactive)
REMARK    1  A    between atoms: N_5  and  C_14
REMARK    2  A    between atoms: C_6  and  O_25
REMARK    3  A    between atoms: C_17  and  C_22
REMARK    4  A    between atoms: O_25  and  C_26
REMARK    5  A    between atoms: C_26  and  C_27
REMARK                            x       y       z     vdW  Elec       q    Type
REMARK                         _______ _______ _______ _____ _____    ______ ____
ROOT
ATOM      1  N   UNL     1      32.900 -23.539 -15.609  0.00  0.00    -0.293 NA
ATOM      2  N   UNL     1      29.515 -22.560 -16.660  0.00  0.00    -0.266 NA
ATOM      3  N   UNL     1      31.176 -23.958 -13.934  0.00  0.00    -0.316 NA
ATOM      4  N   UNL     1      28.943 -23.307 -14.639  0.00  0.00    -0.296 N 
ATOM      5  N   UNL     1      33.420 -24.486 -13.530  0.00  0.00    -0.238 N 
ATOM      6  C   UNL     1      31.997 -23.035 -16.476  0.00  0.00    +0.288 C 
ATOM      7  C   UNL     1      30.676 -22.987 -16.080  0.00  0.00    +0.215 C 
ATOM      8  C   UNL     1      30.294 -23.446 -14.827  0.00  0.00    +0.196 C 
ATOM      9  C   UNL     1      32.441 -23.965 -14.408  0.00  0.00    +0.207 C 
ATOM     10  C   UNL     1      28.506 -22.771 -15.759  0.00  0.00    +0.164 C 
ATOM     11  H   UNL     1      29.422 -22.171 -17.560  0.00  0.00    +0.126 HD
ATOM     12  H   UNL     1      28.416 -23.553 -13.844  0.00  0.00    +0.150 HD
ATOM     13  H   UNL     1      33.057 -24.787 -12.666  0.00  0.00    +0.166 HD
ENDROOT
BRANCH   5  14
ATOM     14  C   UNL     1      34.810 -24.658 -13.651  0.00  0.00    +0.058 C 
ATOM     15  C   UNL     1      35.327 -25.550 -14.595  0.00  0.00    +0.015 C 
ATOM     16  C   UNL     1      35.680 -23.939 -12.829  0.00  0.00    +0.015 C 
ATOM     17  C   UNL     1      37.572 -25.001 -13.893  0.00  0.00    +0.053 C 
ATOM     18  C   UNL     1      36.706 -25.721 -14.716  0.00  0.00    +0.006 C 
ATOM     19  C   UNL     1      37.060 -24.110 -12.950  0.00  0.00    +0.006 C 
BRANCH  17  22
ATOM     20  O   UNL     1      39.692 -24.445 -14.756  0.00  0.00    -0.270 OA
ATOM     21  N   UNL     1      39.606 -26.189 -13.269  0.00  0.00    -0.325 N 
ATOM     22  C   UNL     1      39.009 -25.179 -14.019  0.00  0.00    +0.243 C 
ATOM     23  H   UNL     1      40.577 -26.339 -13.330  0.00  0.00    +0.145 HD
ATOM     24  H   UNL     1      39.056 -26.755 -12.680  0.00  0.00    +0.145 HD
ENDBRANCH  17  22
ENDBRANCH   5  14
BRANCH   6  25
ATOM     25  O   UNL     1      32.429 -22.594 -17.703  0.00  0.00    -0.453 OA
BRANCH  25  26
ATOM     26  C   UNL     1      33.792 -22.810 -18.020  0.00  0.00    +0.208 C 
BRANCH  26  27
ATOM     27  C   UNL     1      34.122 -22.031 -19.292  0.00  0.00    +0.044 C 
ATOM     28  C   UNL     1      33.054 -20.964 -19.567  0.00  0.00    +0.004 C 
ATOM     29  C   UNL     1      35.515 -21.396 -19.193  0.00  0.00    +0.004 C 
ATOM     30  C   UNL     1      33.389 -20.136 -20.806  0.00  0.00    +0.000 C 
ATOM     31  C   UNL     1      35.846 -20.567 -20.432  0.00  0.00    +0.000 C 
ATOM     32  C   UNL     1      34.778 -19.515 -20.707  0.00  0.00    +0.000 C 
ENDBRANCH  26  27
ENDBRANCH  25  26
ENDBRANCH   6  25
TORSDOF 5
ENDMDL
MODEL 2
REMARK VINA RESULT:     -11.4      1.997      6.533
REMARK  Name = 447656
REMARK  5 active torsions:
REMARK  status: ('A' for Active; 'I' for Inactive)
REMARK    1  A    between atoms: N_5  and  C_14
REMARK    2  A    between atoms: C_6  and  O_25
REMARK    3  A    between atoms: C_17  and  C_22
REMARK    4  A    between atoms: O_25  and  C_26
REMARK    5  A    between atoms: C_26  and  C_27
REMARK                            x       y       z     vdW  Elec       q    Type
REMARK                         _______ _______ _______ _____ _____    ______ ____
ROOT
ATOM      1  N   UNL     1      33.618 -23.637 -15.378  0.00  0.00    -0.293 NA
ATOM      2  N   UNL     1      37.267 -24.063 -15.218  0.00  0.00    -0.266 NA
ATOM      3  N   UNL     1      34.399 -24.812 -13.387  0.00  0.00    -0.316 NA
ATOM      4  N   UNL     1      36.812 -25.088 -13.292  0.00  0.00    -0.296 N 
ATOM      5  N   UNL     1      32.123 -24.403 -13.746  0.00  0.00    -0.238 N 
ATOM      6  C   UNL     1      34.878 -23.497 -15.842  0.00  0.00    +0.288 C 
ATOM      7  C   UNL     1      35.909 -24.012 -15.083  0.00  0.00    +0.215 C 
ATOM      8  C   UNL     1      35.651 -24.655 -13.880  0.00  0.00    +0.196 C 
ATOM      9  C   UNL     1      33.458 -24.277 -14.195  0.00  0.00    +0.207 C 
ATOM     10  C   UNL     1      37.763 -24.717 -14.122  0.00  0.00    +0.164 C 
ATOM     11  H   UNL     1      37.792 -23.698 -15.967  0.00  0.00    +0.126 HD
ATOM     12  H   UNL     1      36.912 -25.570 -12.439  0.00  0.00    +0.150 HD
ATOM     13  H   UNL     1      32.037 -24.871 -12.884  0.00  0.00    +0.166 HD
ENDROOT
BRANCH   5  14
ATOM     14  C   UNL     1      30.894 -23.989 -14.289  0.00  0.00    +0.058 C 
ATOM     15  C   UNL     1      30.472 -22.665 -14.143  0.00  0.00    +0.015 C 
ATOM     16  C   UNL     1      30.089 -24.899 -14.978  0.00  0.00    +0.015 C 
ATOM     17  C   UNL     1      28.452 -23.165 -15.369  0.00  0.00    +0.053 C 
ATOM     18  C   UNL     1      29.253 -22.253 -14.682  0.00  0.00    +0.006 C 
ATOM     19  C   UNL     1      28.870 -24.488 -15.518  0.00  0.00    +0.006 C 
BRANCH  17  22
ATOM     20  O   UNL     1      26.211 -22.459 -15.205  0.00  0.00    -0.270 OA
ATOM     21  N   UNL     1      27.091 -22.626 -17.316  0.00  0.00    -0.325 N 
ATOM     22  C   UNL     1      27.182 -22.737 -15.931  0.00  0.00    +0.243 C 
ATOM     23  H   UNL     1      26.246 -22.340 -17.733  0.00  0.00    +0.145 HD
ATOM     24  H   UNL     1      27.871 -22.837 -17.879  0.00  0.00    +0.145 HD
ENDBRANCH  17  22
ENDBRANCH   5  14
BRANCH   6  25
ATOM     25  O   UNL     1      35.076 -22.853 -17.039  0.00  0.00    -0.453 OA
BRANCH  25  26
ATOM     26  C   UNL     1      33.955 -22.724 -17.893  0.00  0.00    +0.208 C 
BRANCH  26  27
ATOM     27  C   UNL     1      34.397 -22.009 -19.168  0.00  0.00    +0.044 C 
ATOM     28  C   UNL     1      33.363 -20.953 -19.583  0.00  0.00    +0.004 C 
ATOM     29  C   UNL     1      35.781 -21.374 -18.982  0.00  0.00    +0.004 C 
ATOM     30  C   UNL     1      33.808 -20.186 -20.827  0.00  0.00    +0.000 C 
ATOM     31  C   UNL     1      36.221 -20.606 -20.226  0.00  0.00    +0.000 C 
ATOM     32  C   UNL     1      35.187 -19.565 -20.641  0.00  0.00    +0.000 C 
ENDBRANCH  26  27
ENDBRANCH  25  26
ENDBRANCH   6  25
TORSDOF 5
ENDMDL
MODEL 3
REMARK VINA RESULT:     -11.2      2.572      6.975
REMARK  Name = 447656
REMARK  5 active torsions:
REMARK  status: ('A' for Active; 'I' for Inactive)
REMARK    1  A    between atoms: N_5  and  C_14
REMARK    2  A    between atoms: C_6  and  O_25
REMARK    3  A    between atoms: C_17  and  C_22
REMARK    4  A    between atoms: O_25  and  C_26
REMARK    5  A    between atoms: C_26  and  C_27
REMARK                            x       y       z     vdW  Elec       q    Type
REMARK                         _______ _______ _______ _____ _____    ______ ____
ROOT
ATOM      1  N   UNL     1      33.945 -22.714 -16.207  0.00  0.00    -0.293 NA
ATOM      2  N   UNL     1      32.909 -24.549 -13.194  0.00  0.00    -0.266 NA
ATOM      3  N   UNL     1      31.689 -23.635 -16.327  0.00  0.00    -0.316 NA
ATOM      4  N   UNL     1      31.015 -24.846 -14.330  0.00  0.00    -0.296 N 
ATOM      5  N   UNL     1      32.604 -22.420 -18.105  0.00  0.00    -0.238 N 
ATOM      6  C   UNL     1      34.127 -23.207 -14.964  0.00  0.00    +0.288 C 
ATOM      7  C   UNL     1      33.093 -23.918 -14.391  0.00  0.00    +0.215 C 
ATOM      8  C   UNL     1      31.903 -24.117 -15.078  0.00  0.00    +0.196 C 
ATOM      9  C   UNL     1      32.754 -22.954 -16.804  0.00  0.00    +0.207 C 
ATOM     10  C   UNL     1      31.651 -25.090 -13.204  0.00  0.00    +0.164 C 
ATOM     11  H   UNL     1      33.562 -24.606 -12.459  0.00  0.00    +0.126 HD
ATOM     12  H   UNL     1      30.104 -25.125 -14.579  0.00  0.00    +0.150 HD
ATOM     13  H   UNL     1      31.729 -22.610 -18.513  0.00  0.00    +0.166 HD
ENDROOT
BRANCH   5  14
ATOM     14  C   UNL     1      33.462 -21.670 -18.929  0.00  0.00    +0.058 C 
ATOM     15  C   UNL     1      32.935 -20.740 -19.829  0.00  0.00    +0.015 C 
ATOM     16  C   UNL     1      34.845 -21.852 -18.852  0.00  0.00    +0.015 C 
ATOM     17  C   UNL     1      35.166 -20.179 -20.566  0.00  0.00    +0.053 C 
ATOM     18  C   UNL     1      33.785 -19.996 -20.646  0.00  0.00    +0.006 C 
ATOM     19  C   UNL     1      35.696 -21.107 -19.669  0.00  0.00    +0.006 C 
BRANCH  17  22
ATOM     20  O   UNL     1      35.715 -19.062 -22.566  0.00  0.00    -0.270 OA
ATOM     21  N   UNL     1      37.290 -19.034 -20.898  0.00  0.00    -0.325 N 
ATOM     22  C   UNL     1      36.052 -19.403 -21.417  0.00  0.00    +0.243 C 
ATOM     23  H   UNL     1      37.917 -18.508 -21.446  0.00  0.00    +0.145 HD
ATOM     24  H   UNL     1      37.539 -19.299 -19.983  0.00  0.00    +0.145 HD
ENDBRANCH  17  22
ENDBRANCH   5  14
BRANCH   6  25
ATOM     25  O   UNL     1      35.324 -22.982 -14.329  0.00  0.00    -0.453 OA
BRANCH  25  26
ATOM     26  C   UNL     1      36.501 -23.344 -15.030  0.00  0.00    +0.208 C 
BRANCH  26  27
ATOM     27  C   UNL     1      37.228 -24.422 -14.229  0.00  0.00    +0.044 C 
ATOM     28  C   UNL     1      37.307 -24.035 -12.746  0.00  0.00    +0.004 C 
ATOM     29  C   UNL     1      36.541 -25.783 -14.402  0.00  0.00    +0.004 C 
ATOM     30  C   UNL     1      37.985 -25.122 -11.914  0.00  0.00    +0.000 C 
ATOM     31  C   UNL     1      37.219 -26.867 -13.567  0.00  0.00    +0.000 C 
ATOM     32  C   UNL     1      37.304 -26.475 -12.096  0.00  0.00    +0.000 C 
ENDBRANCH  26  27
ENDBRANCH  25  26
ENDBRANCH   6  25
TORSDOF 5
ENDMDL
MODEL 4
REMARK VINA RESULT:     -11.1      2.067      6.614
REMARK  Name = 447656
REMARK  5 active torsions:
REMARK  status: ('A' for Active; 'I' for Inactive)
REMARK    1  A    between atoms: N_5  and  C_14
REMARK    2  A    between atoms: C_6  and  O_25
REMARK    3  A    between atoms: C_17  and  C_22
REMARK    4  A    between atoms: O_25  and  C_26
REMARK    5  A    between atoms: C_26  and  C_27
REMARK                            x       y       z     vdW  Elec       q    Type
REMARK                         _______ _______ _______ _____ _____    ______ ____
ROOT
ATOM      1  N   UNL     1      34.352 -24.041 -14.129  0.00  0.00    -0.293 NA
ATOM      2  N   UNL     1      37.861 -24.155 -13.036  0.00  0.00    -0.266 NA
ATOM      3  N   UNL     1      34.638 -24.307 -11.720  0.00  0.00    -0.316 NA
ATOM      4  N   UNL     1      36.962 -24.381 -11.009  0.00  0.00    -0.296 N 
ATOM      5  N   UNL     1      32.511 -24.204 -12.690  0.00  0.00    -0.238 N 
ATOM      6  C   UNL     1      35.687 -24.016 -14.328  0.00  0.00    +0.288 C 
ATOM      7  C   UNL     1      36.509 -24.136 -13.227  0.00  0.00    +0.215 C 
ATOM      8  C   UNL     1      35.973 -24.278 -11.954  0.00  0.00    +0.196 C 
ATOM      9  C   UNL     1      33.915 -24.182 -12.855  0.00  0.00    +0.207 C 
ATOM     10  C   UNL     1      38.084 -24.303 -11.693  0.00  0.00    +0.164 C 
ATOM     11  H   UNL     1      38.550 -24.076 -13.736  0.00  0.00    +0.126 HD
ATOM     12  H   UNL     1      36.856 -24.489 -10.036  0.00  0.00    +0.150 HD
ATOM     13  H   UNL     1      32.223 -24.307 -11.754  0.00  0.00    +0.166 HD
ENDROOT
BRANCH   5  14
ATOM     14  C   UNL     1      31.445 -24.105 -13.601  0.00  0.00    +0.058 C 
ATOM     15  C   UNL     1      31.166 -22.887 -14.226  0.00  0.00    +0.015 C 
ATOM     16  C   UNL     1      30.661 -25.225 -13.887  0.00  0.00    +0.015 C 
ATOM     17  C   UNL     1      29.328 -23.909 -15.414  0.00  0.00    +0.053 C 
ATOM     18  C   UNL     1      30.110 -22.789 -15.131  0.00  0.00    +0.006 C 
ATOM     19  C   UNL     1      29.603 -25.127 -14.792  0.00  0.00    +0.006 C 
BRANCH  17  22
ATOM     20  O   UNL     1      27.788 -24.808 -16.952  0.00  0.00    -0.270 OA
ATOM     21  N   UNL     1      27.662 -22.552 -16.561  0.00  0.00    -0.325 N 
ATOM     22  C   UNL     1      28.227 -23.808 -16.357  0.00  0.00    +0.243 C 
ATOM     23  H   UNL     1      26.915 -22.445 -17.194  0.00  0.00    +0.145 HD
ATOM     24  H   UNL     1      28.010 -21.770 -16.074  0.00  0.00    +0.145 HD
ENDBRANCH  17  22
ENDBRANCH   5  14
BRANCH   6  25
ATOM     25  O   UNL     1      36.164 -23.874 -15.608  0.00  0.00    -0.453 OA
BRANCH  25  26
ATOM     26  C   UNL     1      36.643 -22.594 -15.978  0.00  0.00    +0.208 C 
BRANCH  26  27
ATOM     27  C   UNL     1      35.675 -21.989 -16.992  0.00  0.00    +0.044 C 
ATOM     28  C   UNL     1      36.371 -21.770 -18.342  0.00  0.00    +0.004 C 
ATOM     29  C   UNL     1      34.435 -22.878 -17.155  0.00  0.00    +0.004 C 
ATOM     30  C   UNL     1      35.408 -21.214 -19.390  0.00  0.00    +0.000 C 
ATOM     31  C   UNL     1      33.476 -22.321 -18.205  0.00  0.00    +0.000 C 
ATOM     32  C   UNL     1      34.174 -22.096 -19.542  0.00  0.00    +0.000 C 
ENDBRANCH  26  27
ENDBRANCH  25  26
ENDBRANCH   6  25
TORSDOF 5
ENDMDL
MODEL 5
REMARK VINA RESULT:     -10.8      1.797      6.459
REMARK  Name = 447656
REMARK  5 active torsions:
REMARK  status: ('A' for Active; 'I' for Inactive)
REMARK    1  A    between atoms: N_5  and  C_14
REMARK    2  A    between atoms: C_6  and  O_25
REMARK    3  A    between atoms: C_17  and  C_22
REMARK    4  A    between atoms: O_25  and  C_26
REMARK    5  A    between atoms: C_26  and  C_27
REMARK                            x       y       z     vdW  Elec       q    Type
REMARK                         _______ _______ _______ _____ _____    ______ ____
ROOT
ATOM      1  N   UNL     1      35.701 -24.073 -14.705  0.00  0.00    -0.293 NA
ATOM      2  N   UNL     1      39.313 -24.734 -14.511  0.00  0.00    -0.266 NA
ATOM      3  N   UNL     1      36.343 -25.584 -12.900  0.00  0.00    -0.316 NA
ATOM      4  N   UNL     1      38.733 -26.014 -12.782  0.00  0.00    -0.296 N 
ATOM      5  N   UNL     1      34.107 -24.991 -13.255  0.00  0.00    -0.238 N 
ATOM      6  C   UNL     1      36.983 -23.938 -15.106  0.00  0.00    +0.288 C 
ATOM      7  C   UNL     1      37.956 -24.624 -14.408  0.00  0.00    +0.215 C 
ATOM      8  C   UNL     1      37.620 -25.427 -13.327  0.00  0.00    +0.196 C 
ATOM      9  C   UNL     1      35.463 -24.877 -13.641  0.00  0.00    +0.207 C 
ATOM     10  C   UNL     1      39.733 -25.576 -13.517  0.00  0.00    +0.164 C 
ATOM     11  H   UNL     1      39.885 -24.289 -15.179  0.00  0.00    +0.126 HD
ATOM     12  H   UNL     1      38.775 -26.626 -12.011  0.00  0.00    +0.150 HD
ATOM     13  H   UNL     1      33.965 -25.581 -12.479  0.00  0.00    +0.166 HD
ENDROOT
BRANCH   5  14
ATOM     14  C   UNL     1      32.923 -24.427 -13.761  0.00  0.00    +0.058 C 
ATOM     15  C   UNL     1      32.971 -23.566 -14.861  0.00  0.00    +0.015 C 
ATOM     16  C   UNL     1      31.694 -24.724 -13.168  0.00  0.00    +0.015 C 
ATOM     17  C   UNL     1      30.571 -23.305 -14.769  0.00  0.00    +0.053 C 
ATOM     18  C   UNL     1      31.797 -23.006 -15.364  0.00  0.00    +0.006 C 
ATOM     19  C   UNL     1      30.519 -24.164 -13.671  0.00  0.00    +0.006 C 
BRANCH  17  22
ATOM     20  O   UNL     1      28.572 -22.077 -14.565  0.00  0.00    -0.270 OA
ATOM     21  N   UNL     1      29.077 -22.892 -16.648  0.00  0.00    -0.325 N 
ATOM     22  C   UNL     1      29.347 -22.722 -15.293  0.00  0.00    +0.243 C 
ATOM     23  H   UNL     1      28.257 -22.512 -17.038  0.00  0.00    +0.145 HD
ATOM     24  H   UNL     1      29.705 -23.395 -17.216  0.00  0.00    +0.145 HD
ENDBRANCH  17  22
ENDBRANCH   5  14
BRANCH   6  25
ATOM     25  O   UNL     1      37.260 -23.131 -16.182  0.00  0.00    -0.453 OA
BRANCH  25  26
ATOM     26  C   UNL     1      36.403 -22.023 -16.392  0.00  0.00    +0.208 C 
BRANCH  26  27
ATOM     27  C   UNL     1      35.862 -22.092 -17.819  0.00  0.00    +0.044 C 
ATOM     28  C   UNL     1      34.328 -22.067 -17.819  0.00  0.00    +0.004 C 
ATOM     29  C   UNL     1      36.427 -20.947 -18.669  0.00  0.00    +0.004 C 
ATOM     30  C   UNL     1      33.764 -22.082 -19.238  0.00  0.00    +0.000 C 
ATOM     31  C   UNL     1      35.859 -20.964 -20.086  0.00  0.00    +0.000 C 
ATOM     32  C   UNL     1      34.334 -20.948 -20.082  0.00  0.00    +0.000 C 
ENDBRANCH  26  27
ENDBRANCH  25  26
ENDBRANCH   6  25
TORSDOF 5
ENDMDL
MODEL 6
REMARK VINA RESULT:     -10.6      2.617      5.498
REMARK  Name = 447656
REMARK  5 active torsions:
REMARK  status: ('A' for Active; 'I' for Inactive)
REMARK    1  A    between atoms: N_5  and  C_14
REMARK    2  A    between atoms: C_6  and  O_25
REMARK    3  A    between atoms: C_17  and  C_22
REMARK    4  A    between atoms: O_25  and  C_26
REMARK    5  A    between atoms: C_26  and  C_27
REMARK                            x       y       z     vdW  Elec       q    Type
REMARK                         _______ _______ _______ _____ _____    ______ ____
ROOT
ATOM      1  N   UNL     1      34.910 -22.598 -17.234  0.00  0.00    -0.293 NA
ATOM      2  N   UNL     1      33.357 -21.066 -20.195  0.00  0.00    -0.266 NA
ATOM      3  N   UNL     1      36.390 -21.113 -18.481  0.00  0.00    -0.316 NA
ATOM      4  N   UNL     1      35.354 -20.106 -20.436  0.00  0.00    -0.296 N 
ATOM      5  N   UNL     1      37.119 -22.221 -16.553  0.00  0.00    -0.238 N 
ATOM      6  C   UNL     1      33.893 -22.376 -18.093  0.00  0.00    +0.288 C 
ATOM      7  C   UNL     1      34.115 -21.521 -19.153  0.00  0.00    +0.215 C 
ATOM      8  C   UNL     1      35.350 -20.911 -19.325  0.00  0.00    +0.196 C 
ATOM      9  C   UNL     1      36.081 -21.961 -17.477  0.00  0.00    +0.207 C 
ATOM     10  C   UNL     1      34.141 -20.223 -20.934  0.00  0.00    +0.164 C 
ATOM     11  H   UNL     1      32.419 -21.303 -20.379  0.00  0.00    +0.126 HD
ATOM     12  H   UNL     1      36.097 -19.562 -20.782  0.00  0.00    +0.150 HD
ATOM     13  H   UNL     1      37.957 -21.745 -16.754  0.00  0.00    +0.166 HD
ENDROOT
BRANCH   5  14
ATOM     14  C   UNL     1      37.189 -23.027 -15.403  0.00  0.00    +0.058 C 
ATOM     15  C   UNL     1      38.230 -23.948 -15.254  0.00  0.00    +0.015 C 
ATOM     16  C   UNL     1      36.219 -22.911 -14.405  0.00  0.00    +0.015 C 
ATOM     17  C   UNL     1      37.329 -24.629 -13.118  0.00  0.00    +0.053 C 
ATOM     18  C   UNL     1      38.300 -24.747 -14.113  0.00  0.00    +0.006 C 
ATOM     19  C   UNL     1      36.289 -23.710 -13.263  0.00  0.00    +0.006 C 
BRANCH  17  22
ATOM     20  O   UNL     1      37.700 -24.983 -10.819  0.00  0.00    -0.270 OA
ATOM     21  N   UNL     1      37.108 -26.815 -12.066  0.00  0.00    -0.325 N 
ATOM     22  C   UNL     1      37.402 -25.461 -11.929  0.00  0.00    +0.243 C 
ATOM     23  H   UNL     1      37.148 -27.409 -11.282  0.00  0.00    +0.145 HD
ATOM     24  H   UNL     1      36.862 -27.178 -12.947  0.00  0.00    +0.145 HD
ENDBRANCH  17  22
ENDBRANCH   5  14
BRANCH   6  25
ATOM     25  O   UNL     1      32.692 -23.007 -17.877  0.00  0.00    -0.453 OA
BRANCH  25  26
ATOM     26  C   UNL     1      31.936 -22.583 -16.758  0.00  0.00    +0.208 C 
BRANCH  26  27
ATOM     27  C   UNL     1      31.799 -23.759 -15.792  0.00  0.00    +0.044 C 
ATOM     28  C   UNL     1      32.634 -23.521 -14.527  0.00  0.00    +0.004 C 
ATOM     29  C   UNL     1      30.326 -24.000 -15.437  0.00  0.00    +0.004 C 
ATOM     30  C   UNL     1      32.472 -24.660 -13.522  0.00  0.00    +0.000 C 
ATOM     31  C   UNL     1      30.168 -25.137 -14.430  0.00  0.00    +0.000 C 
ATOM     32  C   UNL     1      31.006 -24.902 -13.178  0.00  0.00    +0.000 C 
ENDBRANCH  26  27
ENDBRANCH  25  26
ENDBRANCH   6  25
TORSDOF 5
ENDMDL
MODEL 7
REMARK VINA RESULT:      -9.4      2.877      5.590
REMARK  Name = 447656
REMARK  5 active torsions:
REMARK  status: ('A' for Active; 'I' for Inactive)
REMARK    1  A    between atoms: N_5  and  C_14
REMARK    2  A    between atoms: C_6  and  O_25
REMARK    3  A    between atoms: C_17  and  C_22
REMARK    4  A    between atoms: O_25  and  C_26
REMARK    5  A    between atoms: C_26  and  C_27
REMARK                            x       y       z     vdW  Elec       q    Type
REMARK                         _______ _______ _______ _____ _____    ______ ____
ROOT
ATOM      1  N   UNL     1      35.501 -22.440 -17.307  0.00  0.00    -0.293 NA
ATOM      2  N   UNL     1      34.530 -20.803 -20.453  0.00  0.00    -0.266 NA
ATOM      3  N   UNL     1      37.145 -20.849 -18.151  0.00  0.00    -0.316 NA
ATOM      4  N   UNL     1      36.494 -19.773 -20.232  0.00  0.00    -0.296 N 
ATOM      5  N   UNL     1      37.506 -22.034 -16.166  0.00  0.00    -0.238 N 
ATOM      6  C   UNL     1      34.674 -22.204 -18.348  0.00  0.00    +0.288 C 
ATOM      7  C   UNL     1      35.075 -21.289 -19.299  0.00  0.00    +0.215 C 
ATOM      8  C   UNL     1      36.294 -20.634 -19.184  0.00  0.00    +0.196 C 
ATOM      9  C   UNL     1      36.670 -21.757 -17.273  0.00  0.00    +0.207 C 
ATOM     10  C   UNL     1      35.416 -19.899 -20.976  0.00  0.00    +0.164 C 
ATOM     11  H   UNL     1      33.660 -21.057 -20.839  0.00  0.00    +0.126 HD
ATOM     12  H   UNL     1      37.271 -19.189 -20.392  0.00  0.00    +0.150 HD
ATOM     13  H   UNL     1      38.347 -21.523 -16.168  0.00  0.00    +0.166 HD
ENDROOT
BRANCH   5  14
ATOM     14  C   UNL     1      37.370 -22.896 -15.064  0.00  0.00    +0.058 C 
ATOM     15  C   UNL     1      36.769 -22.441 -13.887  0.00  0.00    +0.015 C 
ATOM     16  C   UNL     1      37.835 -24.211 -15.140  0.00  0.00    +0.015 C 
ATOM     17  C   UNL     1      37.098 -24.609 -12.873  0.00  0.00    +0.053 C 
ATOM     18  C   UNL     1      36.633 -23.296 -12.794  0.00  0.00    +0.006 C 
ATOM     19  C   UNL     1      37.699 -25.067 -14.046  0.00  0.00    +0.006 C 
BRANCH  17  22
ATOM     20  O   UNL     1      36.620 -25.074 -10.614  0.00  0.00    -0.270 OA
ATOM     21  N   UNL     1      37.191 -26.857 -11.939  0.00  0.00    -0.325 N 
ATOM     22  C   UNL     1      36.957 -25.500 -11.734  0.00  0.00    +0.243 C 
ATOM     23  H   UNL     1      37.105 -27.491 -11.190  0.00  0.00    +0.145 HD
ATOM     24  H   UNL     1      37.445 -27.183 -12.833  0.00  0.00    +0.145 HD
ENDBRANCH  17  22
ENDBRANCH   5  14
BRANCH   6  25
ATOM     25  O   UNL     1      33.480 -22.881 -18.413  0.00  0.00    -0.453 OA
BRANCH  25  26
ATOM     26  C   UNL     1      32.393 -22.338 -17.686  0.00  0.00    +0.208 C 
BRANCH  26  27
ATOM     27  C   UNL     1      32.133 -23.225 -16.470  0.00  0.00    +0.044 C 
ATOM     28  C   UNL     1      33.222 -23.021 -15.408  0.00  0.00    +0.004 C 
ATOM     29  C   UNL     1      30.742 -22.950 -15.886  0.00  0.00    +0.004 C 
ATOM     30  C   UNL     1      32.955 -23.859 -14.159  0.00  0.00    +0.000 C 
ATOM     31  C   UNL     1      30.480 -23.787 -14.636  0.00  0.00    +0.000 C 
ATOM     32  C   UNL     1      31.568 -23.589 -13.586  0.00  0.00    +0.000 C 
ENDBRANCH  26  27
ENDBRANCH  25  26
ENDBRANCH   6  25
TORSDOF 5
ENDMDL
MODEL 8
REMARK VINA RESULT:      -9.2     13.290     17.518
REMARK  Name = 447656
REMARK  5 active torsions:
REMARK  status: ('A' for Active; 'I' for Inactive)
REMARK    1  A    between atoms: N_5  and  C_14
REMARK    2  A    between atoms: C_6  and  O_25
REMARK    3  A    between atoms: C_17  and  C_22
REMARK    4  A    between atoms: O_25  and  C_26
REMARK    5  A    between atoms: C_26  and  C_27
REMARK                            x       y       z     vdW  Elec       q    Type
REMARK                         _______ _______ _______ _____ _____    ______ ____
ROOT
ATOM      1  N   UNL     1      32.856  -8.564 -22.902  0.00  0.00    -0.293 NA
ATOM      2  N   UNL     1      31.757 -11.030 -20.405  0.00  0.00    -0.266 NA
ATOM      3  N   UNL     1      32.455  -7.628 -20.685  0.00  0.00    -0.316 NA
ATOM      4  N   UNL     1      31.728  -9.267 -19.043  0.00  0.00    -0.296 N 
ATOM      5  N   UNL     1      33.163  -6.283 -22.464  0.00  0.00    -0.238 N 
ATOM      6  C   UNL     1      32.521  -9.803 -22.486  0.00  0.00    +0.288 C 
ATOM      7  C   UNL     1      32.150  -9.967 -21.167  0.00  0.00    +0.215 C 
ATOM      8  C   UNL     1      32.124  -8.884 -20.298  0.00  0.00    +0.196 C 
ATOM      9  C   UNL     1      32.804  -7.565 -21.988  0.00  0.00    +0.207 C 
ATOM     10  C   UNL     1      31.515 -10.561 -19.142  0.00  0.00    +0.164 C 
ATOM     11  H   UNL     1      31.663 -11.962 -20.710  0.00  0.00    +0.126 HD
ATOM     12  H   UNL     1      31.626  -8.699 -18.244  0.00  0.00    +0.150 HD
ATOM     13  H   UNL     1      33.116  -5.578 -21.778  0.00  0.00    +0.166 HD
ENDROOT
BRANCH   5  14
ATOM     14  C   UNL     1      33.574  -5.818 -23.726  0.00  0.00    +0.058 C 
ATOM     15  C   UNL     1      32.694  -5.084 -24.525  0.00  0.00    +0.015 C 
ATOM     16  C   UNL     1      34.865  -6.088 -24.186  0.00  0.00    +0.015 C 
ATOM     17  C   UNL     1      34.391  -4.894 -26.233  0.00  0.00    +0.053 C 
ATOM     18  C   UNL     1      33.101  -4.623 -25.776  0.00  0.00    +0.006 C 
ATOM     19  C   UNL     1      35.273  -5.626 -25.438  0.00  0.00    +0.006 C 
BRANCH  17  22
ATOM     20  O   UNL     1      33.992  -4.056 -28.397  0.00  0.00    -0.270 OA
ATOM     21  N   UNL     1      36.184  -4.344 -27.787  0.00  0.00    -0.325 N 
ATOM     22  C   UNL     1      34.816  -4.413 -27.537  0.00  0.00    +0.243 C 
ATOM     23  H   UNL     1      36.509  -4.023 -28.660  0.00  0.00    +0.145 HD
ATOM     24  H   UNL     1      36.826  -4.617 -27.093  0.00  0.00    +0.145 HD
ENDBRANCH  17  22
ENDBRANCH   5  14
BRANCH   6  25
ATOM     25  O   UNL     1      32.563 -10.839 -23.388  0.00  0.00    -0.453 OA
BRANCH  25  26
ATOM     26  C   UNL     1      33.775 -11.565 -23.477  0.00  0.00    +0.208 C 
BRANCH  26  27
ATOM     27  C   UNL     1      33.443 -13.028 -23.766  0.00  0.00    +0.044 C 
ATOM     28  C   UNL     1      33.477 -13.303 -25.276  0.00  0.00    +0.004 C 
ATOM     29  C   UNL     1      34.405 -13.960 -23.019  0.00  0.00    +0.004 C 
ATOM     30  C   UNL     1      33.200 -14.772 -25.588  0.00  0.00    +0.000 C 
ATOM     31  C   UNL     1      34.127 -15.428 -23.336  0.00  0.00    +0.000 C 
ATOM     32  C   UNL     1      34.153 -15.696 -24.837  0.00  0.00    +0.000 C 
ENDBRANCH  26  27
ENDBRANCH  25  26
ENDBRANCH   6  25
TORSDOF 5
ENDMDL
MODEL 9
REMARK VINA RESULT:      -9.1     13.431     17.678
REMARK  Name = 447656
REMARK  5 active torsions:
REMARK  status: ('A' for Active; 'I' for Inactive)
REMARK    1  A    between atoms: N_5  and  C_14
REMARK    2  A    between atoms: C_6  and  O_25
REMARK    3  A    between atoms: C_17  and  C_22
REMARK    4  A    between atoms: O_25  and  C_26
REMARK    5  A    between atoms: C_26  and  C_27
REMARK                            x       y       z     vdW  Elec       q    Type
REMARK                         _______ _______ _______ _____ _____    ______ ____
ROOT
ATOM      1  N   UNL     1      32.867  -8.486 -22.895  0.00  0.00    -0.293 NA
ATOM      2  N   UNL     1      31.813 -10.942 -20.370  0.00  0.00    -0.266 NA
ATOM      3  N   UNL     1      32.364  -7.519 -20.713  0.00  0.00    -0.316 NA
ATOM      4  N   UNL     1      31.668  -9.151 -19.051  0.00  0.00    -0.296 N 
ATOM      5  N   UNL     1      33.059  -6.185 -22.505  0.00  0.00    -0.238 N 
ATOM      6  C   UNL     1      32.577  -9.730 -22.459  0.00  0.00    +0.288 C 
ATOM      7  C   UNL     1      32.178  -9.880 -21.146  0.00  0.00    +0.215 C 
ATOM      8  C   UNL     1      32.080  -8.780 -20.305  0.00  0.00    +0.196 C 
ATOM      9  C   UNL     1      32.745  -7.471 -22.008  0.00  0.00    +0.207 C 
ATOM     10  C   UNL     1      31.516 -10.457 -19.124  0.00  0.00    +0.164 C 
ATOM     11  H   UNL     1      31.770 -11.884 -20.654  0.00  0.00    +0.126 HD
ATOM     12  H   UNL     1      31.519  -8.571 -18.270  0.00  0.00    +0.150 HD
ATOM     13  H   UNL     1      32.962  -5.467 -21.838  0.00  0.00    +0.166 HD
ENDROOT
BRANCH   5  14
ATOM     14  C   UNL     1      33.483  -5.731 -23.766  0.00  0.00    +0.058 C 
ATOM     15  C   UNL     1      34.761  -6.048 -24.233  0.00  0.00    +0.015 C 
ATOM     16  C   UNL     1      32.629  -4.960 -24.559  0.00  0.00    +0.015 C 
ATOM     17  C   UNL     1      34.327  -4.830 -26.273  0.00  0.00    +0.053 C 
ATOM     18  C   UNL     1      35.183  -5.599 -25.484  0.00  0.00    +0.006 C 
ATOM     19  C   UNL     1      33.050  -4.511 -25.811  0.00  0.00    +0.006 C 
BRANCH  17  22
ATOM     20  O   UNL     1      33.955  -3.934 -28.419  0.00  0.00    -0.270 OA
ATOM     21  N   UNL     1      36.130  -4.387 -27.850  0.00  0.00    -0.325 N 
ATOM     22  C   UNL     1      34.765  -4.361 -27.577  0.00  0.00    +0.243 C 
ATOM     23  H   UNL     1      36.464  -4.078 -28.723  0.00  0.00    +0.145 HD
ATOM     24  H   UNL     1      36.762  -4.716 -27.170  0.00  0.00    +0.145 HD
ENDBRANCH  17  22
ENDBRANCH   5  14
BRANCH   6  25
ATOM     25  O   UNL     1      32.690 -10.784 -23.333  0.00  0.00    -0.453 OA
BRANCH  25  26
ATOM     26  C   UNL     1      33.901 -10.889 -24.059  0.00  0.00    +0.208 C 
BRANCH  26  27
ATOM     27  C   UNL     1      34.173 -12.367 -24.336  0.00  0.00    +0.044 C 
ATOM     28  C   UNL     1      33.989 -13.200 -23.060  0.00  0.00    +0.004 C 
ATOM     29  C   UNL     1      33.266 -12.883 -25.460  0.00  0.00    +0.004 C 
ATOM     30  C   UNL     1      34.203 -14.689 -23.323  0.00  0.00    +0.000 C 
ATOM     31  C   UNL     1      33.480 -14.373 -25.718  0.00  0.00    +0.000 C 
ATOM     32  C   UNL     1      33.307 -15.196 -24.447  0.00  0.00    +0.000 C 
ENDBRANCH  26  27
ENDBRANCH  25  26
ENDBRANCH   6  25
TORSDOF 5
ENDMDL
