MODEL 1
REMARK VINA RESULT:     -11.6      0.000      0.000
REMARK  Name = 23586146
REMARK  5 active torsions:
REMARK  status: ('A' for Active; 'I' for Inactive)
REMARK    1  A    between atoms: N_1  and  C_12
REMARK    2  A    between atoms: C_8  and  N_18
REMARK    3  A    between atoms: N_18  and  C_20
REMARK    4  A    between atoms: C_23  and  S_26
REMARK    5  A    between atoms: S_26  and  N_29
REMARK                            x       y       z     vdW  Elec       q    Type
REMARK                         _______ _______ _______ _____ _____    ______ ____
ROOT
ATOM      1  N   UNL     1      35.519 -24.368 -13.935  0.00  0.00    -0.309 N 
ATOM      2  N   UNL     1      33.292 -23.812 -13.957  0.00  0.00    -0.321 NA
ATOM      3  N   UNL     1      32.256 -23.257 -16.052  0.00  0.00    -0.106 N 
ATOM      4  N   UNL     1      31.029 -22.887 -16.507  0.00  0.00    -0.139 NA
ATOM      5  N   UNL     1      30.969 -23.191 -14.251  0.00  0.00    -0.145 NA
ATOM      6  C   UNL     1      34.416 -23.999 -14.607  0.00  0.00    +0.196 C 
ATOM      7  C   UNL     1      34.537 -23.818 -16.096  0.00  0.00    +0.081 C 
ATOM      8  C   UNL     1      33.438 -23.449 -16.772  0.00  0.00    +0.140 C 
ATOM      9  C   UNL     1      32.195 -23.437 -14.669  0.00  0.00    +0.176 C 
ATOM     10  C   UNL     1      30.307 -22.866 -15.390  0.00  0.00    +0.230 C 
ATOM     11  H   UNL     1      36.357 -24.490 -14.436  0.00  0.00    +0.149 HD
ENDROOT
BRANCH   1  12
ATOM     12  C   UNL     1      35.527 -24.596 -12.502  0.00  0.00    +0.071 C 
ATOM     13  C   UNL     1      36.478 -25.747 -12.157  0.00  0.00    +0.020 C 
ATOM     14  C   UNL     1      35.913 -23.309 -11.768  0.00  0.00    +0.020 C 
ATOM     15  C   UNL     1      37.950 -25.372 -12.337  0.00  0.00    +0.002 C 
ATOM     16  C   UNL     1      37.386 -22.943 -11.948  0.00  0.00    +0.002 C 
ATOM     17  C   UNL     1      38.305 -24.102 -11.573  0.00  0.00    +0.000 C 
ENDBRANCH   1  12
BRANCH   8  18
ATOM     18  N   UNL     1      33.398 -23.247 -18.121  0.00  0.00    -0.299 N 
ATOM     19  H   UNL     1      32.917 -23.928 -18.643  0.00  0.00    +0.153 HD
BRANCH  18  20
ATOM     20  C   UNL     1      33.952 -22.194 -18.858  0.00  0.00    +0.049 C 
ATOM     21  C   UNL     1      33.120 -21.306 -19.542  0.00  0.00    +0.016 C 
ATOM     22  C   UNL     1      35.337 -22.030 -18.909  0.00  0.00    +0.016 C 
ATOM     23  C   UNL     1      35.058 -20.094 -20.326  0.00  0.00    +0.122 C 
ATOM     24  C   UNL     1      33.673 -20.256 -20.275  0.00  0.00    +0.021 C 
ATOM     25  C   UNL     1      35.889 -20.981 -19.642  0.00  0.00    +0.021 C 
BRANCH  23  26
ATOM     26  S   UNL     1      35.749 -18.781 -21.244  0.00  0.00    +0.057 S 
ATOM     27  O   UNL     1      35.516 -19.036 -22.659  0.00  0.00    -0.153 OA
ATOM     28  O   UNL     1      35.311 -17.523 -20.655  0.00  0.00    -0.153 OA
BRANCH  26  29
ATOM     29  N   UNL     1      37.412 -18.991 -20.914  0.00  0.00    -0.203 NA
ATOM     30  H   UNL     1      37.639 -19.984 -20.925  0.00  0.00    +0.144 HD
ATOM     31  H   UNL     1      37.628 -18.603 -19.995  0.00  0.00    +0.144 HD
ENDBRANCH  26  29
ENDBRANCH  23  26
ENDBRANCH  18  20
ENDBRANCH   8  18
TORSDOF 5
ENDMDL
MODEL 2
REMARK VINA RESULT:     -10.0      2.036      4.689
REMARK  Name = 23586146
REMARK  5 active torsions:
REMARK  status: ('A' for Active; 'I' for Inactive)
REMARK    1  A    between atoms: N_1  and  C_12
REMARK    2  A    between atoms: C_8  and  N_18
REMARK    3  A    between atoms: N_18  and  C_20
REMARK    4  A    between atoms: C_23  and  S_26
REMARK    5  A    between atoms: S_26  and  N_29
REMARK                            x       y       z     vdW  Elec       q    Type
REMARK                         _______ _______ _______ _____ _____    ______ ____
ROOT
ATOM      1  N   UNL     1      31.354 -23.222 -15.586  0.00  0.00    -0.309 N 
ATOM      2  N   UNL     1      33.496 -23.090 -14.772  0.00  0.00    -0.321 NA
ATOM      3  N   UNL     1      35.309 -22.797 -16.320  0.00  0.00    -0.106 N 
ATOM      4  N   UNL     1      36.663 -22.675 -16.280  0.00  0.00    -0.139 NA
ATOM      5  N   UNL     1      35.837 -22.922 -14.173  0.00  0.00    -0.145 NA
ATOM      6  C   UNL     1      32.673 -23.083 -15.794  0.00  0.00    +0.196 C 
ATOM      7  C   UNL     1      33.141 -22.926 -17.216  0.00  0.00    +0.081 C 
ATOM      8  C   UNL     1      34.458 -22.787 -17.428  0.00  0.00    +0.140 C 
ATOM      9  C   UNL     1      34.826 -22.947 -15.018  0.00  0.00    +0.176 C 
ATOM     10  C   UNL     1      36.917 -22.757 -14.978  0.00  0.00    +0.230 C 
ATOM     11  H   UNL     1      30.752 -23.231 -16.364  0.00  0.00    +0.149 HD
ENDROOT
BRANCH   1  12
ATOM     12  C   UNL     1      30.777 -23.360 -14.261  0.00  0.00    +0.071 C 
ATOM     13  C   UNL     1      29.315 -22.902 -14.273  0.00  0.00    +0.020 C 
ATOM     14  C   UNL     1      30.907 -24.809 -13.780  0.00  0.00    +0.020 C 
ATOM     15  C   UNL     1      28.398 -23.868 -15.024  0.00  0.00    +0.002 C 
ATOM     16  C   UNL     1      29.984 -25.768 -14.532  0.00  0.00    +0.002 C 
ATOM     17  C   UNL     1      28.534 -25.294 -14.502  0.00  0.00    +0.000 C 
ENDBRANCH   1  12
BRANCH   8  18
ATOM     18  N   UNL     1      35.025 -22.635 -18.661  0.00  0.00    -0.299 N 
ATOM     19  H   UNL     1      35.458 -23.436 -19.035  0.00  0.00    +0.153 HD
BRANCH  18  20
ATOM     20  C   UNL     1      35.069 -21.488 -19.461  0.00  0.00    +0.049 C 
ATOM     21  C   UNL     1      36.293 -20.878 -19.739  0.00  0.00    +0.016 C 
ATOM     22  C   UNL     1      33.890 -20.954 -19.980  0.00  0.00    +0.016 C 
ATOM     23  C   UNL     1      35.156 -19.201 -21.056  0.00  0.00    +0.122 C 
ATOM     24  C   UNL     1      36.336 -19.735 -20.537  0.00  0.00    +0.021 C 
ATOM     25  C   UNL     1      33.934 -19.811 -20.778  0.00  0.00    +0.021 C 
BRANCH  23  26
ATOM     26  S   UNL     1      35.212 -17.770 -22.054  0.00  0.00    +0.057 S 
ATOM     27  O   UNL     1      34.437 -18.021 -23.261  0.00  0.00    -0.153 OA
ATOM     28  O   UNL     1      34.904 -16.613 -21.224  0.00  0.00    -0.153 OA
BRANCH  26  29
ATOM     29  N   UNL     1      36.870 -17.723 -22.465  0.00  0.00    -0.203 NA
ATOM     30  H   UNL     1      37.007 -18.152 -23.379  0.00  0.00    +0.144 HD
ATOM     31  H   UNL     1      37.408 -18.235 -21.765  0.00  0.00    +0.144 HD
ENDBRANCH  26  29
ENDBRANCH  23  26
ENDBRANCH  18  20
ENDBRANCH   8  18
TORSDOF 5
ENDMDL
MODEL 3
REMARK VINA RESULT:      -9.1      8.194     11.914
REMARK  Name = 23586146
REMARK  5 active torsions:
REMARK  status: ('A' for Active; 'I' for Inactive)
REMARK    1  A    between atoms: N_1  and  C_12
REMARK    2  A    between atoms: C_8  and  N_18
REMARK    3  A    between atoms: N_18  and  C_20
REMARK    4  A    between atoms: C_23  and  S_26
REMARK    5  A    between atoms: S_26  and  N_29
REMARK                            x       y       z     vdW  Elec       q    Type
REMARK                         _______ _______ _______ _____ _____    ______ ____
ROOT
ATOM      1  N   UNL     1      35.209 -16.895 -22.039  0.00  0.00    -0.309 N 
ATOM      2  N   UNL     1      34.599 -16.209 -24.143  0.00  0.00    -0.321 NA
ATOM      3  N   UNL     1      33.250 -14.234 -24.373  0.00  0.00    -0.106 N 
ATOM      4  N   UNL     1      32.688 -13.505 -25.374  0.00  0.00    -0.139 NA
ATOM      5  N   UNL     1      33.822 -15.279 -26.241  0.00  0.00    -0.145 NA
ATOM      6  C   UNL     1      34.570 -16.030 -22.843  0.00  0.00    +0.196 C 
ATOM      7  C   UNL     1      33.842 -14.884 -22.195  0.00  0.00    +0.081 C 
ATOM      8  C   UNL     1      33.201 -14.017 -22.994  0.00  0.00    +0.140 C 
ATOM      9  C   UNL     1      33.940 -15.314 -24.928  0.00  0.00    +0.176 C 
ATOM     10  C   UNL     1      33.064 -14.175 -26.459  0.00  0.00    +0.230 C 
ATOM     11  H   UNL     1      35.164 -16.755 -21.066  0.00  0.00    +0.149 HD
ENDROOT
BRANCH   1  12
ATOM     12  C   UNL     1      35.963 -18.027 -22.544  0.00  0.00    +0.071 C 
ATOM     13  C   UNL     1      37.134 -18.339 -21.606  0.00  0.00    +0.020 C 
ATOM     14  C   UNL     1      35.041 -19.239 -22.714  0.00  0.00    +0.020 C 
ATOM     15  C   UNL     1      36.682 -18.941 -20.275  0.00  0.00    +0.002 C 
ATOM     16  C   UNL     1      34.598 -19.837 -21.379  0.00  0.00    +0.002 C 
ATOM     17  C   UNL     1      35.789 -20.159 -20.482  0.00  0.00    +0.000 C 
ENDBRANCH   1  12
BRANCH   8  18
ATOM     18  N   UNL     1      32.501 -12.934 -22.548  0.00  0.00    -0.299 N 
ATOM     19  H   UNL     1      31.660 -13.131 -22.077  0.00  0.00    +0.153 HD
BRANCH  18  20
ATOM     20  C   UNL     1      32.827 -11.579 -22.672  0.00  0.00    +0.049 C 
ATOM     21  C   UNL     1      32.100 -10.618 -21.967  0.00  0.00    +0.016 C 
ATOM     22  C   UNL     1      33.878 -11.187 -23.502  0.00  0.00    +0.016 C 
ATOM     23  C   UNL     1      33.477  -8.877 -22.921  0.00  0.00    +0.122 C 
ATOM     24  C   UNL     1      32.426  -9.268 -22.091  0.00  0.00    +0.021 C 
ATOM     25  C   UNL     1      34.203  -9.837 -23.625  0.00  0.00    +0.021 C 
BRANCH  23  26
ATOM     26  S   UNL     1      33.884  -7.186 -23.076  0.00  0.00    +0.057 S 
ATOM     27  O   UNL     1      35.318  -7.038 -22.876  0.00  0.00    -0.153 OA
ATOM     28  O   UNL     1      33.266  -6.670 -24.289  0.00  0.00    -0.153 OA
BRANCH  26  29
ATOM     29  N   UNL     1      33.069  -6.530 -21.724  0.00  0.00    -0.203 NA
ATOM     30  H   UNL     1      33.553  -5.691 -21.409  0.00  0.00    +0.144 HD
ATOM     31  H   UNL     1      33.054  -7.217 -20.970  0.00  0.00    +0.144 HD
ENDBRANCH  26  29
ENDBRANCH  23  26
ENDBRANCH  18  20
ENDBRANCH   8  18
TORSDOF 5
ENDMDL
MODEL 4
REMARK VINA RESULT:      -8.9      5.876     11.274
REMARK  Name = 23586146
REMARK  5 active torsions:
REMARK  status: ('A' for Active; 'I' for Inactive)
REMARK    1  A    between atoms: N_1  and  C_12
REMARK    2  A    between atoms: C_8  and  N_18
REMARK    3  A    between atoms: N_18  and  C_20
REMARK    4  A    between atoms: C_23  and  S_26
REMARK    5  A    between atoms: S_26  and  N_29
REMARK                            x       y       z     vdW  Elec       q    Type
REMARK                         _______ _______ _______ _____ _____    ______ ____
ROOT
ATOM      1  N   UNL     1      33.982 -13.722 -23.208  0.00  0.00    -0.309 N 
ATOM      2  N   UNL     1      33.370 -15.630 -24.327  0.00  0.00    -0.321 NA
ATOM      3  N   UNL     1      34.304 -17.732 -23.633  0.00  0.00    -0.106 N 
ATOM      4  N   UNL     1      34.225 -19.041 -23.991  0.00  0.00    -0.139 NA
ATOM      5  N   UNL     1      32.890 -17.780 -25.338  0.00  0.00    -0.145 NA
ATOM      6  C   UNL     1      34.065 -15.052 -23.376  0.00  0.00    +0.196 C 
ATOM      7  C   UNL     1      34.969 -15.817 -22.448  0.00  0.00    +0.081 C 
ATOM      8  C   UNL     1      35.056 -17.145 -22.612  0.00  0.00    +0.140 C 
ATOM      9  C   UNL     1      33.478 -16.979 -24.470  0.00  0.00    +0.176 C 
ATOM     10  C   UNL     1      33.370 -19.006 -25.009  0.00  0.00    +0.230 C 
ATOM     11  H   UNL     1      34.522 -13.302 -22.501  0.00  0.00    +0.149 HD
ENDROOT
BRANCH   1  12
ATOM     12  C   UNL     1      33.130 -12.878 -24.025  0.00  0.00    +0.071 C 
ATOM     13  C   UNL     1      32.127 -12.130 -23.140  0.00  0.00    +0.020 C 
ATOM     14  C   UNL     1      33.985 -11.909 -24.848  0.00  0.00    +0.020 C 
ATOM     15  C   UNL     1      32.784 -11.040 -22.292  0.00  0.00    +0.002 C 
ATOM     16  C   UNL     1      34.634 -10.820 -23.994  0.00  0.00    +0.002 C 
ATOM     17  C   UNL     1      33.604 -10.080 -23.146  0.00  0.00    +0.000 C 
ENDBRANCH   1  12
BRANCH   8  18
ATOM     18  N   UNL     1      35.833 -17.965 -21.846  0.00  0.00    -0.299 N 
ATOM     19  H   UNL     1      36.795 -17.755 -21.833  0.00  0.00    +0.153 HD
BRANCH  18  20
ATOM     20  C   UNL     1      35.439 -19.065 -21.076  0.00  0.00    +0.049 C 
ATOM     21  C   UNL     1      36.399 -19.842 -20.427  0.00  0.00    +0.016 C 
ATOM     22  C   UNL     1      34.087 -19.385 -20.959  0.00  0.00    +0.016 C 
ATOM     23  C   UNL     1      34.652 -21.258 -19.542  0.00  0.00    +0.122 C 
ATOM     24  C   UNL     1      36.005 -20.938 -19.659  0.00  0.00    +0.021 C 
ATOM     25  C   UNL     1      33.694 -20.481 -20.192  0.00  0.00    +0.021 C 
BRANCH  23  26
ATOM     26  S   UNL     1      34.161 -22.630 -18.581  0.00  0.00    +0.057 S 
ATOM     27  O   UNL     1      34.053 -23.789 -19.457  0.00  0.00    -0.153 OA
ATOM     28  O   UNL     1      35.006 -22.694 -17.397  0.00  0.00    -0.153 OA
BRANCH  26  29
ATOM     29  N   UNL     1      32.590 -22.151 -18.107  0.00  0.00    -0.203 NA
ATOM     30  H   UNL     1      32.620 -21.200 -17.743  0.00  0.00    +0.144 HD
ATOM     31  H   UNL     1      32.246 -22.782 -17.384  0.00  0.00    +0.144 HD
ENDBRANCH  26  29
ENDBRANCH  23  26
ENDBRANCH  18  20
ENDBRANCH   8  18
TORSDOF 5
ENDMDL
MODEL 5
REMARK VINA RESULT:      -8.9      9.380     14.164
REMARK  Name = 23586146
REMARK  5 active torsions:
REMARK  status: ('A' for Active; 'I' for Inactive)
REMARK    1  A    between atoms: N_1  and  C_12
REMARK    2  A    between atoms: C_8  and  N_18
REMARK    3  A    between atoms: N_18  and  C_20
REMARK    4  A    between atoms: C_23  and  S_26
REMARK    5  A    between atoms: S_26  and  N_29
REMARK                            x       y       z     vdW  Elec       q    Type
REMARK                         _______ _______ _______ _____ _____    ______ ____
ROOT
ATOM      1  N   UNL     1      34.453  -8.671 -23.670  0.00  0.00    -0.309 N 
ATOM      2  N   UNL     1      33.084  -9.750 -22.176  0.00  0.00    -0.321 NA
ATOM      3  N   UNL     1      32.621 -12.084 -22.505  0.00  0.00    -0.106 N 
ATOM      4  N   UNL     1      31.904 -13.068 -21.899  0.00  0.00    -0.139 NA
ATOM      5  N   UNL     1      31.678 -11.115 -20.751  0.00  0.00    -0.145 NA
ATOM      6  C   UNL     1      33.831  -9.786 -23.255  0.00  0.00    +0.196 C 
ATOM      7  C   UNL     1      34.028 -11.037 -24.068  0.00  0.00    +0.081 C 
ATOM      8  C   UNL     1      33.409 -12.154 -23.657  0.00  0.00    +0.140 C 
ATOM      9  C   UNL     1      32.468 -10.898 -21.784  0.00  0.00    +0.176 C 
ATOM     10  C   UNL     1      31.367 -12.431 -20.864  0.00  0.00    +0.230 C 
ATOM     11  H   UNL     1      34.996  -8.711 -24.489  0.00  0.00    +0.149 HD
ENDROOT
BRANCH   1  12
ATOM     12  C   UNL     1      34.358  -7.408 -22.961  0.00  0.00    +0.071 C 
ATOM     13  C   UNL     1      35.277  -6.369 -23.611  0.00  0.00    +0.020 C 
ATOM     14  C   UNL     1      32.903  -6.930 -22.931  0.00  0.00    +0.020 C 
ATOM     15  C   UNL     1      34.771  -5.903 -24.977  0.00  0.00    +0.002 C 
ATOM     16  C   UNL     1      32.405  -6.462 -24.298  0.00  0.00    +0.002 C 
ATOM     17  C   UNL     1      33.330  -5.410 -24.904  0.00  0.00    +0.000 C 
ENDBRANCH   1  12
BRANCH   8  18
ATOM     18  N   UNL     1      33.496 -13.358 -24.294  0.00  0.00    -0.299 N 
ATOM     19  H   UNL     1      33.203 -13.370 -25.233  0.00  0.00    +0.153 HD
BRANCH  18  20
ATOM     20  C   UNL     1      33.950 -14.579 -23.782  0.00  0.00    +0.049 C 
ATOM     21  C   UNL     1      33.917 -15.725 -24.578  0.00  0.00    +0.016 C 
ATOM     22  C   UNL     1      34.434 -14.652 -22.476  0.00  0.00    +0.016 C 
ATOM     23  C   UNL     1      34.854 -17.013 -22.761  0.00  0.00    +0.122 C 
ATOM     24  C   UNL     1      34.370 -16.942 -24.067  0.00  0.00    +0.021 C 
ATOM     25  C   UNL     1      34.886 -15.868 -21.966  0.00  0.00    +0.021 C 
BRANCH  23  26
ATOM     26  S   UNL     1      35.420 -18.536 -22.123  0.00  0.00    +0.057 S 
ATOM     27  O   UNL     1      35.053 -18.610 -20.716  0.00  0.00    -0.153 OA
ATOM     28  O   UNL     1      35.016 -19.599 -23.033  0.00  0.00    -0.153 OA
BRANCH  26  29
ATOM     29  N   UNL     1      37.113 -18.330 -22.240  0.00  0.00    -0.203 NA
ATOM     30  H   UNL     1      37.549 -18.592 -21.357  0.00  0.00    +0.144 HD
ATOM     31  H   UNL     1      37.323 -17.353 -22.446  0.00  0.00    +0.144 HD
ENDBRANCH  26  29
ENDBRANCH  23  26
ENDBRANCH  18  20
ENDBRANCH   8  18
TORSDOF 5
ENDMDL
MODEL 6
REMARK VINA RESULT:      -8.8      4.588      8.567
REMARK  Name = 23586146
REMARK  5 active torsions:
REMARK  status: ('A' for Active; 'I' for Inactive)
REMARK    1  A    between atoms: N_1  and  C_12
REMARK    2  A    between atoms: C_8  and  N_18
REMARK    3  A    between atoms: N_18  and  C_20
REMARK    4  A    between atoms: C_23  and  S_26
REMARK    5  A    between atoms: S_26  and  N_29
REMARK                            x       y       z     vdW  Elec       q    Type
REMARK                         _______ _______ _______ _____ _____    ______ ____
ROOT
ATOM      1  N   UNL     1      35.616 -20.297 -20.423  0.00  0.00    -0.309 N 
ATOM      2  N   UNL     1      34.087 -21.471 -19.176  0.00  0.00    -0.321 NA
ATOM      3  N   UNL     1      34.848 -22.673 -17.240  0.00  0.00    -0.106 N 
ATOM      4  N   UNL     1      34.319 -23.459 -16.265  0.00  0.00    -0.139 NA
ATOM      5  N   UNL     1      32.684 -22.783 -17.699  0.00  0.00    -0.145 NA
ATOM      6  C   UNL     1      35.326 -21.086 -19.375  0.00  0.00    +0.196 C 
ATOM      7  C   UNL     1      36.461 -21.491 -18.474  0.00  0.00    +0.081 C 
ATOM      8  C   UNL     1      36.176 -22.279 -17.426  0.00  0.00    +0.140 C 
ATOM      9  C   UNL     1      33.829 -22.271 -18.106  0.00  0.00    +0.176 C 
ATOM     10  C   UNL     1      33.030 -23.487 -16.592  0.00  0.00    +0.230 C 
ATOM     11  H   UNL     1      36.552 -20.030 -20.567  0.00  0.00    +0.149 HD
ENDROOT
BRANCH   1  12
ATOM     12  C   UNL     1      34.607 -19.821 -21.352  0.00  0.00    +0.071 C 
ATOM     13  C   UNL     1      34.056 -18.471 -20.884  0.00  0.00    +0.020 C 
ATOM     14  C   UNL     1      35.195 -19.730 -22.763  0.00  0.00    +0.020 C 
ATOM     15  C   UNL     1      35.066 -17.333 -21.041  0.00  0.00    +0.002 C 
ATOM     16  C   UNL     1      36.200 -18.588 -22.914  0.00  0.00    +0.002 C 
ATOM     17  C   UNL     1      35.611 -17.255 -22.463  0.00  0.00    +0.000 C 
ENDBRANCH   1  12
BRANCH   8  18
ATOM     18  N   UNL     1      37.101 -22.725 -16.527  0.00  0.00    -0.299 N 
ATOM     19  H   UNL     1      38.041 -22.668 -16.814  0.00  0.00    +0.153 HD
BRANCH  18  20
ATOM     20  C   UNL     1      36.885 -23.251 -15.248  0.00  0.00    +0.049 C 
ATOM     21  C   UNL     1      36.861 -24.634 -15.058  0.00  0.00    +0.016 C 
ATOM     22  C   UNL     1      36.693 -22.395 -14.164  0.00  0.00    +0.016 C 
ATOM     23  C   UNL     1      36.453 -24.300 -12.699  0.00  0.00    +0.122 C 
ATOM     24  C   UNL     1      36.646 -25.158 -13.783  0.00  0.00    +0.021 C 
ATOM     25  C   UNL     1      36.478 -22.920 -12.891  0.00  0.00    +0.021 C 
BRANCH  23  26
ATOM     26  S   UNL     1      36.184 -24.958 -11.105  0.00  0.00    +0.057 S 
ATOM     27  O   UNL     1      37.010 -24.221 -10.159  0.00  0.00    -0.153 OA
ATOM     28  O   UNL     1      34.749 -25.063 -10.883  0.00  0.00    -0.153 OA
BRANCH  26  29
ATOM     29  N   UNL     1      36.827 -26.531 -11.288  0.00  0.00    -0.203 NA
ATOM     30  H   UNL     1      36.088 -27.169 -11.580  0.00  0.00    +0.144 HD
ATOM     31  H   UNL     1      37.216 -26.845 -10.398  0.00  0.00    +0.144 HD
ENDBRANCH  26  29
ENDBRANCH  23  26
ENDBRANCH  18  20
ENDBRANCH   8  18
TORSDOF 5
ENDMDL
MODEL 7
REMARK VINA RESULT:      -8.7      5.584      8.961
REMARK  Name = 23586146
REMARK  5 active torsions:
REMARK  status: ('A' for Active; 'I' for Inactive)
REMARK    1  A    between atoms: N_1  and  C_12
REMARK    2  A    between atoms: C_8  and  N_18
REMARK    3  A    between atoms: N_18  and  C_20
REMARK    4  A    between atoms: C_23  and  S_26
REMARK    5  A    between atoms: S_26  and  N_29
REMARK                            x       y       z     vdW  Elec       q    Type
REMARK                         _______ _______ _______ _____ _____    ______ ____
ROOT
ATOM      1  N   UNL     1      35.117 -19.880 -20.240  0.00  0.00    -0.309 N 
ATOM      2  N   UNL     1      34.441 -19.466 -22.395  0.00  0.00    -0.321 NA
ATOM      3  N   UNL     1      34.463 -17.204 -23.203  0.00  0.00    -0.106 N 
ATOM      4  N   UNL     1      34.163 -16.537 -24.349  0.00  0.00    -0.139 NA
ATOM      5  N   UNL     1      33.779 -18.765 -24.617  0.00  0.00    -0.145 NA
ATOM      6  C   UNL     1      34.890 -19.019 -21.245  0.00  0.00    +0.196 C 
ATOM      7  C   UNL     1      35.166 -17.562 -20.990  0.00  0.00    +0.081 C 
ATOM      8  C   UNL     1      34.940 -16.698 -21.991  0.00  0.00    +0.140 C 
ATOM      9  C   UNL     1      34.221 -18.566 -23.391  0.00  0.00    +0.176 C 
ATOM     10  C   UNL     1      33.762 -17.518 -25.151  0.00  0.00    +0.230 C 
ATOM     11  H   UNL     1      35.438 -19.526 -19.380  0.00  0.00    +0.149 HD
ENDROOT
BRANCH   1  12
ATOM     12  C   UNL     1      34.910 -21.311 -20.369  0.00  0.00    +0.071 C 
ATOM     13  C   UNL     1      35.948 -22.070 -19.536  0.00  0.00    +0.020 C 
ATOM     14  C   UNL     1      33.481 -21.673 -19.952  0.00  0.00    +0.020 C 
ATOM     15  C   UNL     1      35.711 -21.938 -18.031  0.00  0.00    +0.002 C 
ATOM     16  C   UNL     1      33.252 -21.544 -18.446  0.00  0.00    +0.002 C 
ATOM     17  C   UNL     1      34.288 -22.332 -17.649  0.00  0.00    +0.000 C 
ENDBRANCH   1  12
BRANCH   8  18
ATOM     18  N   UNL     1      35.146 -15.351 -21.904  0.00  0.00    -0.299 N 
ATOM     19  H   UNL     1      36.075 -15.050 -22.019  0.00  0.00    +0.153 HD
BRANCH  18  20
ATOM     20  C   UNL     1      34.203 -14.343 -21.672  0.00  0.00    +0.049 C 
ATOM     21  C   UNL     1      33.984 -13.357 -22.635  0.00  0.00    +0.016 C 
ATOM     22  C   UNL     1      33.482 -14.323 -20.478  0.00  0.00    +0.016 C 
ATOM     23  C   UNL     1      32.323 -12.334 -21.210  0.00  0.00    +0.122 C 
ATOM     24  C   UNL     1      33.044 -12.353 -22.404  0.00  0.00    +0.021 C 
ATOM     25  C   UNL     1      32.542 -13.319 -20.248  0.00  0.00    +0.021 C 
BRANCH  23  26
ATOM     26  S   UNL     1      31.147 -11.076 -20.922  0.00  0.00    +0.057 S 
ATOM     27  O   UNL     1      29.881 -11.487 -21.514  0.00  0.00    -0.153 OA
ATOM     28  O   UNL     1      31.201 -10.705 -19.514  0.00  0.00    -0.153 OA
BRANCH  26  29
ATOM     29  N   UNL     1      31.800  -9.799 -21.851  0.00  0.00    -0.203 NA
ATOM     30  H   UNL     1      32.224 -10.176 -22.698  0.00  0.00    +0.144 HD
ATOM     31  H   UNL     1      32.510  -9.310 -21.305  0.00  0.00    +0.144 HD
ENDBRANCH  26  29
ENDBRANCH  23  26
ENDBRANCH  18  20
ENDBRANCH   8  18
TORSDOF 5
ENDMDL
MODEL 8
REMARK VINA RESULT:      -8.6      2.640      4.003
REMARK  Name = 23586146
REMARK  5 active torsions:
REMARK  status: ('A' for Active; 'I' for Inactive)
REMARK    1  A    between atoms: N_1  and  C_12
REMARK    2  A    between atoms: C_8  and  N_18
REMARK    3  A    between atoms: N_18  and  C_20
REMARK    4  A    between atoms: C_23  and  S_26
REMARK    5  A    between atoms: S_26  and  N_29
REMARK                            x       y       z     vdW  Elec       q    Type
REMARK                         _______ _______ _______ _____ _____    ______ ____
ROOT
ATOM      1  N   UNL     1      36.381 -22.933 -16.173  0.00  0.00    -0.309 N 
ATOM      2  N   UNL     1      34.470 -22.527 -17.377  0.00  0.00    -0.321 NA
ATOM      3  N   UNL     1      34.598 -21.110 -19.313  0.00  0.00    -0.106 N 
ATOM      4  N   UNL     1      33.761 -20.625 -20.269  0.00  0.00    -0.139 NA
ATOM      5  N   UNL     1      32.607 -21.942 -18.812  0.00  0.00    -0.145 NA
ATOM      6  C   UNL     1      35.758 -22.343 -17.206  0.00  0.00    +0.196 C 
ATOM      7  C   UNL     1      36.588 -21.487 -18.124  0.00  0.00    +0.081 C 
ATOM      8  C   UNL     1      35.970 -20.895 -19.156  0.00  0.00    +0.140 C 
ATOM      9  C   UNL     1      33.870 -21.913 -18.433  0.00  0.00    +0.176 C 
ATOM     10  C   UNL     1      32.593 -21.155 -19.918  0.00  0.00    +0.230 C 
ATOM     11  H   UNL     1      37.344 -22.772 -16.049  0.00  0.00    +0.149 HD
ENDROOT
BRANCH   1  12
ATOM     12  C   UNL     1      35.696 -23.798 -15.231  0.00  0.00    +0.071 C 
ATOM     13  C   UNL     1      36.446 -25.126 -15.094  0.00  0.00    +0.020 C 
ATOM     14  C   UNL     1      35.550 -23.092 -13.879  0.00  0.00    +0.020 C 
ATOM     15  C   UNL     1      37.773 -24.982 -14.347  0.00  0.00    +0.002 C 
ATOM     16  C   UNL     1      36.880 -22.956 -13.137  0.00  0.00    +0.002 C 
ATOM     17  C   UNL     1      37.588 -24.300 -12.997  0.00  0.00    +0.000 C 
ENDBRANCH   1  12
BRANCH   8  18
ATOM     18  N   UNL     1      36.594 -20.093 -20.068  0.00  0.00    -0.299 N 
ATOM     19  H   UNL     1      37.576 -20.060 -20.009  0.00  0.00    +0.153 HD
BRANCH  18  20
ATOM     20  C   UNL     1      36.016 -19.312 -21.075  0.00  0.00    +0.049 C 
ATOM     21  C   UNL     1      35.717 -17.970 -20.833  0.00  0.00    +0.016 C 
ATOM     22  C   UNL     1      35.740 -19.873 -22.321  0.00  0.00    +0.016 C 
ATOM     23  C   UNL     1      34.865 -17.755 -23.084  0.00  0.00    +0.122 C 
ATOM     24  C   UNL     1      35.142 -17.192 -21.838  0.00  0.00    +0.021 C 
ATOM     25  C   UNL     1      35.164 -19.095 -23.325  0.00  0.00    +0.021 C 
BRANCH  23  26
ATOM     26  S   UNL     1      34.145 -16.780 -24.340  0.00  0.00    +0.057 S 
ATOM     27  O   UNL     1      33.469 -15.651 -23.715  0.00  0.00    -0.153 OA
ATOM     28  O   UNL     1      35.144 -16.543 -25.373  0.00  0.00    -0.153 OA
BRANCH  26  29
ATOM     29  N   UNL     1      32.967 -17.856 -24.953  0.00  0.00    -0.203 NA
ATOM     30  H   UNL     1      33.411 -18.526 -25.579  0.00  0.00    +0.144 HD
ATOM     31  H   UNL     1      32.260 -17.329 -25.466  0.00  0.00    +0.144 HD
ENDBRANCH  26  29
ENDBRANCH  23  26
ENDBRANCH  18  20
ENDBRANCH   8  18
TORSDOF 5
ENDMDL
