MODEL 1
REMARK VINA RESULT:     -11.6      0.000      0.000
REMARK  Name = 24958200
REMARK  3 active torsions:
REMARK  status: ('A' for Active; 'I' for Inactive)
REMARK    1  A    between atoms: N_1  and  C_13
REMARK    2  A    between atoms: C_6  and  C_26
REMARK    3  A    between atoms: C_10  and  C_17
REMARK                            x       y       z     vdW  Elec       q    Type
REMARK                         _______ _______ _______ _____ _____    ______ ____
ROOT
ATOM      1  N   UNL     1      32.445 -22.868 -16.856  0.00  0.00    -0.189 N 
ATOM      2  N   UNL     1      31.100 -22.943 -16.890  0.00  0.00    -0.174 NA
ATOM      3  C   UNL     1      31.970 -23.951 -15.050  0.00  0.00    +0.036 C 
ATOM      4  C   UNL     1      33.023 -23.459 -15.770  0.00  0.00    +0.091 C 
ATOM      5  C   UNL     1      30.768 -23.615 -15.773  0.00  0.00    +0.105 C 
ATOM      6  C   UNL     1      29.506 -23.992 -15.279  0.00  0.00    +0.072 C 
ATOM      7  C   UNL     1      32.064 -24.642 -13.849  0.00  0.00    +0.003 C 
ATOM      8  C   UNL     1      29.567 -24.699 -14.057  0.00  0.00    +0.006 C 
ATOM      9  C   UNL     1      30.788 -25.007 -13.377  0.00  0.00    +0.000 C 
ENDROOT
BRANCH   1  13
ATOM     10  C   UNL     1      34.509 -20.943 -19.929  0.00  0.00    -0.024 C 
ATOM     11  C   UNL     1      35.205 -21.705 -18.991  0.00  0.00    -0.003 C 
ATOM     12  C   UNL     1      33.121 -20.824 -19.839  0.00  0.00    -0.003 C 
ATOM     13  C   UNL     1      33.129 -22.230 -17.873  0.00  0.00    +0.074 C 
ATOM     14  C   UNL     1      34.516 -22.349 -17.964  0.00  0.00    +0.016 C 
ATOM     15  C   UNL     1      32.432 -21.467 -18.812  0.00  0.00    +0.016 C 
BRANCH  10  17
ATOM     16  N   UNL     1      35.057 -18.769 -23.033  0.00  0.00    +0.384 N 
ATOM     17  C   UNL     1      35.260 -20.241 -21.046  0.00  0.00    +0.001 C 
ATOM     18  C   UNL     1      36.400 -19.364 -20.504  0.00  0.00    +0.000 C 
ATOM     19  C   UNL     1      34.320 -19.416 -21.945  0.00  0.00    -0.077 C 
ATOM     20  C   UNL     1      37.099 -18.636 -21.649  0.00  0.00    -0.023 C 
ATOM     21  C   UNL     1      36.099 -17.880 -22.521  0.00  0.00    -0.082 C 
ATOM     22  H   UNL     1      34.405 -18.226 -23.598  0.00  0.00    -0.085 HD
ATOM     23  H   UNL     1      35.503 -19.497 -23.594  0.00  0.00    -0.085 HD
ENDBRANCH  10  17
ENDBRANCH   1  13
BRANCH   6  26
ATOM     24  O   UNL     1      27.864 -24.355 -16.927  0.00  0.00    -0.270 OA
ATOM     25  N   UNL     1      27.495 -22.629 -15.464  0.00  0.00    -0.325 N 
ATOM     26  C   UNL     1      28.261 -23.689 -15.951  0.00  0.00    +0.244 C 
ATOM     27  H   UNL     1      26.642 -22.397 -15.898  0.00  0.00    +0.145 HD
ATOM     28  H   UNL     1      27.807 -22.114 -14.684  0.00  0.00    +0.145 HD
ENDBRANCH   6  26
TORSDOF 3
ENDMDL
MODEL 2
REMARK VINA RESULT:     -11.1      2.196      3.096
REMARK  Name = 24958200
REMARK  3 active torsions:
REMARK  status: ('A' for Active; 'I' for Inactive)
REMARK    1  A    between atoms: N_1  and  C_13
REMARK    2  A    between atoms: C_6  and  C_26
REMARK    3  A    between atoms: C_10  and  C_17
REMARK                            x       y       z     vdW  Elec       q    Type
REMARK                         _______ _______ _______ _____ _____    ______ ____
ROOT
ATOM      1  N   UNL     1      32.869 -22.921 -16.668  0.00  0.00    -0.189 N 
ATOM      2  N   UNL     1      33.616 -23.301 -15.613  0.00  0.00    -0.174 NA
ATOM      3  C   UNL     1      31.428 -23.858 -15.363  0.00  0.00    +0.036 C 
ATOM      4  C   UNL     1      31.544 -23.231 -16.572  0.00  0.00    +0.091 C 
ATOM      5  C   UNL     1      32.745 -23.891 -14.775  0.00  0.00    +0.105 C 
ATOM      6  C   UNL     1      32.951 -24.480 -13.513  0.00  0.00    +0.072 C 
ATOM      7  C   UNL     1      30.252 -24.361 -14.822  0.00  0.00    +0.003 C 
ATOM      8  C   UNL     1      31.772 -25.001 -12.935  0.00  0.00    +0.006 C 
ATOM      9  C   UNL     1      30.487 -24.944 -13.561  0.00  0.00    +0.000 C 
ENDROOT
BRANCH   1  13
ATOM     10  C   UNL     1      34.651 -20.958 -19.890  0.00  0.00    -0.024 C 
ATOM     11  C   UNL     1      35.443 -21.616 -18.949  0.00  0.00    -0.003 C 
ATOM     12  C   UNL     1      33.262 -20.957 -19.754  0.00  0.00    -0.003 C 
ATOM     13  C   UNL     1      33.460 -22.270 -17.735  0.00  0.00    +0.074 C 
ATOM     14  C   UNL     1      34.848 -22.272 -17.872  0.00  0.00    +0.016 C 
ATOM     15  C   UNL     1      32.666 -21.613 -18.677  0.00  0.00    +0.016 C 
BRANCH  10  17
ATOM     16  N   UNL     1      34.910 -18.794 -23.039  0.00  0.00    +0.384 N 
ATOM     17  C   UNL     1      35.298 -20.242 -21.062  0.00  0.00    +0.001 C 
ATOM     18  C   UNL     1      36.446 -19.326 -20.607  0.00  0.00    +0.000 C 
ATOM     19  C   UNL     1      34.272 -19.454 -21.897  0.00  0.00    -0.077 C 
ATOM     20  C   UNL     1      37.040 -18.586 -21.803  0.00  0.00    -0.023 C 
ATOM     21  C   UNL     1      35.957 -17.869 -22.606  0.00  0.00    -0.082 C 
ATOM     22  H   UNL     1      34.203 -18.275 -23.559  0.00  0.00    -0.085 HD
ATOM     23  H   UNL     1      35.338 -19.511 -23.625  0.00  0.00    -0.085 HD
ENDBRANCH  10  17
ENDBRANCH   1  13
BRANCH   6  26
ATOM     24  O   UNL     1      34.417 -24.126 -11.706  0.00  0.00    -0.270 OA
ATOM     25  N   UNL     1      35.299 -25.125 -13.571  0.00  0.00    -0.325 N 
ATOM     26  C   UNL     1      34.242 -24.549 -12.865  0.00  0.00    +0.244 C 
ATOM     27  H   UNL     1      36.191 -25.188 -13.158  0.00  0.00    +0.145 HD
ATOM     28  H   UNL     1      35.153 -25.470 -14.481  0.00  0.00    +0.145 HD
ENDBRANCH   6  26
TORSDOF 3
ENDMDL
MODEL 3
REMARK VINA RESULT:     -11.1      4.113      5.328
REMARK  Name = 24958200
REMARK  3 active torsions:
REMARK  status: ('A' for Active; 'I' for Inactive)
REMARK    1  A    between atoms: N_1  and  C_13
REMARK    2  A    between atoms: C_6  and  C_26
REMARK    3  A    between atoms: C_10  and  C_17
REMARK                            x       y       z     vdW  Elec       q    Type
REMARK                         _______ _______ _______ _____ _____    ______ ____
ROOT
ATOM      1  N   UNL     1      35.731 -23.120 -15.619  0.00  0.00    -0.189 N 
ATOM      2  N   UNL     1      36.722 -23.991 -15.348  0.00  0.00    -0.174 NA
ATOM      3  C   UNL     1      35.265 -23.781 -13.618  0.00  0.00    +0.036 C 
ATOM      4  C   UNL     1      34.824 -22.954 -14.613  0.00  0.00    +0.091 C 
ATOM      5  C   UNL     1      36.462 -24.425 -14.102  0.00  0.00    +0.105 C 
ATOM      6  C   UNL     1      37.156 -25.345 -13.294  0.00  0.00    +0.072 C 
ATOM      7  C   UNL     1      34.658 -23.955 -12.381  0.00  0.00    +0.003 C 
ATOM      8  C   UNL     1      36.564 -25.543 -12.028  0.00  0.00    +0.006 C 
ATOM      9  C   UNL     1      35.373 -24.879 -11.595  0.00  0.00    +0.000 C 
ENDROOT
BRANCH   1  13
ATOM     10  C   UNL     1      35.612 -21.173 -19.308  0.00  0.00    -0.024 C 
ATOM     11  C   UNL     1      36.765 -21.114 -18.525  0.00  0.00    -0.003 C 
ATOM     12  C   UNL     1      34.498 -21.884 -18.858  0.00  0.00    -0.003 C 
ATOM     13  C   UNL     1      35.691 -22.474 -16.841  0.00  0.00    +0.074 C 
ATOM     14  C   UNL     1      36.804 -21.764 -17.292  0.00  0.00    +0.016 C 
ATOM     15  C   UNL     1      34.538 -22.534 -17.625  0.00  0.00    +0.016 C 
BRANCH  10  17
ATOM     16  N   UNL     1      34.135 -19.257 -22.276  0.00  0.00    +0.384 N 
ATOM     17  C   UNL     1      35.568 -20.464 -20.649  0.00  0.00    +0.001 C 
ATOM     18  C   UNL     1      36.622 -19.349 -20.740  0.00  0.00    +0.000 C 
ATOM     19  C   UNL     1      34.165 -19.912 -20.966  0.00  0.00    -0.077 C 
ATOM     20  C   UNL     1      36.516 -18.625 -22.081  0.00  0.00    -0.023 C 
ATOM     21  C   UNL     1      35.089 -18.150 -22.344  0.00  0.00    -0.082 C 
ATOM     22  H   UNL     1      33.196 -18.896 -22.444  0.00  0.00    -0.085 HD
ATOM     23  H   UNL     1      34.391 -19.945 -22.984  0.00  0.00    -0.085 HD
ENDBRANCH  10  17
ENDBRANCH   1  13
BRANCH   6  26
ATOM     24  O   UNL     1      38.321 -27.131 -14.294  0.00  0.00    -0.270 OA
ATOM     25  N   UNL     1      39.585 -25.404 -13.470  0.00  0.00    -0.325 N 
ATOM     26  C   UNL     1      38.361 -26.027 -13.715  0.00  0.00    +0.244 C 
ATOM     27  H   UNL     1      40.424 -25.842 -13.744  0.00  0.00    +0.145 HD
ATOM     28  H   UNL     1      39.611 -24.527 -13.024  0.00  0.00    +0.145 HD
ENDBRANCH   6  26
TORSDOF 3
ENDMDL
MODEL 4
REMARK VINA RESULT:     -11.0      1.294      2.029
REMARK  Name = 24958200
REMARK  3 active torsions:
REMARK  status: ('A' for Active; 'I' for Inactive)
REMARK    1  A    between atoms: N_1  and  C_13
REMARK    2  A    between atoms: C_6  and  C_26
REMARK    3  A    between atoms: C_10  and  C_17
REMARK                            x       y       z     vdW  Elec       q    Type
REMARK                         _______ _______ _______ _____ _____    ______ ____
ROOT
ATOM      1  N   UNL     1      33.320 -22.257 -17.723  0.00  0.00    -0.189 N 
ATOM      2  N   UNL     1      32.013 -22.455 -17.467  0.00  0.00    -0.174 NA
ATOM      3  C   UNL     1      33.351 -23.456 -15.929  0.00  0.00    +0.036 C 
ATOM      4  C   UNL     1      34.172 -22.837 -16.829  0.00  0.00    +0.091 C 
ATOM      5  C   UNL     1      31.994 -23.202 -16.349  0.00  0.00    +0.105 C 
ATOM      6  C   UNL     1      30.909 -23.716 -15.615  0.00  0.00    +0.072 C 
ATOM      7  C   UNL     1      33.766 -24.186 -14.823  0.00  0.00    +0.003 C 
ATOM      8  C   UNL     1      31.299 -24.465 -14.483  0.00  0.00    +0.006 C 
ATOM      9  C   UNL     1      32.662 -24.688 -14.107  0.00  0.00    +0.000 C 
ENDROOT
BRANCH   1  13
ATOM     10  C   UNL     1      34.484 -20.015 -21.045  0.00  0.00    -0.024 C 
ATOM     11  C   UNL     1      33.132 -20.133 -20.721  0.00  0.00    -0.003 C 
ATOM     12  C   UNL     1      35.447 -20.646 -20.256  0.00  0.00    -0.003 C 
ATOM     13  C   UNL     1      33.706 -21.514 -18.824  0.00  0.00    +0.074 C 
ATOM     14  C   UNL     1      32.743 -20.883 -19.611  0.00  0.00    +0.016 C 
ATOM     15  C   UNL     1      35.058 -21.395 -19.147  0.00  0.00    +0.016 C 
BRANCH  10  17
ATOM     16  N   UNL     1      34.332 -18.538 -24.574  0.00  0.00    +0.384 N 
ATOM     17  C   UNL     1      34.908 -19.200 -22.253  0.00  0.00    +0.001 C 
ATOM     18  C   UNL     1      35.163 -17.729 -21.889  0.00  0.00    +0.000 C 
ATOM     19  C   UNL     1      33.892 -19.306 -23.407  0.00  0.00    -0.077 C 
ATOM     20  C   UNL     1      35.538 -16.931 -23.136  0.00  0.00    -0.023 C 
ATOM     21  C   UNL     1      34.510 -17.123 -24.248  0.00  0.00    -0.082 C 
ATOM     22  H   UNL     1      33.630 -18.623 -25.310  0.00  0.00    -0.085 HD
ATOM     23  H   UNL     1      35.230 -18.911 -24.884  0.00  0.00    -0.085 HD
ENDBRANCH  10  17
ENDBRANCH   1  13
BRANCH   6  26
ATOM     24  O   UNL     1      29.141 -22.430 -16.489  0.00  0.00    -0.270 OA
ATOM     25  N   UNL     1      28.621 -24.540 -15.756  0.00  0.00    -0.325 N 
ATOM     26  C   UNL     1      29.525 -23.501 -15.978  0.00  0.00    +0.244 C 
ATOM     27  H   UNL     1      27.672 -24.426 -15.993  0.00  0.00    +0.145 HD
ATOM     28  H   UNL     1      28.931 -25.388 -15.365  0.00  0.00    +0.145 HD
ENDBRANCH   6  26
TORSDOF 3
ENDMDL
MODEL 5
REMARK VINA RESULT:     -10.8      3.125      4.406
REMARK  Name = 24958200
REMARK  3 active torsions:
REMARK  status: ('A' for Active; 'I' for Inactive)
REMARK    1  A    between atoms: N_1  and  C_13
REMARK    2  A    between atoms: C_6  and  C_26
REMARK    3  A    between atoms: C_10  and  C_17
REMARK                            x       y       z     vdW  Elec       q    Type
REMARK                         _______ _______ _______ _____ _____    ______ ____
ROOT
ATOM      1  N   UNL     1      34.300 -22.336 -17.525  0.00  0.00    -0.189 N 
ATOM      2  N   UNL     1      35.365 -22.738 -16.805  0.00  0.00    -0.174 NA
ATOM      3  C   UNL     1      33.401 -23.431 -15.896  0.00  0.00    +0.036 C 
ATOM      4  C   UNL     1      33.091 -22.725 -17.025  0.00  0.00    +0.091 C 
ATOM      5  C   UNL     1      34.839 -23.428 -15.776  0.00  0.00    +0.105 C 
ATOM      6  C   UNL     1      35.469 -24.081 -14.701  0.00  0.00    +0.072 C 
ATOM      7  C   UNL     1      32.487 -24.032 -15.041  0.00  0.00    +0.003 C 
ATOM      8  C   UNL     1      34.565 -24.703 -13.811  0.00  0.00    +0.006 C 
ATOM      9  C   UNL     1      33.144 -24.678 -13.975  0.00  0.00    +0.000 C 
ENDROOT
BRANCH   1  13
ATOM     10  C   UNL     1      34.855 -20.076 -20.989  0.00  0.00    -0.024 C 
ATOM     11  C   UNL     1      33.565 -20.377 -20.551  0.00  0.00    -0.003 C 
ATOM     12  C   UNL     1      35.960 -20.530 -20.267  0.00  0.00    -0.003 C 
ATOM     13  C   UNL     1      34.484 -21.588 -18.673  0.00  0.00    +0.074 C 
ATOM     14  C   UNL     1      33.379 -21.133 -19.394  0.00  0.00    +0.016 C 
ATOM     15  C   UNL     1      35.774 -21.285 -19.110  0.00  0.00    +0.016 C 
BRANCH  10  17
ATOM     16  N   UNL     1      34.106 -18.628 -24.453  0.00  0.00    +0.384 N 
ATOM     17  C   UNL     1      35.057 -19.255 -22.249  0.00  0.00    +0.001 C 
ATOM     18  C   UNL     1      35.313 -17.773 -21.930  0.00  0.00    +0.000 C 
ATOM     19  C   UNL     1      33.880 -19.404 -23.231  0.00  0.00    -0.077 C 
ATOM     20  C   UNL     1      35.462 -16.970 -23.220  0.00  0.00    -0.023 C 
ATOM     21  C   UNL     1      34.282 -17.206 -24.160  0.00  0.00    -0.082 C 
ATOM     22  H   UNL     1      33.303 -18.742 -25.072  0.00  0.00    -0.085 HD
ATOM     23  H   UNL     1      34.958 -18.971 -24.898  0.00  0.00    -0.085 HD
ENDBRANCH  10  17
ENDBRANCH   1  13
BRANCH   6  26
ATOM     24  O   UNL     1      37.526 -23.158 -14.024  0.00  0.00    -0.270 OA
ATOM     25  N   UNL     1      37.582 -25.277 -14.896  0.00  0.00    -0.325 N 
ATOM     26  C   UNL     1      36.904 -24.118 -14.518  0.00  0.00    +0.244 C 
ATOM     27  H   UNL     1      38.559 -25.335 -14.785  0.00  0.00    +0.145 HD
ATOM     28  H   UNL     1      37.085 -26.038 -15.274  0.00  0.00    +0.145 HD
ENDBRANCH   6  26
TORSDOF 3
ENDMDL
MODEL 6
REMARK VINA RESULT:     -10.6      2.730      3.630
REMARK  Name = 24958200
REMARK  3 active torsions:
REMARK  status: ('A' for Active; 'I' for Inactive)
REMARK    1  A    between atoms: N_1  and  C_13
REMARK    2  A    between atoms: C_6  and  C_26
REMARK    3  A    between atoms: C_10  and  C_17
REMARK                            x       y       z     vdW  Elec       q    Type
REMARK                         _______ _______ _______ _____ _____    ______ ____
ROOT
ATOM      1  N   UNL     1      35.639 -22.869 -16.003  0.00  0.00    -0.189 N 
ATOM      2  N   UNL     1      34.502 -23.125 -15.328  0.00  0.00    -0.174 NA
ATOM      3  C   UNL     1      36.346 -23.849 -14.215  0.00  0.00    +0.036 C 
ATOM      4  C   UNL     1      36.780 -23.283 -15.381  0.00  0.00    +0.091 C 
ATOM      5  C   UNL     1      34.907 -23.739 -14.201  0.00  0.00    +0.105 C 
ATOM      6  C   UNL     1      34.161 -24.238 -13.117  0.00  0.00    +0.072 C 
ATOM      7  C   UNL     1      37.155 -24.417 -13.240  0.00  0.00    +0.003 C 
ATOM      8  C   UNL     1      34.957 -24.824 -12.108  0.00  0.00    +0.006 C 
ATOM      9  C   UNL     1      36.384 -24.908 -12.168  0.00  0.00    +0.000 C 
ENDROOT
BRANCH   1  13
ATOM     10  C   UNL     1      35.482 -20.952 -19.707  0.00  0.00    -0.024 C 
ATOM     11  C   UNL     1      36.673 -20.972 -18.982  0.00  0.00    -0.003 C 
ATOM     12  C   UNL     1      34.342 -21.573 -19.193  0.00  0.00    -0.003 C 
ATOM     13  C   UNL     1      35.587 -22.233 -17.230  0.00  0.00    +0.074 C 
ATOM     14  C   UNL     1      36.726 -21.613 -17.744  0.00  0.00    +0.016 C 
ATOM     15  C   UNL     1      34.395 -22.213 -17.956  0.00  0.00    +0.016 C 
BRANCH  10  17
ATOM     16  N   UNL     1      33.958 -19.129 -22.710  0.00  0.00    +0.384 N 
ATOM     17  C   UNL     1      35.423 -20.254 -21.053  0.00  0.00    +0.001 C 
ATOM     18  C   UNL     1      36.422 -19.087 -21.135  0.00  0.00    +0.000 C 
ATOM     19  C   UNL     1      34.000 -19.775 -21.395  0.00  0.00    -0.077 C 
ATOM     20  C   UNL     1      36.301 -18.378 -22.481  0.00  0.00    -0.023 C 
ATOM     21  C   UNL     1      34.856 -17.977 -22.770  0.00  0.00    -0.082 C 
ATOM     22  H   UNL     1      33.004 -18.817 -22.895  0.00  0.00    -0.085 HD
ATOM     23  H   UNL     1      34.260 -19.808 -23.410  0.00  0.00    -0.085 HD
ENDBRANCH  10  17
ENDBRANCH   1  13
BRANCH   6  26
ATOM     24  O   UNL     1      32.029 -25.140 -12.687  0.00  0.00    -0.270 OA
ATOM     25  N   UNL     1      32.109 -22.946 -13.349  0.00  0.00    -0.325 N 
ATOM     26  C   UNL     1      32.719 -24.162 -13.038  0.00  0.00    +0.244 C 
ATOM     27  H   UNL     1      31.129 -22.860 -13.304  0.00  0.00    +0.145 HD
ATOM     28  H   UNL     1      32.659 -22.173 -13.613  0.00  0.00    +0.145 HD
ENDBRANCH   6  26
TORSDOF 3
ENDMDL
MODEL 7
REMARK VINA RESULT:     -10.1      4.329      9.178
REMARK  Name = 24958200
REMARK  3 active torsions:
REMARK  status: ('A' for Active; 'I' for Inactive)
REMARK    1  A    between atoms: N_1  and  C_13
REMARK    2  A    between atoms: C_6  and  C_26
REMARK    3  A    between atoms: C_10  and  C_17
REMARK                            x       y       z     vdW  Elec       q    Type
REMARK                         _______ _______ _______ _____ _____    ______ ____
ROOT
ATOM      1  N   UNL     1      34.693 -19.116 -21.550  0.00  0.00    -0.189 N 
ATOM      2  N   UNL     1      34.671 -17.795 -21.284  0.00  0.00    -0.174 NA
ATOM      3  C   UNL     1      34.519 -18.228 -23.509  0.00  0.00    +0.036 C 
ATOM      4  C   UNL     1      34.605 -19.435 -22.874  0.00  0.00    +0.091 C 
ATOM      5  C   UNL     1      34.562 -17.207 -22.490  0.00  0.00    +0.105 C 
ATOM      6  C   UNL     1      34.494 -15.845 -22.837  0.00  0.00    +0.072 C 
ATOM      7  C   UNL     1      34.410 -18.042 -24.881  0.00  0.00    +0.003 C 
ATOM      8  C   UNL     1      34.383 -15.623 -24.227  0.00  0.00    +0.006 C 
ATOM      9  C   UNL     1      34.344 -16.671 -25.200  0.00  0.00    +0.000 C 
ENDROOT
BRANCH   1  13
ATOM     10  C   UNL     1      35.016 -21.869 -18.431  0.00  0.00    -0.024 C 
ATOM     11  C   UNL     1      33.763 -21.549 -18.952  0.00  0.00    -0.003 C 
ATOM     12  C   UNL     1      36.163 -21.269 -18.954  0.00  0.00    -0.003 C 
ATOM     13  C   UNL     1      34.800 -20.027 -20.516  0.00  0.00    +0.074 C 
ATOM     14  C   UNL     1      33.654 -20.628 -19.994  0.00  0.00    +0.016 C 
ATOM     15  C   UNL     1      36.055 -20.349 -19.996  0.00  0.00    +0.016 C 
BRANCH  10  17
ATOM     16  N   UNL     1      36.371 -23.483 -15.234  0.00  0.00    +0.384 N 
ATOM     17  C   UNL     1      35.135 -22.870 -17.296  0.00  0.00    +0.001 C 
ATOM     18  C   UNL     1      33.799 -23.057 -16.559  0.00  0.00    +0.000 C 
ATOM     19  C   UNL     1      36.253 -22.492 -16.306  0.00  0.00    -0.077 C 
ATOM     20  C   UNL     1      33.967 -24.030 -15.395  0.00  0.00    -0.023 C 
ATOM     21  C   UNL     1      35.121 -23.615 -14.486  0.00  0.00    -0.082 C 
ATOM     22  H   UNL     1      37.111 -23.193 -14.595  0.00  0.00    -0.085 HD
ATOM     23  H   UNL     1      36.589 -24.386 -15.656  0.00  0.00    -0.085 HD
ENDBRANCH  10  17
ENDBRANCH   1  13
BRANCH   6  26
ATOM     24  O   UNL     1      34.646 -13.579 -22.215  0.00  0.00    -0.270 OA
ATOM     25  N   UNL     1      34.416 -15.103 -20.518  0.00  0.00    -0.325 N 
ATOM     26  C   UNL     1      34.531 -14.772 -21.868  0.00  0.00    +0.244 C 
ATOM     27  H   UNL     1      34.437 -14.396 -19.833  0.00  0.00    +0.145 HD
ATOM     28  H   UNL     1      34.312 -16.045 -20.249  0.00  0.00    +0.145 HD
ENDBRANCH   6  26
TORSDOF 3
ENDMDL
MODEL 8
REMARK VINA RESULT:     -10.0      8.948     12.540
REMARK  Name = 24958200
REMARK  3 active torsions:
REMARK  status: ('A' for Active; 'I' for Inactive)
REMARK    1  A    between atoms: N_1  and  C_13
REMARK    2  A    between atoms: C_6  and  C_26
REMARK    3  A    between atoms: C_10  and  C_17
REMARK                            x       y       z     vdW  Elec       q    Type
REMARK                         _______ _______ _______ _____ _____    ______ ____
ROOT
ATOM      1  N   UNL     1      33.362 -13.173 -22.537  0.00  0.00    -0.189 N 
ATOM      2  N   UNL     1      33.072 -13.817 -23.683  0.00  0.00    -0.174 NA
ATOM      3  C   UNL     1      34.325 -15.087 -22.277  0.00  0.00    +0.036 C 
ATOM      4  C   UNL     1      34.115 -13.890 -21.653  0.00  0.00    +0.091 C 
ATOM      5  C   UNL     1      33.659 -15.021 -23.556  0.00  0.00    +0.105 C 
ATOM      6  C   UNL     1      33.696 -16.115 -24.439  0.00  0.00    +0.072 C 
ATOM      7  C   UNL     1      35.047 -16.154 -21.759  0.00  0.00    +0.003 C 
ATOM      8  C   UNL     1      34.425 -17.218 -23.941  0.00  0.00    +0.006 C 
ATOM      9  C   UNL     1      35.068 -17.234 -22.663  0.00  0.00    +0.000 C 
ENDROOT
BRANCH   1  13
ATOM     10  C   UNL     1      31.983  -9.284 -21.918  0.00  0.00    -0.024 C 
ATOM     11  C   UNL     1      31.542 -10.320 -21.094  0.00  0.00    -0.003 C 
ATOM     12  C   UNL     1      32.886  -9.548 -22.949  0.00  0.00    -0.003 C 
ATOM     13  C   UNL     1      32.904 -11.884 -22.332  0.00  0.00    +0.074 C 
ATOM     14  C   UNL     1      32.003 -11.619 -21.301  0.00  0.00    +0.016 C 
ATOM     15  C   UNL     1      33.346 -10.848 -23.156  0.00  0.00    +0.016 C 
BRANCH  10  17
ATOM     16  N   UNL     1      32.002  -5.645 -20.725  0.00  0.00    +0.384 N 
ATOM     17  C   UNL     1      31.480  -7.869 -21.694  0.00  0.00    +0.001 C 
ATOM     18  C   UNL     1      31.048  -7.202 -23.010  0.00  0.00    +0.000 C 
ATOM     19  C   UNL     1      32.515  -6.997 -20.957  0.00  0.00    -0.077 C 
ATOM     20  C   UNL     1      30.597  -5.766 -22.754  0.00  0.00    -0.023 C 
ATOM     21  C   UNL     1      31.653  -4.981 -21.981  0.00  0.00    -0.082 C 
ATOM     22  H   UNL     1      32.717  -5.097 -20.247  0.00  0.00    -0.085 HD
ATOM     23  H   UNL     1      31.158  -5.716 -20.155  0.00  0.00    -0.085 HD
ENDBRANCH  10  17
ENDBRANCH   1  13
BRANCH   6  26
ATOM     24  O   UNL     1      33.473 -15.420 -26.678  0.00  0.00    -0.270 OA
ATOM     25  N   UNL     1      31.943 -16.945 -25.912  0.00  0.00    -0.325 N 
ATOM     26  C   UNL     1      33.052 -16.118 -25.735  0.00  0.00    +0.244 C 
ATOM     27  H   UNL     1      31.481 -16.971 -26.782  0.00  0.00    +0.145 HD
ATOM     28  H   UNL     1      31.621 -17.504 -25.169  0.00  0.00    +0.145 HD
ENDBRANCH   6  26
TORSDOF 3
ENDMDL
MODEL 9
REMARK VINA RESULT:     -10.0      7.860     11.119
REMARK  Name = 24958200
REMARK  3 active torsions:
REMARK  status: ('A' for Active; 'I' for Inactive)
REMARK    1  A    between atoms: N_1  and  C_13
REMARK    2  A    between atoms: C_6  and  C_26
REMARK    3  A    between atoms: C_10  and  C_17
REMARK                            x       y       z     vdW  Elec       q    Type
REMARK                         _______ _______ _______ _____ _____    ______ ____
ROOT
ATOM      1  N   UNL     1      34.075 -15.275 -23.767  0.00  0.00    -0.189 N 
ATOM      2  N   UNL     1      34.885 -15.889 -22.883  0.00  0.00    -0.174 NA
ATOM      3  C   UNL     1      33.878 -17.359 -24.291  0.00  0.00    +0.036 C 
ATOM      4  C   UNL     1      33.442 -16.112 -24.640  0.00  0.00    +0.091 C 
ATOM      5  C   UNL     1      34.787 -17.197 -23.183  0.00  0.00    +0.105 C 
ATOM      6  C   UNL     1      35.406 -18.316 -22.595  0.00  0.00    +0.072 C 
ATOM      7  C   UNL     1      33.503 -18.548 -24.905  0.00  0.00    +0.003 C 
ATOM      8  C   UNL     1      35.045 -19.541 -23.197  0.00  0.00    +0.006 C 
ATOM      9  C   UNL     1      34.138 -19.650 -24.298  0.00  0.00    +0.000 C 
ENDROOT
BRANCH   1  13
ATOM     10  C   UNL     1      33.656 -11.124 -23.684  0.00  0.00    -0.024 C 
ATOM     11  C   UNL     1      33.907 -11.776 -24.892  0.00  0.00    -0.003 C 
ATOM     12  C   UNL     1      33.544 -11.861 -22.504  0.00  0.00    -0.003 C 
ATOM     13  C   UNL     1      33.937 -13.900 -23.740  0.00  0.00    +0.074 C 
ATOM     14  C   UNL     1      34.048 -13.164 -24.919  0.00  0.00    +0.016 C 
ATOM     15  C   UNL     1      33.684 -13.248 -22.532  0.00  0.00    +0.016 C 
BRANCH  10  17
ATOM     16  N   UNL     1      32.463  -7.689 -22.485  0.00  0.00    +0.384 N 
ATOM     17  C   UNL     1      33.505  -9.614 -23.654  0.00  0.00    +0.001 C 
ATOM     18  C   UNL     1      34.868  -8.905 -23.622  0.00  0.00    +0.000 C 
ATOM     19  C   UNL     1      32.621  -9.145 -22.482  0.00  0.00    -0.077 C 
ATOM     20  C   UNL     1      34.678  -7.392 -23.541  0.00  0.00    -0.023 C 
ATOM     21  C   UNL     1      33.755  -7.010 -22.387  0.00  0.00    -0.082 C 
ATOM     22  H   UNL     1      31.884  -7.417 -21.692  0.00  0.00    -0.085 HD
ATOM     23  H   UNL     1      32.024  -7.416 -23.365  0.00  0.00    -0.085 HD
ENDBRANCH  10  17
ENDBRANCH   1  13
BRANCH   6  26
ATOM     24  O   UNL     1      35.943 -17.915 -20.338  0.00  0.00    -0.270 OA
ATOM     25  N   UNL     1      37.671 -18.518 -21.720  0.00  0.00    -0.325 N 
ATOM     26  C   UNL     1      36.327 -18.226 -21.483  0.00  0.00    +0.244 C 
ATOM     27  H   UNL     1      38.323 -18.467 -20.984  0.00  0.00    +0.145 HD
ATOM     28  H   UNL     1      37.967 -18.776 -22.622  0.00  0.00    +0.145 HD
ENDBRANCH   6  26
TORSDOF 3
ENDMDL
