MODEL 1
REMARK VINA RESULT:     -11.5      0.000      0.000
REMARK  Name = 5497056
REMARK  11 active torsions:
REMARK  status: ('A' for Active; 'I' for Inactive)
REMARK    1  A    between atoms: N_2  and  C_22
REMARK    2  A    between atoms: C_3  and  C_5
REMARK    3  A    between atoms: C_8  and  C_11
REMARK    4  A    between atoms: C_13  and  C_17
REMARK    5  A    between atoms: C_17  and  N_18
REMARK    6  A    between atoms: C_22  and  C_24
REMARK    7  A    between atoms: C_24  and  C_26
REMARK    8  A    between atoms: C_24  and  C_29
REMARK    9  A    between atoms: C_26  and  O_27
REMARK   10  A    between atoms: C_29  and  C_30
REMARK   11  A    between atoms: C_33  and  C_38
REMARK                            x       y       z     vdW  Elec       q    Type
REMARK                         _______ _______ _______ _____ _____    ______ ____
ROOT
ATOM      1  O   UNL     1      33.531 -24.312 -18.375  0.00  0.00    -0.270 OA
ATOM      2  N   UNL     1      33.571 -22.819 -16.602  0.00  0.00    -0.302 N 
ATOM      3  C   UNL     1      33.636 -23.168 -17.942  0.00  0.00    +0.246 C 
ATOM      4  H   UNL     1      33.668 -21.870 -16.355  0.00  0.00    +0.150 HD
ENDROOT
BRANCH   3   5
ATOM      5  C   UNL     1      33.878 -22.053 -18.892  0.00  0.00    +0.053 C 
ATOM      6  C   UNL     1      32.800 -21.367 -19.452  0.00  0.00    +0.005 C 
ATOM      7  C   UNL     1      35.183 -21.689 -19.225  0.00  0.00    +0.005 C 
ATOM      8  C   UNL     1      34.332 -19.956 -20.676  0.00  0.00    -0.000 C 
ATOM      9  C   UNL     1      33.027 -20.319 -20.345  0.00  0.00    +0.000 C 
ATOM     10  C   UNL     1      35.410 -20.641 -20.117  0.00  0.00    +0.000 C 
BRANCH   8  11
ATOM     11  C   UNL     1      34.565 -18.867 -21.601  0.00  0.00    -0.000 C 
ATOM     12  C   UNL     1      33.999 -18.901 -22.875  0.00  0.00    -0.006 C 
ATOM     13  C   UNL     1      34.225 -17.851 -23.766  0.00  0.00    -0.044 C 
ATOM     14  C   UNL     1      35.357 -17.785 -21.217  0.00  0.00    -0.000 C 
ATOM     15  C   UNL     1      35.017 -16.769 -23.382  0.00  0.00    -0.006 C 
ATOM     16  C   UNL     1      35.583 -16.735 -22.107  0.00  0.00    -0.000 C 
BRANCH  13  17
ATOM     17  C   UNL     1      33.619 -17.886 -25.128  0.00  0.00    -0.059 C 
BRANCH  17  18
ATOM     18  N   UNL     1      32.601 -16.851 -25.313  0.00  0.00    +0.383 N 
ATOM     19  H   UNL     1      32.202 -16.601 -24.408  0.00  0.00    -0.089 HD
ATOM     20  H   UNL     1      31.865 -17.202 -25.925  0.00  0.00    -0.089 HD
ATOM     21  H   UNL     1      33.029 -16.026 -25.735  0.00  0.00    -0.089 HD
ENDBRANCH  17  18
ENDBRANCH  13  17
ENDBRANCH   8  11
ENDBRANCH   3   5
BRANCH   2  22
ATOM     22  C   UNL     1      33.366 -23.793 -15.556  0.00  0.00    +0.083 C 
ATOM     23  C   UNL     1      32.082 -23.480 -14.791  0.00  0.00    +0.022 C 
BRANCH  22  24
ATOM     24  C   UNL     1      34.589 -23.926 -14.621  0.00  0.00    +0.121 C 
BRANCH  24  26
ATOM     25  O   UNL     1      35.821 -21.863 -14.214  0.00  0.00    -0.250 OA
ATOM     26  C   UNL     1      35.630 -22.850 -14.912  0.00  0.00    +0.319 C 
BRANCH  26  27
ATOM     27  O   UNL     1      36.302 -23.159 -16.059  0.00  0.00    -0.444 OA
ATOM     28  C   UNL     1      37.400 -22.299 -16.381  0.00  0.00    +0.256 C 
ENDBRANCH  26  27
ENDBRANCH  24  26
BRANCH  24  29
ATOM     29  C   UNL     1      35.238 -25.322 -14.712  0.00  0.00    +0.039 C 
BRANCH  29  30
ATOM     30  C   UNL     1      36.470 -25.454 -13.847  0.00  0.00    -0.021 C 
ATOM     31  C   UNL     1      37.699 -25.766 -14.427  0.00  0.00    -0.002 C 
ATOM     32  C   UNL     1      36.377 -25.265 -12.468  0.00  0.00    -0.004 C 
ATOM     33  C   UNL     1      38.836 -25.889 -13.628  0.00  0.00    +0.030 C 
ATOM     34  C   UNL     1      37.514 -25.389 -11.669  0.00  0.00    -0.000 C 
ATOM     35  C   UNL     1      38.743 -25.701 -12.248  0.00  0.00    +0.003 C 
BRANCH  33  38
ATOM     36  N   UNL     1      41.103 -26.897 -13.518  0.00  0.00    -0.343 N 
ATOM     37  N   UNL     1      40.367 -25.864 -15.480  0.00  0.00    -0.285 NA
ATOM     38  C   UNL     1      40.118 -26.216 -14.232  0.00  0.00    +0.117 C 
ATOM     39  H   UNL     1      41.964 -27.107 -13.946  0.00  0.00    +0.144 HD
ATOM     40  H   UNL     1      40.938 -27.166 -12.585  0.00  0.00    +0.144 HD
ATOM     41  H   UNL     1      41.234 -26.084 -15.890  0.00  0.00    +0.188 HD
ENDBRANCH  33  38
ENDBRANCH  29  30
ENDBRANCH  24  29
ENDBRANCH  22  24
ENDBRANCH   2  22
TORSDOF 11
ENDMDL
MODEL 2
REMARK VINA RESULT:     -11.4      2.165      3.414
REMARK  Name = 5497056
REMARK  11 active torsions:
REMARK  status: ('A' for Active; 'I' for Inactive)
REMARK    1  A    between atoms: N_2  and  C_22
REMARK    2  A    between atoms: C_3  and  C_5
REMARK    3  A    between atoms: C_8  and  C_11
REMARK    4  A    between atoms: C_13  and  C_17
REMARK    5  A    between atoms: C_17  and  N_18
REMARK    6  A    between atoms: C_22  and  C_24
REMARK    7  A    between atoms: C_24  and  C_26
REMARK    8  A    between atoms: C_24  and  C_29
REMARK    9  A    between atoms: C_26  and  O_27
REMARK   10  A    between atoms: C_29  and  C_30
REMARK   11  A    between atoms: C_33  and  C_38
REMARK                            x       y       z     vdW  Elec       q    Type
REMARK                         _______ _______ _______ _____ _____    ______ ____
ROOT
ATOM      1  O   UNL     1      33.143 -24.383 -17.277  0.00  0.00    -0.270 OA
ATOM      2  N   UNL     1      31.682 -22.707 -16.618  0.00  0.00    -0.302 N 
ATOM      3  C   UNL     1      32.726 -23.232 -17.365  0.00  0.00    +0.246 C 
ATOM      4  H   UNL     1      31.421 -21.769 -16.762  0.00  0.00    +0.150 HD
ENDROOT
BRANCH   3   5
ATOM      5  C   UNL     1      33.380 -22.294 -18.312  0.00  0.00    +0.053 C 
ATOM      6  C   UNL     1      34.772 -22.259 -18.410  0.00  0.00    +0.005 C 
ATOM      7  C   UNL     1      32.605 -21.447 -19.105  0.00  0.00    +0.005 C 
ATOM      8  C   UNL     1      34.611 -20.532 -20.092  0.00  0.00    -0.000 C 
ATOM      9  C   UNL     1      35.387 -21.378 -19.300  0.00  0.00    +0.000 C 
ATOM     10  C   UNL     1      33.220 -20.566 -19.994  0.00  0.00    +0.000 C 
BRANCH   8  11
ATOM     11  C   UNL     1      35.250 -19.619 -21.016  0.00  0.00    -0.000 C 
ATOM     12  C   UNL     1      34.520 -19.065 -22.066  0.00  0.00    -0.006 C 
ATOM     13  C   UNL     1      35.137 -18.185 -22.956  0.00  0.00    -0.044 C 
ATOM     14  C   UNL     1      36.597 -19.295 -20.853  0.00  0.00    -0.000 C 
ATOM     15  C   UNL     1      36.484 -17.861 -22.794  0.00  0.00    -0.006 C 
ATOM     16  C   UNL     1      37.214 -18.415 -21.742  0.00  0.00    -0.000 C 
BRANCH  13  17
ATOM     17  C   UNL     1      34.357 -17.591 -24.079  0.00  0.00    -0.059 C 
BRANCH  17  18
ATOM     18  N   UNL     1      33.321 -18.496 -24.579  0.00  0.00    +0.383 N 
ATOM     19  H   UNL     1      33.511 -18.725 -25.555  0.00  0.00    -0.089 HD
ATOM     20  H   UNL     1      32.409 -18.044 -24.508  0.00  0.00    -0.089 HD
ATOM     21  H   UNL     1      33.320 -19.352 -24.023  0.00  0.00    -0.089 HD
ENDBRANCH  17  18
ENDBRANCH  13  17
ENDBRANCH   8  11
ENDBRANCH   3   5
BRANCH   2  22
ATOM     22  C   UNL     1      30.962 -23.487 -15.638  0.00  0.00    +0.083 C 
ATOM     23  C   UNL     1      29.976 -22.598 -14.881  0.00  0.00    +0.022 C 
BRANCH  22  24
ATOM     24  C   UNL     1      31.904 -24.261 -14.688  0.00  0.00    +0.121 C 
BRANCH  24  26
ATOM     25  O   UNL     1      31.205 -24.941 -12.455  0.00  0.00    -0.250 OA
ATOM     26  C   UNL     1      31.115 -25.076 -13.668  0.00  0.00    +0.319 C 
BRANCH  26  27
ATOM     27  O   UNL     1      30.308 -25.965 -14.317  0.00  0.00    -0.444 OA
ATOM     28  C   UNL     1      28.909 -25.845 -14.036  0.00  0.00    +0.256 C 
ENDBRANCH  26  27
ENDBRANCH  24  26
BRANCH  24  29
ATOM     29  C   UNL     1      32.890 -23.324 -13.962  0.00  0.00    +0.039 C 
BRANCH  29  30
ATOM     30  C   UNL     1      34.333 -23.610 -14.309  0.00  0.00    -0.021 C 
ATOM     31  C   UNL     1      34.811 -24.919 -14.282  0.00  0.00    -0.002 C 
ATOM     32  C   UNL     1      35.187 -22.563 -14.656  0.00  0.00    -0.004 C 
ATOM     33  C   UNL     1      36.143 -25.183 -14.601  0.00  0.00    +0.030 C 
ATOM     34  C   UNL     1      36.520 -22.826 -14.975  0.00  0.00    -0.000 C 
ATOM     35  C   UNL     1      36.998 -24.136 -14.948  0.00  0.00    +0.003 C 
BRANCH  33  38
ATOM     36  N   UNL     1      37.060 -27.142 -13.381  0.00  0.00    -0.343 N 
ATOM     37  N   UNL     1      36.709 -27.250 -15.689  0.00  0.00    -0.285 NA
ATOM     38  C   UNL     1      36.642 -26.548 -14.571  0.00  0.00    +0.117 C 
ATOM     39  H   UNL     1      37.396 -28.067 -13.383  0.00  0.00    +0.144 HD
ATOM     40  H   UNL     1      37.022 -26.634 -12.537  0.00  0.00    +0.144 HD
ATOM     41  H   UNL     1      37.047 -28.174 -15.670  0.00  0.00    +0.188 HD
ENDBRANCH  33  38
ENDBRANCH  29  30
ENDBRANCH  24  29
ENDBRANCH  22  24
ENDBRANCH   2  22
TORSDOF 11
ENDMDL
MODEL 3
REMARK VINA RESULT:     -10.9      4.036     11.072
REMARK  Name = 5497056
REMARK  11 active torsions:
REMARK  status: ('A' for Active; 'I' for Inactive)
REMARK    1  A    between atoms: N_2  and  C_22
REMARK    2  A    between atoms: C_3  and  C_5
REMARK    3  A    between atoms: C_8  and  C_11
REMARK    4  A    between atoms: C_13  and  C_17
REMARK    5  A    between atoms: C_17  and  N_18
REMARK    6  A    between atoms: C_22  and  C_24
REMARK    7  A    between atoms: C_24  and  C_26
REMARK    8  A    between atoms: C_24  and  C_29
REMARK    9  A    between atoms: C_26  and  O_27
REMARK   10  A    between atoms: C_29  and  C_30
REMARK   11  A    between atoms: C_33  and  C_38
REMARK                            x       y       z     vdW  Elec       q    Type
REMARK                         _______ _______ _______ _____ _____    ______ ____
ROOT
ATOM      1  O   UNL     1      36.799 -21.786 -19.715  0.00  0.00    -0.270 OA
ATOM      2  N   UNL     1      35.202 -20.169 -20.177  0.00  0.00    -0.302 N 
ATOM      3  C   UNL     1      35.704 -21.272 -19.504  0.00  0.00    +0.246 C 
ATOM      4  H   UNL     1      34.310 -19.831 -19.934  0.00  0.00    +0.150 HD
ENDROOT
BRANCH   3   5
ATOM      5  C   UNL     1      34.811 -21.865 -18.475  0.00  0.00    +0.053 C 
ATOM      6  C   UNL     1      35.351 -22.384 -17.298  0.00  0.00    +0.005 C 
ATOM      7  C   UNL     1      33.432 -21.903 -18.685  0.00  0.00    +0.005 C 
ATOM      8  C   UNL     1      33.135 -22.978 -16.542  0.00  0.00    -0.000 C 
ATOM      9  C   UNL     1      34.513 -22.941 -16.332  0.00  0.00    +0.000 C 
ATOM     10  C   UNL     1      32.594 -22.459 -17.719  0.00  0.00    +0.000 C 
BRANCH   8  11
ATOM     11  C   UNL     1      32.266 -23.554 -15.538  0.00  0.00    -0.000 C 
ATOM     12  C   UNL     1      30.891 -23.617 -15.758  0.00  0.00    -0.006 C 
ATOM     13  C   UNL     1      30.055 -24.173 -14.790  0.00  0.00    -0.044 C 
ATOM     14  C   UNL     1      32.807 -24.048 -14.351  0.00  0.00    -0.000 C 
ATOM     15  C   UNL     1      30.594 -24.666 -13.602  0.00  0.00    -0.006 C 
ATOM     16  C   UNL     1      31.971 -24.604 -13.383  0.00  0.00    -0.000 C 
BRANCH  13  17
ATOM     17  C   UNL     1      28.583 -24.240 -15.025  0.00  0.00    -0.059 C 
BRANCH  17  18
ATOM     18  N   UNL     1      28.234 -24.048 -16.434  0.00  0.00    +0.383 N 
ATOM     19  H   UNL     1      28.833 -23.327 -16.837  0.00  0.00    -0.089 HD
ATOM     20  H   UNL     1      27.258 -23.759 -16.507  0.00  0.00    -0.089 HD
ATOM     21  H   UNL     1      28.368 -24.924 -16.939  0.00  0.00    -0.089 HD
ENDBRANCH  17  18
ENDBRANCH  13  17
ENDBRANCH   8  11
ENDBRANCH   3   5
BRANCH   2  22
ATOM     22  C   UNL     1      35.940 -19.497 -21.221  0.00  0.00    +0.083 C 
ATOM     23  C   UNL     1      37.164 -18.797 -20.633  0.00  0.00    +0.022 C 
BRANCH  22  24
ATOM     24  C   UNL     1      35.056 -18.538 -22.050  0.00  0.00    +0.121 C 
BRANCH  24  26
ATOM     25  O   UNL     1      35.067 -20.152 -23.876  0.00  0.00    -0.250 OA
ATOM     26  C   UNL     1      34.514 -19.224 -23.300  0.00  0.00    +0.319 C 
BRANCH  26  27
ATOM     27  O   UNL     1      33.334 -18.644 -23.667  0.00  0.00    -0.444 OA
ATOM     28  C   UNL     1      33.312 -18.071 -24.978  0.00  0.00    +0.256 C 
ENDBRANCH  26  27
ENDBRANCH  24  26
BRANCH  24  29
ATOM     29  C   UNL     1      35.809 -17.251 -22.442  0.00  0.00    +0.039 C 
BRANCH  29  30
ATOM     30  C   UNL     1      34.973 -16.005 -22.260  0.00  0.00    -0.021 C 
ATOM     31  C   UNL     1      34.629 -15.229 -23.367  0.00  0.00    -0.002 C 
ATOM     32  C   UNL     1      34.548 -15.630 -20.986  0.00  0.00    -0.004 C 
ATOM     33  C   UNL     1      33.858 -14.078 -23.200  0.00  0.00    +0.030 C 
ATOM     34  C   UNL     1      33.778 -14.478 -20.818  0.00  0.00    -0.000 C 
ATOM     35  C   UNL     1      33.433 -13.702 -21.925  0.00  0.00    +0.003 C 
BRANCH  33  38
ATOM     36  N   UNL     1      32.805 -13.810 -25.432  0.00  0.00    -0.343 N 
ATOM     37  N   UNL     1      33.838 -11.991 -24.391  0.00  0.00    -0.285 NA
ATOM     38  C   UNL     1      33.500 -13.268 -24.353  0.00  0.00    +0.117 C 
ATOM     39  H   UNL     1      32.573 -13.244 -26.203  0.00  0.00    +0.144 HD
ATOM     40  H   UNL     1      32.546 -14.761 -25.424  0.00  0.00    +0.144 HD
ATOM     41  H   UNL     1      33.597 -11.442 -25.171  0.00  0.00    +0.188 HD
ENDBRANCH  33  38
ENDBRANCH  29  30
ENDBRANCH  24  29
ENDBRANCH  22  24
ENDBRANCH   2  22
TORSDOF 11
ENDMDL
MODEL 4
REMARK VINA RESULT:     -10.6      7.775     14.699
REMARK  Name = 5497056
REMARK  11 active torsions:
REMARK  status: ('A' for Active; 'I' for Inactive)
REMARK    1  A    between atoms: N_2  and  C_22
REMARK    2  A    between atoms: C_3  and  C_5
REMARK    3  A    between atoms: C_8  and  C_11
REMARK    4  A    between atoms: C_13  and  C_17
REMARK    5  A    between atoms: C_17  and  N_18
REMARK    6  A    between atoms: C_22  and  C_24
REMARK    7  A    between atoms: C_24  and  C_26
REMARK    8  A    between atoms: C_24  and  C_29
REMARK    9  A    between atoms: C_26  and  O_27
REMARK   10  A    between atoms: C_29  and  C_30
REMARK   11  A    between atoms: C_33  and  C_38
REMARK                            x       y       z     vdW  Elec       q    Type
REMARK                         _______ _______ _______ _____ _____    ______ ____
ROOT
ATOM      1  O   UNL     1      33.413 -13.726 -25.001  0.00  0.00    -0.270 OA
ATOM      2  N   UNL     1      33.941 -12.495 -23.109  0.00  0.00    -0.302 N 
ATOM      3  C   UNL     1      33.835 -13.662 -23.850  0.00  0.00    +0.246 C 
ATOM      4  H   UNL     1      34.292 -12.547 -22.190  0.00  0.00    +0.150 HD
ENDROOT
BRANCH   3   5
ATOM      5  C   UNL     1      34.246 -14.909 -23.157  0.00  0.00    +0.053 C 
ATOM      6  C   UNL     1      34.366 -14.928 -21.767  0.00  0.00    +0.005 C 
ATOM      7  C   UNL     1      34.513 -16.063 -23.895  0.00  0.00    +0.005 C 
ATOM      8  C   UNL     1      35.019 -17.253 -21.854  0.00  0.00    -0.000 C 
ATOM      9  C   UNL     1      34.753 -16.100 -21.116  0.00  0.00    +0.000 C 
ATOM     10  C   UNL     1      34.899 -17.234 -23.244  0.00  0.00    +0.000 C 
BRANCH   8  11
ATOM     11  C   UNL     1      35.419 -18.468 -21.177  0.00  0.00    -0.000 C 
ATOM     12  C   UNL     1      34.452 -19.373 -20.740  0.00  0.00    -0.006 C 
ATOM     13  C   UNL     1      34.839 -20.544 -20.088  0.00  0.00    -0.044 C 
ATOM     14  C   UNL     1      36.771 -18.732 -20.963  0.00  0.00    -0.000 C 
ATOM     15  C   UNL     1      36.191 -20.808 -19.873  0.00  0.00    -0.006 C 
ATOM     16  C   UNL     1      37.158 -19.903 -20.310  0.00  0.00    -0.000 C 
BRANCH  13  17
ATOM     17  C   UNL     1      33.806 -21.513 -19.622  0.00  0.00    -0.059 C 
BRANCH  17  18
ATOM     18  N   UNL     1      32.459 -20.940 -19.627  0.00  0.00    +0.383 N 
ATOM     19  H   UNL     1      31.770 -21.688 -19.551  0.00  0.00    -0.089 HD
ATOM     20  H   UNL     1      32.310 -20.428 -20.497  0.00  0.00    -0.089 HD
ATOM     21  H   UNL     1      32.359 -20.302 -18.837  0.00  0.00    -0.089 HD
ENDBRANCH  17  18
ENDBRANCH  13  17
ENDBRANCH   8  11
ENDBRANCH   3   5
BRANCH   2  22
ATOM     22  C   UNL     1      33.557 -11.205 -23.634  0.00  0.00    +0.083 C 
ATOM     23  C   UNL     1      34.763 -10.517 -24.271  0.00  0.00    +0.022 C 
BRANCH  22  24
ATOM     24  C   UNL     1      32.863 -10.317 -22.578  0.00  0.00    +0.121 C 
BRANCH  24  26
ATOM     25  O   UNL     1      30.662 -11.123 -21.909  0.00  0.00    -0.250 OA
ATOM     26  C   UNL     1      31.875 -11.121 -21.739  0.00  0.00    +0.319 C 
BRANCH  26  27
ATOM     27  O   UNL     1      32.549 -11.824 -20.784  0.00  0.00    -0.444 OA
ATOM     28  C   UNL     1      31.901 -13.015 -20.323  0.00  0.00    +0.256 C 
ENDBRANCH  26  27
ENDBRANCH  24  26
BRANCH  24  29
ATOM     29  C   UNL     1      32.148  -9.109 -23.217  0.00  0.00    +0.039 C 
BRANCH  29  30
ATOM     30  C   UNL     1      32.115  -7.900 -22.310  0.00  0.00    -0.021 C 
ATOM     31  C   UNL     1      31.625  -6.685 -22.786  0.00  0.00    -0.002 C 
ATOM     32  C   UNL     1      32.578  -8.000 -20.998  0.00  0.00    -0.004 C 
ATOM     33  C   UNL     1      31.595  -5.568 -21.950  0.00  0.00    +0.030 C 
ATOM     34  C   UNL     1      32.550  -6.883 -20.162  0.00  0.00    -0.000 C 
ATOM     35  C   UNL     1      32.058  -5.668 -20.637  0.00  0.00    +0.003 C 
BRANCH  33  38
ATOM     36  N   UNL     1      31.602  -3.712 -23.599  0.00  0.00    -0.343 N 
ATOM     37  N   UNL     1      30.114  -3.682 -21.796  0.00  0.00    -0.285 NA
ATOM     38  C   UNL     1      31.085  -4.301 -22.445  0.00  0.00    +0.117 C 
ATOM     39  H   UNL     1      31.242  -2.852 -23.916  0.00  0.00    +0.144 HD
ATOM     40  H   UNL     1      32.328  -4.155 -24.095  0.00  0.00    +0.144 HD
ATOM     41  H   UNL     1      29.768  -2.824 -22.130  0.00  0.00    +0.188 HD
ENDBRANCH  33  38
ENDBRANCH  29  30
ENDBRANCH  24  29
ENDBRANCH  22  24
ENDBRANCH   2  22
TORSDOF 11
ENDMDL
MODEL 5
REMARK VINA RESULT:     -10.6      1.665      2.772
REMARK  Name = 5497056
REMARK  11 active torsions:
REMARK  status: ('A' for Active; 'I' for Inactive)
REMARK    1  A    between atoms: N_2  and  C_22
REMARK    2  A    between atoms: C_3  and  C_5
REMARK    3  A    between atoms: C_8  and  C_11
REMARK    4  A    between atoms: C_13  and  C_17
REMARK    5  A    between atoms: C_17  and  N_18
REMARK    6  A    between atoms: C_22  and  C_24
REMARK    7  A    between atoms: C_24  and  C_26
REMARK    8  A    between atoms: C_24  and  C_29
REMARK    9  A    between atoms: C_26  and  O_27
REMARK   10  A    between atoms: C_29  and  C_30
REMARK   11  A    between atoms: C_33  and  C_38
REMARK                            x       y       z     vdW  Elec       q    Type
REMARK                         _______ _______ _______ _____ _____    ______ ____
ROOT
ATOM      1  O   UNL     1      33.840 -24.266 -17.714  0.00  0.00    -0.270 OA
ATOM      2  N   UNL     1      32.729 -22.672 -16.450  0.00  0.00    -0.302 N 
ATOM      3  C   UNL     1      33.437 -23.118 -17.556  0.00  0.00    +0.246 C 
ATOM      4  H   UNL     1      32.449 -21.728 -16.415  0.00  0.00    +0.150 HD
ENDROOT
BRANCH   3   5
ATOM      5  C   UNL     1      33.731 -22.095 -18.592  0.00  0.00    +0.053 C 
ATOM      6  C   UNL     1      32.688 -21.391 -19.193  0.00  0.00    +0.005 C 
ATOM      7  C   UNL     1      35.051 -21.838 -18.964  0.00  0.00    +0.005 C 
ATOM      8  C   UNL     1      34.284 -20.173 -20.538  0.00  0.00    -0.000 C 
ATOM      9  C   UNL     1      32.965 -20.430 -20.166  0.00  0.00    +0.000 C 
ATOM     10  C   UNL     1      35.328 -20.878 -19.936  0.00  0.00    +0.000 C 
BRANCH   8  11
ATOM     11  C   UNL     1      34.570 -19.176 -21.546  0.00  0.00    -0.000 C 
ATOM     12  C   UNL     1      34.589 -17.824 -21.205  0.00  0.00    -0.006 C 
ATOM     13  C   UNL     1      34.864 -16.863 -22.178  0.00  0.00    -0.044 C 
ATOM     14  C   UNL     1      34.826 -19.568 -22.860  0.00  0.00    -0.000 C 
ATOM     15  C   UNL     1      35.120 -17.255 -23.492  0.00  0.00    -0.006 C 
ATOM     16  C   UNL     1      35.102 -18.607 -23.833  0.00  0.00    -0.000 C 
BRANCH  13  17
ATOM     17  C   UNL     1      34.886 -15.417 -21.813  0.00  0.00    -0.059 C 
BRANCH  17  18
ATOM     18  N   UNL     1      34.453 -14.557 -22.915  0.00  0.00    +0.383 N 
ATOM     19  H   UNL     1      34.432 -13.587 -22.601  0.00  0.00    -0.089 HD
ATOM     20  H   UNL     1      33.520 -14.836 -23.219  0.00  0.00    -0.089 HD
ATOM     21  H   UNL     1      35.105 -14.649 -23.694  0.00  0.00    -0.089 HD
ENDBRANCH  17  18
ENDBRANCH  13  17
ENDBRANCH   8  11
ENDBRANCH   3   5
BRANCH   2  22
ATOM     22  C   UNL     1      32.387 -23.540 -15.347  0.00  0.00    +0.083 C 
ATOM     23  C   UNL     1      31.240 -22.936 -14.539  0.00  0.00    +0.022 C 
BRANCH  22  24
ATOM     24  C   UNL     1      33.608 -23.887 -14.465  0.00  0.00    +0.121 C 
BRANCH  24  26
ATOM     25  O   UNL     1      32.319 -25.295 -12.950  0.00  0.00    -0.250 OA
ATOM     26  C   UNL     1      33.174 -24.434 -13.109  0.00  0.00    +0.319 C 
BRANCH  26  27
ATOM     27  O   UNL     1      33.882 -23.818 -12.118  0.00  0.00    -0.444 OA
ATOM     28  C   UNL     1      34.826 -24.645 -11.430  0.00  0.00    +0.256 C 
ENDBRANCH  26  27
ENDBRANCH  24  26
BRANCH  24  29
ATOM     29  C   UNL     1      34.543 -22.677 -14.269  0.00  0.00    +0.039 C 
BRANCH  29  30
ATOM     30  C   UNL     1      35.951 -22.939 -14.752  0.00  0.00    -0.021 C 
ATOM     31  C   UNL     1      36.688 -23.992 -14.211  0.00  0.00    -0.002 C 
ATOM     32  C   UNL     1      36.513 -22.128 -15.737  0.00  0.00    -0.004 C 
ATOM     33  C   UNL     1      37.988 -24.234 -14.656  0.00  0.00    +0.030 C 
ATOM     34  C   UNL     1      37.813 -22.369 -16.181  0.00  0.00    -0.000 C 
ATOM     35  C   UNL     1      38.551 -23.422 -15.641  0.00  0.00    +0.003 C 
BRANCH  33  38
ATOM     36  N   UNL     1      38.189 -26.586 -13.886  0.00  0.00    -0.343 N 
ATOM     37  N   UNL     1      40.024 -25.144 -13.760  0.00  0.00    -0.285 NA
ATOM     38  C   UNL     1      38.759 -25.330 -14.092  0.00  0.00    +0.117 C 
ATOM     39  H   UNL     1      38.729 -27.314 -13.501  0.00  0.00    +0.144 HD
ATOM     40  H   UNL     1      37.246 -26.744 -14.123  0.00  0.00    +0.144 HD
ATOM     41  H   UNL     1      40.547 -25.885 -13.378  0.00  0.00    +0.188 HD
ENDBRANCH  33  38
ENDBRANCH  29  30
ENDBRANCH  24  29
ENDBRANCH  22  24
ENDBRANCH   2  22
TORSDOF 11
ENDMDL
MODEL 6
REMARK VINA RESULT:     -10.3      1.786      2.356
REMARK  Name = 5497056
REMARK  11 active torsions:
REMARK  status: ('A' for Active; 'I' for Inactive)
REMARK    1  A    between atoms: N_2  and  C_22
REMARK    2  A    between atoms: C_3  and  C_5
REMARK    3  A    between atoms: C_8  and  C_11
REMARK    4  A    between atoms: C_13  and  C_17
REMARK    5  A    between atoms: C_17  and  N_18
REMARK    6  A    between atoms: C_22  and  C_24
REMARK    7  A    between atoms: C_24  and  C_26
REMARK    8  A    between atoms: C_24  and  C_29
REMARK    9  A    between atoms: C_26  and  O_27
REMARK   10  A    between atoms: C_29  and  C_30
REMARK   11  A    between atoms: C_33  and  C_38
REMARK                            x       y       z     vdW  Elec       q    Type
REMARK                         _______ _______ _______ _____ _____    ______ ____
ROOT
ATOM      1  O   UNL     1      33.650 -24.208 -18.799  0.00  0.00    -0.270 OA
ATOM      2  N   UNL     1      33.393 -22.769 -17.000  0.00  0.00    -0.302 N 
ATOM      3  C   UNL     1      33.622 -23.073 -18.333  0.00  0.00    +0.246 C 
ATOM      4  H   UNL     1      33.391 -21.824 -16.723  0.00  0.00    +0.150 HD
ENDROOT
BRANCH   3   5
ATOM      5  C   UNL     1      33.875 -21.914 -19.228  0.00  0.00    +0.053 C 
ATOM      6  C   UNL     1      35.184 -21.517 -19.502  0.00  0.00    +0.005 C 
ATOM      7  C   UNL     1      32.803 -21.223 -19.794  0.00  0.00    +0.005 C 
ATOM      8  C   UNL     1      34.350 -19.738 -20.909  0.00  0.00    -0.000 C 
ATOM      9  C   UNL     1      35.421 -20.429 -20.342  0.00  0.00    +0.000 C 
ATOM     10  C   UNL     1      33.041 -20.136 -20.635  0.00  0.00    +0.000 C 
BRANCH   8  11
ATOM     11  C   UNL     1      34.597 -18.611 -21.781  0.00  0.00    -0.000 C 
ATOM     12  C   UNL     1      34.075 -18.601 -23.074  0.00  0.00    -0.006 C 
ATOM     13  C   UNL     1      34.315 -17.514 -23.915  0.00  0.00    -0.044 C 
ATOM     14  C   UNL     1      35.358 -17.533 -21.327  0.00  0.00    -0.000 C 
ATOM     15  C   UNL     1      35.076 -16.437 -23.461  0.00  0.00    -0.006 C 
ATOM     16  C   UNL     1      35.597 -16.446 -22.167  0.00  0.00    -0.000 C 
BRANCH  13  17
ATOM     17  C   UNL     1      33.756 -17.503 -25.297  0.00  0.00    -0.059 C 
BRANCH  17  18
ATOM     18  N   UNL     1      32.326 -17.816 -25.324  0.00  0.00    +0.383 N 
ATOM     19  H   UNL     1      32.185 -18.722 -25.769  0.00  0.00    -0.089 HD
ATOM     20  H   UNL     1      31.830 -17.097 -25.851  0.00  0.00    -0.089 HD
ATOM     21  H   UNL     1      31.968 -17.846 -24.369  0.00  0.00    -0.089 HD
ENDBRANCH  17  18
ENDBRANCH  13  17
ENDBRANCH   8  11
ENDBRANCH   3   5
BRANCH   2  22
ATOM     22  C   UNL     1      33.157 -23.786 -16.002  0.00  0.00    +0.083 C 
ATOM     23  C   UNL     1      31.781 -23.590 -15.367  0.00  0.00    +0.022 C 
BRANCH  22  24
ATOM     24  C   UNL     1      34.285 -23.859 -14.949  0.00  0.00    +0.121 C 
BRANCH  24  26
ATOM     25  O   UNL     1      35.333 -21.685 -14.610  0.00  0.00    -0.250 OA
ATOM     26  C   UNL     1      35.328 -22.770 -15.178  0.00  0.00    +0.319 C 
BRANCH  26  27
ATOM     27  O   UNL     1      36.238 -23.192 -16.103  0.00  0.00    -0.444 OA
ATOM     28  C   UNL     1      37.567 -22.686 -15.935  0.00  0.00    +0.256 C 
ENDBRANCH  26  27
ENDBRANCH  24  26
BRANCH  24  29
ATOM     29  C   UNL     1      34.967 -25.242 -14.926  0.00  0.00    +0.039 C 
BRANCH  29  30
ATOM     30  C   UNL     1      35.950 -25.392 -13.788  0.00  0.00    -0.021 C 
ATOM     31  C   UNL     1      35.836 -24.585 -12.657  0.00  0.00    -0.002 C 
ATOM     32  C   UNL     1      36.973 -26.336 -13.871  0.00  0.00    -0.004 C 
ATOM     33  C   UNL     1      36.744 -24.721 -11.607  0.00  0.00    +0.030 C 
ATOM     34  C   UNL     1      37.883 -26.473 -12.821  0.00  0.00    -0.000 C 
ATOM     35  C   UNL     1      37.768 -25.666 -11.689  0.00  0.00    +0.003 C 
BRANCH  33  38
ATOM     36  N   UNL     1      37.151 -22.588 -10.404  0.00  0.00    -0.343 N 
ATOM     37  N   UNL     1      36.014 -24.337  -9.350  0.00  0.00    -0.285 NA
ATOM     38  C   UNL     1      36.626 -23.879 -10.428  0.00  0.00    +0.117 C 
ATOM     39  H   UNL     1      37.061 -22.035  -9.594  0.00  0.00    +0.144 HD
ATOM     40  H   UNL     1      37.614 -22.229 -11.196  0.00  0.00    +0.144 HD
ATOM     41  H   UNL     1      35.934 -23.768  -8.551  0.00  0.00    +0.188 HD
ENDBRANCH  33  38
ENDBRANCH  29  30
ENDBRANCH  24  29
ENDBRANCH  22  24
ENDBRANCH   2  22
TORSDOF 11
ENDMDL
MODEL 7
REMARK VINA RESULT:     -10.2      8.718     15.766
REMARK  Name = 5497056
REMARK  11 active torsions:
REMARK  status: ('A' for Active; 'I' for Inactive)
REMARK    1  A    between atoms: N_2  and  C_22
REMARK    2  A    between atoms: C_3  and  C_5
REMARK    3  A    between atoms: C_8  and  C_11
REMARK    4  A    between atoms: C_13  and  C_17
REMARK    5  A    between atoms: C_17  and  N_18
REMARK    6  A    between atoms: C_22  and  C_24
REMARK    7  A    between atoms: C_24  and  C_26
REMARK    8  A    between atoms: C_24  and  C_29
REMARK    9  A    between atoms: C_26  and  O_27
REMARK   10  A    between atoms: C_29  and  C_30
REMARK   11  A    between atoms: C_33  and  C_38
REMARK                            x       y       z     vdW  Elec       q    Type
REMARK                         _______ _______ _______ _____ _____    ______ ____
ROOT
ATOM      1  O   UNL     1      33.826 -11.171 -25.321  0.00  0.00    -0.270 OA
ATOM      2  N   UNL     1      33.305 -10.856 -23.084  0.00  0.00    -0.302 N 
ATOM      3  C   UNL     1      33.687 -11.610 -24.183  0.00  0.00    +0.246 C 
ATOM      4  H   UNL     1      33.221 -11.303 -22.210  0.00  0.00    +0.150 HD
ENDROOT
BRANCH   3   5
ATOM      5  C   UNL     1      33.911 -13.056 -23.932  0.00  0.00    +0.053 C 
ATOM      6  C   UNL     1      33.682 -13.985 -24.948  0.00  0.00    +0.005 C 
ATOM      7  C   UNL     1      34.350 -13.488 -22.680  0.00  0.00    +0.005 C 
ATOM      8  C   UNL     1      34.332 -15.774 -23.460  0.00  0.00    -0.000 C 
ATOM      9  C   UNL     1      33.892 -15.343 -24.711  0.00  0.00    +0.000 C 
ATOM     10  C   UNL     1      34.561 -14.846 -22.444  0.00  0.00    +0.000 C 
BRANCH   8  11
ATOM     11  C   UNL     1      34.551 -17.184 -23.217  0.00  0.00    -0.000 C 
ATOM     12  C   UNL     1      35.183 -17.600 -22.046  0.00  0.00    -0.006 C 
ATOM     13  C   UNL     1      35.393 -18.959 -21.813  0.00  0.00    -0.044 C 
ATOM     14  C   UNL     1      34.128 -18.126 -24.155  0.00  0.00    -0.000 C 
ATOM     15  C   UNL     1      34.971 -19.901 -22.751  0.00  0.00    -0.006 C 
ATOM     16  C   UNL     1      34.338 -19.485 -23.922  0.00  0.00    -0.000 C 
BRANCH  13  17
ATOM     17  C   UNL     1      36.068 -19.405 -20.560  0.00  0.00    -0.059 C 
BRANCH  17  18
ATOM     18  N   UNL     1      37.325 -18.694 -20.320  0.00  0.00    +0.383 N 
ATOM     19  H   UNL     1      37.193 -17.699 -20.499  0.00  0.00    -0.089 HD
ATOM     20  H   UNL     1      38.046 -19.059 -20.943  0.00  0.00    -0.089 HD
ATOM     21  H   UNL     1      37.613 -18.831 -19.351  0.00  0.00    -0.089 HD
ENDBRANCH  17  18
ENDBRANCH  13  17
ENDBRANCH   8  11
ENDBRANCH   3   5
BRANCH   2  22
ATOM     22  C   UNL     1      33.027  -9.442 -23.172  0.00  0.00    +0.083 C 
ATOM     23  C   UNL     1      34.330  -8.646 -23.121  0.00  0.00    +0.022 C 
BRANCH  22  24
ATOM     24  C   UNL     1      32.008  -8.970 -22.111  0.00  0.00    +0.121 C 
BRANCH  24  26
ATOM     25  O   UNL     1      30.673 -10.960 -21.668  0.00  0.00    -0.250 OA
ATOM     26  C   UNL     1      31.493 -10.139 -21.278  0.00  0.00    +0.319 C 
BRANCH  26  27
ATOM     27  O   UNL     1      32.082 -10.121 -20.048  0.00  0.00    -0.444 OA
ATOM     28  C   UNL     1      32.087  -8.852 -19.385  0.00  0.00    +0.256 C 
ENDBRANCH  26  27
ENDBRANCH  24  26
BRANCH  24  29
ATOM     29  C   UNL     1      30.822  -8.214 -22.744  0.00  0.00    +0.039 C 
BRANCH  29  30
ATOM     30  C   UNL     1      31.054  -6.722 -22.826  0.00  0.00    -0.021 C 
ATOM     31  C   UNL     1      31.828  -6.193 -23.857  0.00  0.00    -0.002 C 
ATOM     32  C   UNL     1      30.496  -5.877 -21.867  0.00  0.00    -0.004 C 
ATOM     33  C   UNL     1      32.044  -4.816 -23.932  0.00  0.00    +0.030 C 
ATOM     34  C   UNL     1      30.713  -4.500 -21.941  0.00  0.00    -0.000 C 
ATOM     35  C   UNL     1      31.486  -3.969 -22.972  0.00  0.00    +0.003 C 
BRANCH  33  38
ATOM     36  N   UNL     1      33.919  -4.975 -25.552  0.00  0.00    -0.343 N 
ATOM     37  N   UNL     1      32.582  -3.060 -25.481  0.00  0.00    -0.285 NA
ATOM     38  C   UNL     1      32.853  -4.263 -25.006  0.00  0.00    +0.117 C 
ATOM     39  H   UNL     1      34.454  -4.581 -26.278  0.00  0.00    +0.144 HD
ATOM     40  H   UNL     1      34.140  -5.872 -25.209  0.00  0.00    +0.144 HD
ATOM     41  H   UNL     1      33.128  -2.684 -26.209  0.00  0.00    +0.188 HD
ENDBRANCH  33  38
ENDBRANCH  29  30
ENDBRANCH  24  29
ENDBRANCH  22  24
ENDBRANCH   2  22
TORSDOF 11
ENDMDL
MODEL 8
REMARK VINA RESULT:     -10.1      9.193     16.271
REMARK  Name = 5497056
REMARK  11 active torsions:
REMARK  status: ('A' for Active; 'I' for Inactive)
REMARK    1  A    between atoms: N_2  and  C_22
REMARK    2  A    between atoms: C_3  and  C_5
REMARK    3  A    between atoms: C_8  and  C_11
REMARK    4  A    between atoms: C_13  and  C_17
REMARK    5  A    between atoms: C_17  and  N_18
REMARK    6  A    between atoms: C_22  and  C_24
REMARK    7  A    between atoms: C_24  and  C_26
REMARK    8  A    between atoms: C_24  and  C_29
REMARK    9  A    between atoms: C_26  and  O_27
REMARK   10  A    between atoms: C_29  and  C_30
REMARK   11  A    between atoms: C_33  and  C_38
REMARK                            x       y       z     vdW  Elec       q    Type
REMARK                         _______ _______ _______ _____ _____    ______ ____
ROOT
ATOM      1  O   UNL     1      33.732  -9.419 -23.409  0.00  0.00    -0.270 OA
ATOM      2  N   UNL     1      31.799  -9.939 -22.240  0.00  0.00    -0.302 N 
ATOM      3  C   UNL     1      32.973 -10.245 -22.910  0.00  0.00    +0.246 C 
ATOM      4  H   UNL     1      31.256 -10.675 -21.875  0.00  0.00    +0.150 HD
ENDROOT
BRANCH   3   5
ATOM      5  C   UNL     1      33.290 -11.690 -23.036  0.00  0.00    +0.053 C 
ATOM      6  C   UNL     1      33.066 -12.550 -21.960  0.00  0.00    +0.005 C 
ATOM      7  C   UNL     1      33.812 -12.190 -24.230  0.00  0.00    +0.005 C 
ATOM      8  C   UNL     1      33.884 -14.407 -23.272  0.00  0.00    -0.000 C 
ATOM      9  C   UNL     1      33.364 -13.908 -22.078  0.00  0.00    +0.000 C 
ATOM     10  C   UNL     1      34.108 -13.547 -24.348  0.00  0.00    +0.000 C 
BRANCH   8  11
ATOM     11  C   UNL     1      34.191 -15.816 -23.393  0.00  0.00    -0.000 C 
ATOM     12  C   UNL     1      34.966 -16.447 -22.421  0.00  0.00    -0.006 C 
ATOM     13  C   UNL     1      35.261 -17.805 -22.539  0.00  0.00    -0.044 C 
ATOM     14  C   UNL     1      33.711 -16.541 -24.484  0.00  0.00    -0.000 C 
ATOM     15  C   UNL     1      34.782 -18.531 -23.629  0.00  0.00    -0.006 C 
ATOM     16  C   UNL     1      34.006 -17.900 -24.601  0.00  0.00    -0.000 C 
BRANCH  13  17
ATOM     17  C   UNL     1      36.089 -18.481 -21.499  0.00  0.00    -0.059 C 
BRANCH  17  18
ATOM     18  N   UNL     1      37.497 -18.582 -21.884  0.00  0.00    +0.383 N 
ATOM     19  H   UNL     1      38.086 -18.359 -21.082  0.00  0.00    -0.089 HD
ATOM     20  H   UNL     1      37.691 -17.926 -22.641  0.00  0.00    -0.089 HD
ATOM     21  H   UNL     1      37.695 -19.532 -22.199  0.00  0.00    -0.089 HD
ENDBRANCH  17  18
ENDBRANCH  13  17
ENDBRANCH   8  11
ENDBRANCH   3   5
BRANCH   2  22
ATOM     22  C   UNL     1      31.342  -8.581 -22.058  0.00  0.00    +0.083 C 
ATOM     23  C   UNL     1      30.770  -8.039 -23.367  0.00  0.00    +0.022 C 
BRANCH  22  24
ATOM     24  C   UNL     1      32.434  -7.661 -21.468  0.00  0.00    +0.121 C 
BRANCH  24  26
ATOM     25  O   UNL     1      33.128  -7.007 -19.225  0.00  0.00    -0.250 OA
ATOM     26  C   UNL     1      32.466  -7.744 -19.945  0.00  0.00    +0.319 C 
BRANCH  26  27
ATOM     27  O   UNL     1      31.653  -8.755 -19.523  0.00  0.00    -0.444 OA
ATOM     28  C   UNL     1      32.313  -9.841 -18.863  0.00  0.00    +0.256 C 
ENDBRANCH  26  27
ENDBRANCH  24  26
BRANCH  24  29
ATOM     29  C   UNL     1      32.256  -6.195 -21.911  0.00  0.00    +0.039 C 
BRANCH  29  30
ATOM     30  C   UNL     1      33.054  -5.855 -23.149  0.00  0.00    -0.021 C 
ATOM     31  C   UNL     1      32.556  -4.934 -24.068  0.00  0.00    -0.002 C 
ATOM     32  C   UNL     1      34.288  -6.466 -23.372  0.00  0.00    -0.004 C 
ATOM     33  C   UNL     1      33.291  -4.621 -25.212  0.00  0.00    +0.030 C 
ATOM     34  C   UNL     1      35.024  -6.154 -24.516  0.00  0.00    -0.000 C 
ATOM     35  C   UNL     1      34.526  -5.232 -25.436  0.00  0.00    +0.003 C 
BRANCH  33  38
ATOM     36  N   UNL     1      31.585  -2.969 -25.936  0.00  0.00    -0.343 N 
ATOM     37  N   UNL     1      33.427  -3.434 -27.297  0.00  0.00    -0.285 NA
ATOM     38  C   UNL     1      32.771  -3.661 -26.172  0.00  0.00    +0.117 C 
ATOM     39  H   UNL     1      31.250  -2.324 -26.601  0.00  0.00    +0.144 HD
ATOM     40  H   UNL     1      31.079  -3.127 -25.106  0.00  0.00    +0.144 HD
ATOM     41  H   UNL     1      33.076  -2.785 -27.948  0.00  0.00    +0.188 HD
ENDBRANCH  33  38
ENDBRANCH  29  30
ENDBRANCH  24  29
ENDBRANCH  22  24
ENDBRANCH   2  22
TORSDOF 11
ENDMDL
MODEL 9
REMARK VINA RESULT:     -10.1      4.166     11.055
REMARK  Name = 5497056
REMARK  11 active torsions:
REMARK  status: ('A' for Active; 'I' for Inactive)
REMARK    1  A    between atoms: N_2  and  C_22
REMARK    2  A    between atoms: C_3  and  C_5
REMARK    3  A    between atoms: C_8  and  C_11
REMARK    4  A    between atoms: C_13  and  C_17
REMARK    5  A    between atoms: C_17  and  N_18
REMARK    6  A    between atoms: C_22  and  C_24
REMARK    7  A    between atoms: C_24  and  C_26
REMARK    8  A    between atoms: C_24  and  C_29
REMARK    9  A    between atoms: C_26  and  O_27
REMARK   10  A    between atoms: C_29  and  C_30
REMARK   11  A    between atoms: C_33  and  C_38
REMARK                            x       y       z     vdW  Elec       q    Type
REMARK                         _______ _______ _______ _____ _____    ______ ____
ROOT
ATOM      1  O   UNL     1      36.743 -21.839 -19.878  0.00  0.00    -0.270 OA
ATOM      2  N   UNL     1      35.259 -20.087 -20.201  0.00  0.00    -0.302 N 
ATOM      3  C   UNL     1      35.697 -21.259 -19.602  0.00  0.00    +0.246 C 
ATOM      4  H   UNL     1      34.402 -19.698 -19.909  0.00  0.00    +0.150 HD
ENDROOT
BRANCH   3   5
ATOM      5  C   UNL     1      34.796 -21.838 -18.574  0.00  0.00    +0.053 C 
ATOM      6  C   UNL     1      33.418 -21.871 -18.793  0.00  0.00    +0.005 C 
ATOM      7  C   UNL     1      35.325 -22.350 -17.389  0.00  0.00    +0.005 C 
ATOM      8  C   UNL     1      33.101 -22.927 -16.643  0.00  0.00    -0.000 C 
ATOM      9  C   UNL     1      32.571 -22.415 -17.827  0.00  0.00    +0.000 C 
ATOM     10  C   UNL     1      34.479 -22.894 -16.424  0.00  0.00    +0.000 C 
BRANCH   8  11
ATOM     11  C   UNL     1      32.221 -23.492 -15.642  0.00  0.00    -0.000 C 
ATOM     12  C   UNL     1      30.846 -23.539 -15.869  0.00  0.00    -0.006 C 
ATOM     13  C   UNL     1      29.999 -24.084 -14.904  0.00  0.00    -0.044 C 
ATOM     14  C   UNL     1      32.751 -23.991 -14.452  0.00  0.00    -0.000 C 
ATOM     15  C   UNL     1      30.528 -24.582 -13.713  0.00  0.00    -0.006 C 
ATOM     16  C   UNL     1      31.903 -24.537 -13.487  0.00  0.00    -0.000 C 
BRANCH  13  17
ATOM     17  C   UNL     1      28.528 -24.134 -15.146  0.00  0.00    -0.059 C 
BRANCH  17  18
ATOM     18  N   UNL     1      28.173 -23.737 -16.510  0.00  0.00    +0.383 N 
ATOM     19  H   UNL     1      28.904 -24.041 -17.153  0.00  0.00    -0.089 HD
ATOM     20  H   UNL     1      28.080 -22.723 -16.556  0.00  0.00    -0.089 HD
ATOM     21  H   UNL     1      27.288 -24.172 -16.770  0.00  0.00    -0.089 HD
ENDBRANCH  17  18
ENDBRANCH  13  17
ENDBRANCH   8  11
ENDBRANCH   3   5
BRANCH   2  22
ATOM     22  C   UNL     1      36.011 -19.417 -21.235  0.00  0.00    +0.083 C 
ATOM     23  C   UNL     1      37.196 -18.672 -20.624  0.00  0.00    +0.022 C 
BRANCH  22  24
ATOM     24  C   UNL     1      35.129 -18.499 -22.111  0.00  0.00    +0.121 C 
BRANCH  24  26
ATOM     25  O   UNL     1      35.201 -20.058 -23.982  0.00  0.00    -0.250 OA
ATOM     26  C   UNL     1      34.568 -19.251 -23.313  0.00  0.00    +0.319 C 
BRANCH  26  27
ATOM     27  O   UNL     1      33.271 -18.883 -23.521  0.00  0.00    -0.444 OA
ATOM     28  C   UNL     1      32.873 -18.776 -24.892  0.00  0.00    +0.256 C 
ENDBRANCH  26  27
ENDBRANCH  24  26
BRANCH  24  29
ATOM     29  C   UNL     1      35.891 -17.244 -22.584  0.00  0.00    +0.039 C 
BRANCH  29  30
ATOM     30  C   UNL     1      34.973 -16.166 -23.113  0.00  0.00    -0.021 C 
ATOM     31  C   UNL     1      34.373 -15.268 -22.232  0.00  0.00    -0.002 C 
ATOM     32  C   UNL     1      34.725 -16.072 -24.482  0.00  0.00    -0.004 C 
ATOM     33  C   UNL     1      33.524 -14.273 -22.720  0.00  0.00    +0.030 C 
ATOM     34  C   UNL     1      33.876 -15.078 -24.970  0.00  0.00    -0.000 C 
ATOM     35  C   UNL     1      33.276 -14.178 -24.090  0.00  0.00    +0.003 C 
BRANCH  33  38
ATOM     36  N   UNL     1      32.661 -12.012 -22.166  0.00  0.00    -0.343 N 
ATOM     37  N   UNL     1      32.540 -13.737 -20.594  0.00  0.00    -0.285 NA
ATOM     38  C   UNL     1      32.896 -13.337 -21.802  0.00  0.00    +0.117 C 
ATOM     39  H   UNL     1      32.236 -11.394 -21.528  0.00  0.00    +0.144 HD
ATOM     40  H   UNL     1      32.922 -11.693 -23.060  0.00  0.00    +0.144 HD
ATOM     41  H   UNL     1      32.116 -13.105 -19.971  0.00  0.00    +0.188 HD
ENDBRANCH  33  38
ENDBRANCH  29  30
ENDBRANCH  24  29
ENDBRANCH  22  24
ENDBRANCH   2  22
TORSDOF 11
ENDMDL
