MODEL 1
REMARK VINA RESULT:     -11.5      0.000      0.000
REMARK  Name = 11978813
REMARK  7 active torsions:
REMARK  status: ('A' for Active; 'I' for Inactive)
REMARK    1  A    between atoms: C_1  and  N_2
REMARK    2  A    between atoms: C_1  and  C_18
REMARK    3  A    between atoms: N_3  and  C_10
REMARK    4  A    between atoms: C_18  and  C_19
REMARK    5  A    between atoms: C_19  and  C_20
REMARK    6  A    between atoms: C_20  and  O_21
REMARK    7  A    between atoms: O_21  and  C_24
REMARK                            x       y       z     vdW  Elec       q    Type
REMARK                         _______ _______ _______ _____ _____    ______ ____
ROOT
ATOM      1  C   UNL     1      36.688 -21.335 -19.402  0.00  0.00    -0.077 C 
ENDROOT
BRANCH   1   2
ATOM      2  N   UNL     1      36.135 -20.086 -19.922  0.00  0.00    +0.389 N 
ATOM      3  N   UNL     1      35.236 -18.269 -21.935  0.00  0.00    -0.312 N 
ATOM      4  C   UNL     1      37.099 -19.425 -20.809  0.00  0.00    -0.055 C 
ATOM      5  C   UNL     1      34.883 -20.338 -20.645  0.00  0.00    -0.055 C 
ATOM      6  C   UNL     1      36.554 -18.087 -21.313  0.00  0.00    +0.068 C 
ATOM      7  C   UNL     1      34.263 -19.032 -21.146  0.00  0.00    +0.068 C 
ATOM      8  H   UNL     1      35.940 -19.472 -19.131  0.00  0.00    -0.080 HD
BRANCH   3  10
ATOM      9  S   UNL     1      33.728 -13.493 -22.641  0.00  0.00    -0.086 S 
ATOM     10  C   UNL     1      34.790 -17.291 -22.830  0.00  0.00    +0.048 C 
ATOM     11  C   UNL     1      34.481 -15.956 -22.413  0.00  0.00    +0.020 C 
ATOM     12  C   UNL     1      34.634 -17.618 -24.195  0.00  0.00    +0.015 C 
ATOM     13  C   UNL     1      34.038 -15.028 -23.362  0.00  0.00    +0.031 C 
ATOM     14  C   UNL     1      34.551 -15.368 -21.106  0.00  0.00    +0.009 C 
ATOM     15  C   UNL     1      34.193 -16.680 -25.119  0.00  0.00    +0.002 C 
ATOM     16  C   UNL     1      33.890 -15.376 -24.719  0.00  0.00    +0.007 C 
ATOM     17  C   UNL     1      34.172 -14.047 -21.092  0.00  0.00    +0.035 C 
ENDBRANCH   3  10
ENDBRANCH   1   2
BRANCH   1  18
ATOM     18  C   UNL     1      35.939 -21.765 -18.141  0.00  0.00    -0.019 C 
BRANCH  18  19
ATOM     19  C   UNL     1      36.889 -21.900 -16.953  0.00  0.00    +0.045 C 
BRANCH  19  20
ATOM     20  C   UNL     1      36.189 -22.497 -15.739  0.00  0.00    +0.205 C 
BRANCH  20  21
ATOM     21  O   UNL     1      35.338 -23.560 -16.148  0.00  0.00    -0.475 OA
BRANCH  21  24
ATOM     22  O   UNL     1      28.353 -22.421 -16.874  0.00  0.00    -0.270 OA
ATOM     23  N   UNL     1      30.616 -22.782 -16.655  0.00  0.00    -0.280 N 
ATOM     24  C   UNL     1      34.071 -23.573 -15.626  0.00  0.00    +0.140 C 
ATOM     25  C   UNL     1      33.000 -23.169 -16.413  0.00  0.00    +0.052 C 
ATOM     26  C   UNL     1      31.711 -23.188 -15.872  0.00  0.00    +0.054 C 
ATOM     27  C   UNL     1      33.874 -23.992 -14.314  0.00  0.00    +0.037 C 
ATOM     28  C   UNL     1      31.497 -23.606 -14.554  0.00  0.00    +0.014 C 
ATOM     29  C   UNL     1      32.585 -24.010 -13.775  0.00  0.00    +0.004 C 
ATOM     30  C   UNL     1      30.135 -23.611 -14.027  0.00  0.00    +0.006 C 
ATOM     31  C   UNL     1      29.315 -22.773 -16.194  0.00  0.00    +0.250 C 
ATOM     32  C   UNL     1      29.107 -23.221 -14.790  0.00  0.00    +0.058 C 
ATOM     33  H   UNL     1      30.786 -22.490 -17.581  0.00  0.00    +0.155 HD
ENDBRANCH  21  24
ENDBRANCH  20  21
ENDBRANCH  19  20
ENDBRANCH  18  19
ENDBRANCH   1  18
TORSDOF 7
ENDMDL
MODEL 2
REMARK VINA RESULT:     -11.4      3.986      7.214
REMARK  Name = 11978813
REMARK  7 active torsions:
REMARK  status: ('A' for Active; 'I' for Inactive)
REMARK    1  A    between atoms: C_1  and  N_2
REMARK    2  A    between atoms: C_1  and  C_18
REMARK    3  A    between atoms: N_3  and  C_10
REMARK    4  A    between atoms: C_18  and  C_19
REMARK    5  A    between atoms: C_19  and  C_20
REMARK    6  A    between atoms: C_20  and  O_21
REMARK    7  A    between atoms: O_21  and  C_24
REMARK                            x       y       z     vdW  Elec       q    Type
REMARK                         _______ _______ _______ _____ _____    ______ ____
ROOT
ATOM      1  C   UNL     1      33.265 -15.674 -25.325  0.00  0.00    -0.077 C 
ENDROOT
BRANCH   1   2
ATOM      2  N   UNL     1      33.829 -14.381 -24.940  0.00  0.00    +0.389 N 
ATOM      3  N   UNL     1      33.767 -11.681 -24.011  0.00  0.00    -0.312 N 
ATOM      4  C   UNL     1      33.302 -13.313 -25.798  0.00  0.00    -0.055 C 
ATOM      5  C   UNL     1      33.529 -14.086 -23.534  0.00  0.00    -0.055 C 
ATOM      6  C   UNL     1      33.929 -11.963 -25.442  0.00  0.00    +0.068 C 
ATOM      7  C   UNL     1      34.163 -12.761 -23.102  0.00  0.00    +0.068 C 
ATOM      8  H   UNL     1      34.841 -14.429 -25.058  0.00  0.00    -0.080 HD
BRANCH   3  10
ATOM      9  S   UNL     1      31.875  -7.969 -21.142  0.00  0.00    -0.086 S 
ATOM     10  C   UNL     1      33.859 -10.350 -23.588  0.00  0.00    +0.048 C 
ATOM     11  C   UNL     1      32.937  -9.779 -22.651  0.00  0.00    +0.020 C 
ATOM     12  C   UNL     1      34.890  -9.530 -24.094  0.00  0.00    +0.015 C 
ATOM     13  C   UNL     1      33.088  -8.441 -22.272  0.00  0.00    +0.031 C 
ATOM     14  C   UNL     1      31.814 -10.382 -21.992  0.00  0.00    +0.009 C 
ATOM     15  C   UNL     1      35.020  -8.204 -23.704  0.00  0.00    +0.002 C 
ATOM     16  C   UNL     1      34.125  -7.641 -22.791  0.00  0.00    +0.007 C 
ATOM     17  C   UNL     1      31.157  -9.514 -21.153  0.00  0.00    +0.035 C 
ENDBRANCH   3  10
ENDBRANCH   1   2
BRANCH   1  18
ATOM     18  C   UNL     1      34.130 -16.813 -24.788  0.00  0.00    -0.019 C 
BRANCH  18  19
ATOM     19  C   UNL     1      33.388 -18.146 -24.848  0.00  0.00    +0.045 C 
BRANCH  19  20
ATOM     20  C   UNL     1      34.016 -19.181 -23.924  0.00  0.00    +0.205 C 
BRANCH  20  21
ATOM     21  O   UNL     1      34.498 -18.546 -22.747  0.00  0.00    -0.475 OA
BRANCH  21  24
ATOM     22  O   UNL     1      32.241 -22.858 -17.557  0.00  0.00    -0.270 OA
ATOM     23  N   UNL     1      32.954 -21.459 -19.241  0.00  0.00    -0.280 N 
ATOM     24  C   UNL     1      34.765 -19.356 -21.673  0.00  0.00    +0.140 C 
ATOM     25  C   UNL     1      33.719 -19.987 -21.013  0.00  0.00    +0.052 C 
ATOM     26  C   UNL     1      34.002 -20.811 -19.920  0.00  0.00    +0.054 C 
ATOM     27  C   UNL     1      36.081 -19.533 -21.259  0.00  0.00    +0.037 C 
ATOM     28  C   UNL     1      35.320 -21.000 -19.491  0.00  0.00    +0.014 C 
ATOM     29  C   UNL     1      36.362 -20.358 -20.166  0.00  0.00    +0.004 C 
ATOM     30  C   UNL     1      35.573 -21.870 -18.345  0.00  0.00    +0.006 C 
ATOM     31  C   UNL     1      33.152 -22.288 -18.155  0.00  0.00    +0.250 C 
ATOM     32  C   UNL     1      34.560 -22.477 -17.713  0.00  0.00    +0.058 C 
ATOM     33  H   UNL     1      32.032 -21.314 -19.556  0.00  0.00    +0.155 HD
ENDBRANCH  21  24
ENDBRANCH  20  21
ENDBRANCH  19  20
ENDBRANCH  18  19
ENDBRANCH   1  18
TORSDOF 7
ENDMDL
MODEL 3
REMARK VINA RESULT:     -11.3      2.320      3.943
REMARK  Name = 11978813
REMARK  7 active torsions:
REMARK  status: ('A' for Active; 'I' for Inactive)
REMARK    1  A    between atoms: C_1  and  N_2
REMARK    2  A    between atoms: C_1  and  C_18
REMARK    3  A    between atoms: N_3  and  C_10
REMARK    4  A    between atoms: C_18  and  C_19
REMARK    5  A    between atoms: C_19  and  C_20
REMARK    6  A    between atoms: C_20  and  O_21
REMARK    7  A    between atoms: O_21  and  C_24
REMARK                            x       y       z     vdW  Elec       q    Type
REMARK                         _______ _______ _______ _____ _____    ______ ____
ROOT
ATOM      1  C   UNL     1      35.682 -21.438 -19.098  0.00  0.00    -0.077 C 
ENDROOT
BRANCH   1   2
ATOM      2  N   UNL     1      35.567 -20.673 -20.339  0.00  0.00    +0.389 N 
ATOM      3  N   UNL     1      35.007 -18.379 -21.945  0.00  0.00    -0.312 N 
ATOM      4  C   UNL     1      34.183 -20.232 -20.545  0.00  0.00    -0.055 C 
ATOM      5  C   UNL     1      36.463 -19.511 -20.312  0.00  0.00    -0.055 C 
ATOM      6  C   UNL     1      34.038 -19.479 -21.870  0.00  0.00    +0.068 C 
ATOM      7  C   UNL     1      36.394 -18.732 -21.628  0.00  0.00    +0.068 C 
ATOM      8  H   UNL     1      35.839 -21.280 -21.112  0.00  0.00    -0.080 HD
BRANCH   3  10
ATOM      9  S   UNL     1      34.047 -13.452 -22.577  0.00  0.00    -0.086 S 
ATOM     10  C   UNL     1      34.744 -17.330 -22.834  0.00  0.00    +0.048 C 
ATOM     11  C   UNL     1      34.530 -15.985 -22.388  0.00  0.00    +0.020 C 
ATOM     12  C   UNL     1      34.684 -17.592 -24.220  0.00  0.00    +0.015 C 
ATOM     13  C   UNL     1      34.271 -14.985 -23.332  0.00  0.00    +0.031 C 
ATOM     14  C   UNL     1      34.535 -15.452 -21.057  0.00  0.00    +0.009 C 
ATOM     15  C   UNL     1      34.425 -16.583 -25.138  0.00  0.00    +0.002 C 
ATOM     16  C   UNL     1      34.216 -15.270 -24.711  0.00  0.00    +0.007 C 
ATOM     17  C   UNL     1      34.289 -14.101 -21.019  0.00  0.00    +0.035 C 
ENDBRANCH   3  10
ENDBRANCH   1   2
BRANCH   1  18
ATOM     18  C   UNL     1      34.641 -22.556 -19.065  0.00  0.00    -0.019 C 
BRANCH  18  19
ATOM     19  C   UNL     1      33.399 -22.130 -18.283  0.00  0.00    +0.045 C 
BRANCH  19  20
ATOM     20  C   UNL     1      33.192 -22.991 -17.044  0.00  0.00    +0.205 C 
BRANCH  20  21
ATOM     21  O   UNL     1      34.325 -23.825 -16.842  0.00  0.00    -0.475 OA
BRANCH  21  24
ATOM     22  O   UNL     1      35.148 -25.210  -9.913  0.00  0.00    -0.270 OA
ATOM     23  N   UNL     1      34.866 -24.771 -12.155  0.00  0.00    -0.280 N 
ATOM     24  C   UNL     1      35.016 -23.656 -15.670  0.00  0.00    +0.140 C 
ATOM     25  C   UNL     1      34.581 -24.301 -14.519  0.00  0.00    +0.052 C 
ATOM     26  C   UNL     1      35.292 -24.124 -13.329  0.00  0.00    +0.054 C 
ATOM     27  C   UNL     1      36.142 -22.841 -15.649  0.00  0.00    +0.037 C 
ATOM     28  C   UNL     1      36.427 -23.307 -13.291  0.00  0.00    +0.014 C 
ATOM     29  C   UNL     1      36.852 -22.665 -14.458  0.00  0.00    +0.004 C 
ATOM     30  C   UNL     1      37.142 -23.149 -12.027  0.00  0.00    +0.006 C 
ATOM     31  C   UNL     1      35.514 -24.647 -10.942  0.00  0.00    +0.250 C 
ATOM     32  C   UNL     1      36.719 -23.774 -10.922  0.00  0.00    +0.058 C 
ATOM     33  H   UNL     1      34.064 -25.342 -12.200  0.00  0.00    +0.155 HD
ENDBRANCH  21  24
ENDBRANCH  20  21
ENDBRANCH  19  20
ENDBRANCH  18  19
ENDBRANCH   1  18
TORSDOF 7
ENDMDL
MODEL 4
REMARK VINA RESULT:     -11.2      7.035     11.203
REMARK  Name = 11978813
REMARK  7 active torsions:
REMARK  status: ('A' for Active; 'I' for Inactive)
REMARK    1  A    between atoms: C_1  and  N_2
REMARK    2  A    between atoms: C_1  and  C_18
REMARK    3  A    between atoms: N_3  and  C_10
REMARK    4  A    between atoms: C_18  and  C_19
REMARK    5  A    between atoms: C_19  and  C_20
REMARK    6  A    between atoms: C_20  and  O_21
REMARK    7  A    between atoms: O_21  and  C_24
REMARK                            x       y       z     vdW  Elec       q    Type
REMARK                         _______ _______ _______ _____ _____    ______ ____
ROOT
ATOM      1  C   UNL     1      31.607 -10.157 -19.819  0.00  0.00    -0.077 C 
ENDROOT
BRANCH   1   2
ATOM      2  N   UNL     1      31.626  -8.977 -20.682  0.00  0.00    +0.389 N 
ATOM      3  N   UNL     1      32.678  -7.214 -22.669  0.00  0.00    -0.312 N 
ATOM      4  C   UNL     1      32.797  -8.142 -20.388  0.00  0.00    -0.055 C 
ATOM      5  C   UNL     1      31.636  -9.371 -22.095  0.00  0.00    -0.055 C 
ATOM      6  C   UNL     1      32.797  -6.874 -21.245  0.00  0.00    +0.068 C 
ATOM      7  C   UNL     1      31.598  -8.145 -23.010  0.00  0.00    +0.068 C 
ATOM      8  H   UNL     1      30.781  -8.435 -20.498  0.00  0.00    -0.080 HD
BRANCH   3  10
ATOM      9  S   UNL     1      31.779  -2.829 -25.024  0.00  0.00    -0.086 S 
ATOM     10  C   UNL     1      33.103  -6.269 -23.609  0.00  0.00    +0.048 C 
ATOM     11  C   UNL     1      32.353  -5.081 -23.892  0.00  0.00    +0.020 C 
ATOM     12  C   UNL     1      34.311  -6.480 -24.309  0.00  0.00    +0.015 C 
ATOM     13  C   UNL     1      32.836  -4.179 -24.845  0.00  0.00    +0.031 C 
ATOM     14  C   UNL     1      31.112  -4.629 -23.333  0.00  0.00    +0.009 C 
ATOM     15  C   UNL     1      34.770  -5.569 -25.251  0.00  0.00    +0.002 C 
ATOM     16  C   UNL     1      34.044  -4.410 -25.533  0.00  0.00    +0.007 C 
ATOM     17  C   UNL     1      30.694  -3.430 -23.856  0.00  0.00    +0.035 C 
ENDBRANCH   3  10
ENDBRANCH   1   2
BRANCH   1  18
ATOM     18  C   UNL     1      31.011 -11.350 -20.564  0.00  0.00    -0.019 C 
BRANCH  18  19
ATOM     19  C   UNL     1      31.973 -12.537 -20.567  0.00  0.00    +0.045 C 
BRANCH  19  20
ATOM     20  C   UNL     1      32.389 -12.919 -21.981  0.00  0.00    +0.205 C 
BRANCH  20  21
ATOM     21  O   UNL     1      33.775 -13.236 -22.007  0.00  0.00    -0.475 OA
BRANCH  21  24
ATOM     22  O   UNL     1      36.094 -19.696 -20.134  0.00  0.00    -0.270 OA
ATOM     23  N   UNL     1      35.347 -17.599 -20.723  0.00  0.00    -0.280 N 
ATOM     24  C   UNL     1      34.109 -14.523 -22.342  0.00  0.00    +0.140 C 
ATOM     25  C   UNL     1      34.556 -15.394 -21.357  0.00  0.00    +0.052 C 
ATOM     26  C   UNL     1      34.893 -16.704 -21.708  0.00  0.00    +0.054 C 
ATOM     27  C   UNL     1      33.995 -14.938 -23.664  0.00  0.00    +0.037 C 
ATOM     28  C   UNL     1      34.785 -17.137 -23.034  0.00  0.00    +0.014 C 
ATOM     29  C   UNL     1      34.333 -16.248 -24.014  0.00  0.00    +0.004 C 
ATOM     30  C   UNL     1      35.146 -18.515 -23.360  0.00  0.00    +0.006 C 
ATOM     31  C   UNL     1      35.698 -18.908 -20.990  0.00  0.00    +0.250 C 
ATOM     32  C   UNL     1      35.576 -19.350 -22.406  0.00  0.00    +0.058 C 
ATOM     33  H   UNL     1      35.418 -17.276 -19.795  0.00  0.00    +0.155 HD
ENDBRANCH  21  24
ENDBRANCH  20  21
ENDBRANCH  19  20
ENDBRANCH  18  19
ENDBRANCH   1  18
TORSDOF 7
ENDMDL
MODEL 5
REMARK VINA RESULT:     -11.2      7.046     11.292
REMARK  Name = 11978813
REMARK  7 active torsions:
REMARK  status: ('A' for Active; 'I' for Inactive)
REMARK    1  A    between atoms: C_1  and  N_2
REMARK    2  A    between atoms: C_1  and  C_18
REMARK    3  A    between atoms: N_3  and  C_10
REMARK    4  A    between atoms: C_18  and  C_19
REMARK    5  A    between atoms: C_19  and  C_20
REMARK    6  A    between atoms: C_20  and  O_21
REMARK    7  A    between atoms: O_21  and  C_24
REMARK                            x       y       z     vdW  Elec       q    Type
REMARK                         _______ _______ _______ _____ _____    ______ ____
ROOT
ATOM      1  C   UNL     1      31.959 -10.276 -19.705  0.00  0.00    -0.077 C 
ENDROOT
BRANCH   1   2
ATOM      2  N   UNL     1      31.533  -9.069 -20.410  0.00  0.00    +0.389 N 
ATOM      3  N   UNL     1      31.815  -6.845 -22.181  0.00  0.00    -0.312 N 
ATOM      4  C   UNL     1      32.382  -7.930 -20.041  0.00  0.00    -0.055 C 
ATOM      5  C   UNL     1      31.579  -9.277 -21.862  0.00  0.00    -0.055 C 
ATOM      6  C   UNL     1      31.909  -6.647 -20.729  0.00  0.00    +0.068 C 
ATOM      7  C   UNL     1      31.080  -8.039 -22.612  0.00  0.00    +0.068 C 
ATOM      8  H   UNL     1      30.571  -8.865 -20.137  0.00  0.00    -0.080 HD
BRANCH   3  10
ATOM      9  S   UNL     1      34.155  -4.306 -25.878  0.00  0.00    -0.086 S 
ATOM     10  C   UNL     1      31.843  -5.713 -23.003  0.00  0.00    +0.048 C 
ATOM     11  C   UNL     1      32.867  -5.504 -23.983  0.00  0.00    +0.020 C 
ATOM     12  C   UNL     1      30.833  -4.734 -22.872  0.00  0.00    +0.015 C 
ATOM     13  C   UNL     1      32.834  -4.349 -24.771  0.00  0.00    +0.031 C 
ATOM     14  C   UNL     1      33.992  -6.328 -24.318  0.00  0.00    +0.009 C 
ATOM     15  C   UNL     1      30.822  -3.595 -23.665  0.00  0.00    +0.002 C 
ATOM     16  C   UNL     1      31.816  -3.386 -24.623  0.00  0.00    +0.007 C 
ATOM     17  C   UNL     1      34.765  -5.797 -25.322  0.00  0.00    +0.035 C 
ENDBRANCH   3  10
ENDBRANCH   1   2
BRANCH   1  18
ATOM     18  C   UNL     1      31.240 -11.502 -20.266  0.00  0.00    -0.019 C 
BRANCH  18  19
ATOM     19  C   UNL     1      32.210 -12.662 -20.480  0.00  0.00    +0.045 C 
BRANCH  19  20
ATOM     20  C   UNL     1      32.427 -12.946 -21.961  0.00  0.00    +0.205 C 
BRANCH  20  21
ATOM     21  O   UNL     1      33.799 -13.235 -22.199  0.00  0.00    -0.475 OA
BRANCH  21  24
ATOM     22  O   UNL     1      36.054 -19.656 -20.125  0.00  0.00    -0.270 OA
ATOM     23  N   UNL     1      35.328 -17.572 -20.779  0.00  0.00    -0.280 N 
ATOM     24  C   UNL     1      34.114 -14.537 -22.493  0.00  0.00    +0.140 C 
ATOM     25  C   UNL     1      34.559 -15.380 -21.482  0.00  0.00    +0.052 C 
ATOM     26  C   UNL     1      34.876 -16.705 -21.791  0.00  0.00    +0.054 C 
ATOM     27  C   UNL     1      33.984 -14.996 -23.800  0.00  0.00    +0.037 C 
ATOM     28  C   UNL     1      34.752 -17.182 -23.100  0.00  0.00    +0.014 C 
ATOM     29  C   UNL     1      34.302 -16.321 -24.106  0.00  0.00    +0.004 C 
ATOM     30  C   UNL     1      35.094 -18.574 -23.381  0.00  0.00    +0.006 C 
ATOM     31  C   UNL     1      35.660 -18.893 -21.004  0.00  0.00    +0.250 C 
ATOM     32  C   UNL     1      35.521 -19.382 -22.403  0.00  0.00    +0.058 C 
ATOM     33  H   UNL     1      35.410 -17.218 -19.863  0.00  0.00    +0.155 HD
ENDBRANCH  21  24
ENDBRANCH  20  21
ENDBRANCH  19  20
ENDBRANCH  18  19
ENDBRANCH   1  18
TORSDOF 7
ENDMDL
MODEL 6
REMARK VINA RESULT:     -11.2      3.103      5.618
REMARK  Name = 11978813
REMARK  7 active torsions:
REMARK  status: ('A' for Active; 'I' for Inactive)
REMARK    1  A    between atoms: C_1  and  N_2
REMARK    2  A    between atoms: C_1  and  C_18
REMARK    3  A    between atoms: N_3  and  C_10
REMARK    4  A    between atoms: C_18  and  C_19
REMARK    5  A    between atoms: C_19  and  C_20
REMARK    6  A    between atoms: C_20  and  O_21
REMARK    7  A    between atoms: O_21  and  C_24
REMARK                            x       y       z     vdW  Elec       q    Type
REMARK                         _______ _______ _______ _____ _____    ______ ____
ROOT
ATOM      1  C   UNL     1      34.895 -16.843 -24.343  0.00  0.00    -0.077 C 
ENDROOT
BRANCH   1   2
ATOM      2  N   UNL     1      34.676 -15.451 -23.953  0.00  0.00    +0.389 N 
ATOM      3  N   UNL     1      33.250 -13.256 -22.807  0.00  0.00    -0.312 N 
ATOM      4  C   UNL     1      33.486 -14.910 -24.620  0.00  0.00    -0.055 C 
ATOM      5  C   UNL     1      34.526 -15.341 -22.497  0.00  0.00    -0.055 C 
ATOM      6  C   UNL     1      33.279 -13.436 -24.264  0.00  0.00    +0.068 C 
ATOM      7  C   UNL     1      34.352 -13.882 -22.069  0.00  0.00    +0.068 C 
ATOM      8  H   UNL     1      35.490 -14.908 -24.241  0.00  0.00    -0.080 HD
BRANCH   3  10
ATOM      9  S   UNL     1      33.076  -8.202 -22.700  0.00  0.00    -0.086 S 
ATOM     10  C   UNL     1      32.639 -12.105 -22.298  0.00  0.00    +0.048 C 
ATOM     11  C   UNL     1      33.061 -10.787 -22.667  0.00  0.00    +0.020 C 
ATOM     12  C   UNL     1      31.567 -12.233 -21.387  0.00  0.00    +0.015 C 
ATOM     13  C   UNL     1      32.406  -9.680 -22.119  0.00  0.00    +0.031 C 
ATOM     14  C   UNL     1      34.109 -10.380 -23.559  0.00  0.00    +0.009 C 
ATOM     15  C   UNL     1      30.931 -11.119 -20.856  0.00  0.00    +0.002 C 
ATOM     16  C   UNL     1      31.338  -9.831 -21.212  0.00  0.00    +0.007 C 
ATOM     17  C   UNL     1      34.221  -9.015 -23.665  0.00  0.00    +0.035 C 
ENDBRANCH   3  10
ENDBRANCH   1   2
BRANCH   1  18
ATOM     18  C   UNL     1      34.470 -17.784 -23.216  0.00  0.00    -0.019 C 
BRANCH  18  19
ATOM     19  C   UNL     1      35.650 -18.613 -22.714  0.00  0.00    +0.045 C 
BRANCH  19  20
ATOM     20  C   UNL     1      35.454 -19.051 -21.269  0.00  0.00    +0.205 C 
BRANCH  20  21
ATOM     21  O   UNL     1      34.615 -20.197 -21.222  0.00  0.00    -0.475 OA
BRANCH  21  24
ATOM     22  O   UNL     1      30.965 -23.400 -16.022  0.00  0.00    -0.270 OA
ATOM     23  N   UNL     1      32.131 -22.358 -17.712  0.00  0.00    -0.280 N 
ATOM     24  C   UNL     1      34.591 -20.899 -20.045  0.00  0.00    +0.140 C 
ATOM     25  C   UNL     1      33.371 -21.264 -19.488  0.00  0.00    +0.052 C 
ATOM     26  C   UNL     1      33.357 -21.980 -18.289  0.00  0.00    +0.054 C 
ATOM     27  C   UNL     1      35.788 -21.237 -19.423  0.00  0.00    +0.037 C 
ATOM     28  C   UNL     1      34.552 -22.327 -17.651  0.00  0.00    +0.014 C 
ATOM     29  C   UNL     1      35.772 -21.953 -18.223  0.00  0.00    +0.004 C 
ATOM     30  C   UNL     1      34.494 -23.076 -16.398  0.00  0.00    +0.006 C 
ATOM     31  C   UNL     1      32.033 -23.066 -16.531  0.00  0.00    +0.250 C 
ATOM     32  C   UNL     1      33.316 -23.425 -15.867  0.00  0.00    +0.058 C 
ATOM     33  H   UNL     1      31.298 -22.104 -18.175  0.00  0.00    +0.155 HD
ENDBRANCH  21  24
ENDBRANCH  20  21
ENDBRANCH  19  20
ENDBRANCH  18  19
ENDBRANCH   1  18
TORSDOF 7
ENDMDL
MODEL 7
REMARK VINA RESULT:     -11.0      2.499      4.632
REMARK  Name = 11978813
REMARK  7 active torsions:
REMARK  status: ('A' for Active; 'I' for Inactive)
REMARK    1  A    between atoms: C_1  and  N_2
REMARK    2  A    between atoms: C_1  and  C_18
REMARK    3  A    between atoms: N_3  and  C_10
REMARK    4  A    between atoms: C_18  and  C_19
REMARK    5  A    between atoms: C_19  and  C_20
REMARK    6  A    between atoms: C_20  and  O_21
REMARK    7  A    between atoms: O_21  and  C_24
REMARK                            x       y       z     vdW  Elec       q    Type
REMARK                         _______ _______ _______ _____ _____    ______ ____
ROOT
ATOM      1  C   UNL     1      35.910 -21.292 -19.120  0.00  0.00    -0.077 C 
ENDROOT
BRANCH   1   2
ATOM      2  N   UNL     1      35.740 -20.545 -20.365  0.00  0.00    +0.389 N 
ATOM      3  N   UNL     1      35.070 -18.286 -21.981  0.00  0.00    -0.312 N 
ATOM      4  C   UNL     1      34.338 -20.147 -20.540  0.00  0.00    -0.055 C 
ATOM      5  C   UNL     1      36.602 -19.356 -20.375  0.00  0.00    -0.055 C 
ATOM      6  C   UNL     1      34.137 -19.414 -21.868  0.00  0.00    +0.068 C 
ATOM      7  C   UNL     1      36.476 -18.595 -21.697  0.00  0.00    +0.068 C 
ATOM      8  H   UNL     1      36.009 -21.152 -21.139  0.00  0.00    -0.080 HD
BRANCH   3  10
ATOM      9  S   UNL     1      33.944 -13.399 -22.639  0.00  0.00    -0.086 S 
ATOM     10  C   UNL     1      34.753 -17.256 -22.873  0.00  0.00    +0.048 C 
ATOM     11  C   UNL     1      34.509 -15.914 -22.437  0.00  0.00    +0.020 C 
ATOM     12  C   UNL     1      34.667 -17.536 -24.255  0.00  0.00    +0.015 C 
ATOM     13  C   UNL     1      34.197 -14.933 -23.384  0.00  0.00    +0.031 C 
ATOM     14  C   UNL     1      34.531 -15.366 -21.111  0.00  0.00    +0.009 C 
ATOM     15  C   UNL     1      34.355 -16.545 -25.176  0.00  0.00    +0.002 C 
ATOM     16  C   UNL     1      34.116 -15.234 -24.757  0.00  0.00    +0.007 C 
ATOM     17  C   UNL     1      34.244 -14.023 -21.082  0.00  0.00    +0.035 C 
ENDBRANCH   3  10
ENDBRANCH   1   2
BRANCH   1  18
ATOM     18  C   UNL     1      34.906 -22.442 -19.049  0.00  0.00    -0.019 C 
BRANCH  18  19
ATOM     19  C   UNL     1      33.895 -22.224 -17.925  0.00  0.00    +0.045 C 
BRANCH  19  20
ATOM     20  C   UNL     1      33.882 -23.391 -16.947  0.00  0.00    +0.205 C 
BRANCH  20  21
ATOM     21  O   UNL     1      34.067 -22.910 -15.622  0.00  0.00    -0.475 OA
BRANCH  21  24
ATOM     22  O   UNL     1      40.672 -25.397 -14.722  0.00  0.00    -0.270 OA
ATOM     23  N   UNL     1      38.539 -24.588 -15.030  0.00  0.00    -0.280 N 
ATOM     24  C   UNL     1      34.999 -23.560 -14.854  0.00  0.00    +0.140 C 
ATOM     25  C   UNL     1      36.287 -23.738 -15.342  0.00  0.00    +0.052 C 
ATOM     26  C   UNL     1      37.230 -24.400 -14.551  0.00  0.00    +0.054 C 
ATOM     27  C   UNL     1      34.641 -24.032 -13.595  0.00  0.00    +0.037 C 
ATOM     28  C   UNL     1      36.886 -24.881 -13.283  0.00  0.00    +0.014 C 
ATOM     29  C   UNL     1      35.585 -24.694 -12.806  0.00  0.00    +0.004 C 
ATOM     30  C   UNL     1      37.901 -25.567 -12.488  0.00  0.00    +0.006 C 
ATOM     31  C   UNL     1      39.526 -25.231 -14.310  0.00  0.00    +0.250 C 
ATOM     32  C   UNL     1      39.141 -25.735 -12.964  0.00  0.00    +0.058 C 
ATOM     33  H   UNL     1      38.763 -24.244 -15.926  0.00  0.00    +0.155 HD
ENDBRANCH  21  24
ENDBRANCH  20  21
ENDBRANCH  19  20
ENDBRANCH  18  19
ENDBRANCH   1  18
TORSDOF 7
ENDMDL
MODEL 8
REMARK VINA RESULT:     -10.9      3.036      5.824
REMARK  Name = 11978813
REMARK  7 active torsions:
REMARK  status: ('A' for Active; 'I' for Inactive)
REMARK    1  A    between atoms: C_1  and  N_2
REMARK    2  A    between atoms: C_1  and  C_18
REMARK    3  A    between atoms: N_3  and  C_10
REMARK    4  A    between atoms: C_18  and  C_19
REMARK    5  A    between atoms: C_19  and  C_20
REMARK    6  A    between atoms: C_20  and  O_21
REMARK    7  A    between atoms: O_21  and  C_24
REMARK                            x       y       z     vdW  Elec       q    Type
REMARK                         _______ _______ _______ _____ _____    ______ ____
ROOT
ATOM      1  C   UNL     1      34.895 -17.208 -23.744  0.00  0.00    -0.077 C 
ENDROOT
BRANCH   1   2
ATOM      2  N   UNL     1      34.672 -15.780 -23.522  0.00  0.00    +0.389 N 
ATOM      3  N   UNL     1      33.258 -13.471 -22.610  0.00  0.00    -0.312 N 
ATOM      4  C   UNL     1      33.454 -15.335 -24.210  0.00  0.00    -0.055 C 
ATOM      5  C   UNL     1      34.568 -15.491 -22.087  0.00  0.00    -0.055 C 
ATOM      6  C   UNL     1      33.241 -13.830 -24.034  0.00  0.00    +0.068 C 
ATOM      7  C   UNL     1      34.391 -13.991 -21.838  0.00  0.00    +0.068 C 
ATOM      8  H   UNL     1      35.470 -15.271 -23.903  0.00  0.00    -0.080 HD
BRANCH   3  10
ATOM      9  S   UNL     1      33.177  -8.425 -22.950  0.00  0.00    -0.086 S 
ATOM     10  C   UNL     1      32.650 -12.270 -22.227  0.00  0.00    +0.048 C 
ATOM     11  C   UNL     1      33.112 -10.996 -22.693  0.00  0.00    +0.020 C 
ATOM     12  C   UNL     1      31.543 -12.300 -21.352  0.00  0.00    +0.015 C 
ATOM     13  C   UNL     1      32.457  -9.835 -22.269  0.00  0.00    +0.031 C 
ATOM     14  C   UNL     1      34.199 -10.686 -23.576  0.00  0.00    +0.009 C 
ATOM     15  C   UNL     1      30.909 -11.134 -20.945  0.00  0.00    +0.002 C 
ATOM     16  C   UNL     1      31.354  -9.889 -21.395  0.00  0.00    +0.007 C 
ATOM     17  C   UNL     1      34.342  -9.337 -23.796  0.00  0.00    +0.035 C 
ENDBRANCH   3  10
ENDBRANCH   1   2
BRANCH   1  18
ATOM     18  C   UNL     1      35.448 -17.862 -22.478  0.00  0.00    -0.019 C 
BRANCH  18  19
ATOM     19  C   UNL     1      34.784 -19.212 -22.218  0.00  0.00    +0.045 C 
BRANCH  19  20
ATOM     20  C   UNL     1      34.836 -19.590 -20.744  0.00  0.00    +0.205 C 
BRANCH  20  21
ATOM     21  O   UNL     1      35.206 -20.956 -20.609  0.00  0.00    -0.475 OA
BRANCH  21  24
ATOM     22  O   UNL     1      37.606 -23.025 -14.240  0.00  0.00    -0.270 OA
ATOM     23  N   UNL     1      36.846 -22.351 -16.306  0.00  0.00    -0.280 N 
ATOM     24  C   UNL     1      34.986 -21.539 -19.388  0.00  0.00    +0.140 C 
ATOM     25  C   UNL     1      36.032 -21.644 -18.480  0.00  0.00    +0.052 C 
ATOM     26  C   UNL     1      35.798 -22.238 -17.237  0.00  0.00    +0.054 C 
ATOM     27  C   UNL     1      33.718 -22.017 -19.074  0.00  0.00    +0.037 C 
ATOM     28  C   UNL     1      34.529 -22.724 -16.906  0.00  0.00    +0.014 C 
ATOM     29  C   UNL     1      33.486 -22.610 -17.831  0.00  0.00    +0.004 C 
ATOM     30  C   UNL     1      34.326 -23.338 -15.596  0.00  0.00    +0.006 C 
ATOM     31  C   UNL     1      36.695 -22.924 -15.059  0.00  0.00    +0.250 C 
ATOM     32  C   UNL     1      35.338 -23.435 -14.725  0.00  0.00    +0.058 C 
ATOM     33  H   UNL     1      37.734 -22.004 -16.556  0.00  0.00    +0.155 HD
ENDBRANCH  21  24
ENDBRANCH  20  21
ENDBRANCH  19  20
ENDBRANCH  18  19
ENDBRANCH   1  18
TORSDOF 7
ENDMDL
MODEL 9
REMARK VINA RESULT:     -10.8      4.691     11.111
REMARK  Name = 11978813
REMARK  7 active torsions:
REMARK  status: ('A' for Active; 'I' for Inactive)
REMARK    1  A    between atoms: C_1  and  N_2
REMARK    2  A    between atoms: C_1  and  C_18
REMARK    3  A    between atoms: N_3  and  C_10
REMARK    4  A    between atoms: C_18  and  C_19
REMARK    5  A    between atoms: C_19  and  C_20
REMARK    6  A    between atoms: C_20  and  O_21
REMARK    7  A    between atoms: O_21  and  C_24
REMARK                            x       y       z     vdW  Elec       q    Type
REMARK                         _______ _______ _______ _____ _____    ______ ____
ROOT
ATOM      1  C   UNL     1      35.398 -21.431 -19.451  0.00  0.00    -0.077 C 
ENDROOT
BRANCH   1   2
ATOM      2  N   UNL     1      35.340 -21.654 -18.007  0.00  0.00    +0.389 N 
ATOM      3  N   UNL     1      35.675 -23.119 -15.578  0.00  0.00    -0.312 N 
ATOM      4  C   UNL     1      34.458 -22.784 -17.694  0.00  0.00    -0.055 C 
ATOM      5  C   UNL     1      36.682 -21.904 -17.470  0.00  0.00    -0.055 C 
ATOM      6  C   UNL     1      34.344 -22.990 -16.182  0.00  0.00    +0.068 C 
ATOM      7  C   UNL     1      36.644 -22.082 -15.950  0.00  0.00    +0.068 C 
ATOM      8  H   UNL     1      34.963 -20.811 -17.571  0.00  0.00    -0.080 HD
BRANCH   3  10
ATOM      9  S   UNL     1      38.487 -25.845 -12.376  0.00  0.00    -0.086 S 
ATOM     10  C   UNL     1      35.774 -23.744 -14.330  0.00  0.00    +0.048 C 
ATOM     11  C   UNL     1      36.951 -24.451 -13.920  0.00  0.00    +0.020 C 
ATOM     12  C   UNL     1      34.684 -23.685 -13.434  0.00  0.00    +0.015 C 
ATOM     13  C   UNL     1      36.981 -25.054 -12.658  0.00  0.00    +0.031 C 
ATOM     14  C   UNL     1      38.183 -24.662 -14.625  0.00  0.00    +0.009 C 
ATOM     15  C   UNL     1      34.738 -24.291 -12.187  0.00  0.00    +0.002 C 
ATOM     16  C   UNL     1      35.882 -24.982 -11.781  0.00  0.00    +0.007 C 
ATOM     17  C   UNL     1      39.093 -25.397 -13.904  0.00  0.00    +0.035 C 
ENDBRANCH   3  10
ENDBRANCH   1   2
BRANCH   1  18
ATOM     18  C   UNL     1      33.999 -21.156 -20.002  0.00  0.00    -0.019 C 
BRANCH  18  19
ATOM     19  C   UNL     1      33.934 -19.790 -20.684  0.00  0.00    +0.045 C 
BRANCH  19  20
ATOM     20  C   UNL     1      35.094 -19.588 -21.649  0.00  0.00    +0.205 C 
BRANCH  20  21
ATOM     21  O   UNL     1      35.526 -18.234 -21.606  0.00  0.00    -0.475 OA
BRANCH  21  24
ATOM     22  O   UNL     1      33.772 -11.680 -23.748  0.00  0.00    -0.270 OA
ATOM     23  N   UNL     1      34.344 -13.794 -23.038  0.00  0.00    -0.280 N 
ATOM     24  C   UNL     1      35.017 -17.392 -22.560  0.00  0.00    +0.140 C 
ATOM     25  C   UNL     1      34.944 -16.028 -22.303  0.00  0.00    +0.052 C 
ATOM     26  C   UNL     1      34.424 -15.177 -23.282  0.00  0.00    +0.054 C 
ATOM     27  C   UNL     1      34.579 -17.913 -23.773  0.00  0.00    +0.037 C 
ATOM     28  C   UNL     1      33.979 -15.687 -24.507  0.00  0.00    +0.014 C 
ATOM     29  C   UNL     1      34.059 -17.061 -24.750  0.00  0.00    +0.004 C 
ATOM     30  C   UNL     1      33.443 -14.763 -25.503  0.00  0.00    +0.006 C 
ATOM     31  C   UNL     1      33.844 -12.890 -23.954  0.00  0.00    +0.250 C 
ATOM     32  C   UNL     1      33.376 -13.450 -25.250  0.00  0.00    +0.058 C 
ATOM     33  H   UNL     1      34.661 -13.454 -22.169  0.00  0.00    +0.155 HD
ENDBRANCH  21  24
ENDBRANCH  20  21
ENDBRANCH  19  20
ENDBRANCH  18  19
ENDBRANCH   1  18
TORSDOF 7
ENDMDL
