MODEL 1
REMARK VINA RESULT:     -11.9      0.000      0.000
REMARK  Name = 24743471
REMARK  3 active torsions:
REMARK  status: ('A' for Active; 'I' for Inactive)
REMARK    1  A    between atoms: C_1  and  N_7
REMARK    2  A    between atoms: C_6  and  C_17
REMARK    3  A    between atoms: C_22  and  N_24
REMARK                            x       y       z     vdW  Elec       q    Type
REMARK                         _______ _______ _______ _____ _____    ______ ____
ROOT
ATOM      1  C   UNL     1      35.995 -23.417 -15.459  0.00  0.00    +0.048 C 
ATOM      2  C   UNL     1      34.749 -23.446 -16.084  0.00  0.00    +0.015 C 
ATOM      3  C   UNL     1      37.022 -22.634 -15.986  0.00  0.00    +0.015 C 
ATOM      4  C   UNL     1      34.529 -22.693 -17.238  0.00  0.00    +0.001 C 
ATOM      5  C   UNL     1      36.802 -21.880 -17.140  0.00  0.00    +0.001 C 
ATOM      6  C   UNL     1      35.555 -21.911 -17.765  0.00  0.00    +0.000 C 
ENDROOT
BRANCH   1   7
ATOM      7  N   UNL     1      36.213 -24.161 -14.316  0.00  0.00    -0.311 N 
ATOM      8  N   UNL     1      38.882 -26.323 -13.685  0.00  0.00    +0.387 N 
ATOM      9  C   UNL     1      36.789 -25.912 -12.813  0.00  0.00    -0.003 C 
ATOM     10  C   UNL     1      36.734 -25.532 -14.302  0.00  0.00    +0.050 C 
ATOM     11  C   UNL     1      35.898 -24.905 -12.107  0.00  0.00    +0.021 C 
ATOM     12  C   UNL     1      38.267 -25.833 -12.453  0.00  0.00    -0.076 C 
ATOM     13  C   UNL     1      38.193 -25.614 -14.768  0.00  0.00    -0.057 C 
ATOM     14  C   UNL     1      35.993 -23.649 -12.965  0.00  0.00    +0.091 C 
ATOM     15  C   UNL     1      40.321 -26.114 -13.710  0.00  0.00    -0.101 C 
ATOM     16  H   UNL     1      38.778 -27.335 -13.777  0.00  0.00    -0.080 HD
ENDBRANCH   1   7
BRANCH   6  17
ATOM     17  C   UNL     1      35.328 -21.129 -18.961  0.00  0.00    +0.000 C 
ATOM     18  C   UNL     1      36.402 -20.514 -19.606  0.00  0.00    +0.001 C 
ATOM     19  C   UNL     1      34.037 -20.990 -19.469  0.00  0.00    +0.001 C 
ATOM     20  C   UNL     1      36.184 -19.760 -20.759  0.00  0.00    +0.017 C 
ATOM     21  C   UNL     1      33.819 -20.237 -20.623  0.00  0.00    +0.017 C 
ATOM     22  C   UNL     1      34.892 -19.621 -21.267  0.00  0.00    +0.077 C 
BRANCH  22  24
ATOM     23  O   UNL     1      35.285 -16.703 -21.690  0.00  0.00    -0.268 OA
ATOM     24  N   UNL     1      34.666 -18.841 -22.461  0.00  0.00    -0.155 N 
ATOM     25  N   UNL     1      34.248 -19.596 -23.533  0.00  0.00    -0.170 NA
ATOM     26  C   UNL     1      34.855 -17.458 -22.562  0.00  0.00    +0.272 C 
ATOM     27  C   UNL     1      34.517 -16.832 -23.865  0.00  0.00    +0.062 C 
ATOM     28  C   UNL     1      33.992 -18.994 -24.643  0.00  0.00    +0.118 C 
ATOM     29  C   UNL     1      34.097 -17.561 -24.892  0.00  0.00    +0.027 C 
ENDBRANCH  22  24
ENDBRANCH   6  17
TORSDOF 3
ENDMDL
MODEL 2
REMARK VINA RESULT:     -10.3      1.071      2.221
REMARK  Name = 24743471
REMARK  3 active torsions:
REMARK  status: ('A' for Active; 'I' for Inactive)
REMARK    1  A    between atoms: C_1  and  N_7
REMARK    2  A    between atoms: C_6  and  C_17
REMARK    3  A    between atoms: C_22  and  N_24
REMARK                            x       y       z     vdW  Elec       q    Type
REMARK                         _______ _______ _______ _____ _____    ______ ____
ROOT
ATOM      1  C   UNL     1      36.424 -23.679 -15.530  0.00  0.00    +0.048 C 
ATOM      2  C   UNL     1      37.435 -22.889 -16.077  0.00  0.00    +0.015 C 
ATOM      3  C   UNL     1      35.142 -23.649 -16.078  0.00  0.00    +0.015 C 
ATOM      4  C   UNL     1      37.164 -22.069 -17.173  0.00  0.00    +0.001 C 
ATOM      5  C   UNL     1      34.871 -22.830 -17.175  0.00  0.00    +0.001 C 
ATOM      6  C   UNL     1      35.883 -22.041 -17.721  0.00  0.00    +0.000 C 
ENDROOT
BRANCH   1   7
ATOM      7  N   UNL     1      36.691 -24.491 -14.445  0.00  0.00    -0.311 N 
ATOM      8  N   UNL     1      37.279 -23.489 -11.152  0.00  0.00    +0.387 N 
ATOM      9  C   UNL     1      37.591 -25.380 -12.431  0.00  0.00    -0.003 C 
ATOM     10  C   UNL     1      37.659 -24.178 -13.389  0.00  0.00    +0.050 C 
ATOM     11  C   UNL     1      36.916 -26.487 -13.221  0.00  0.00    +0.021 C 
ATOM     12  C   UNL     1      36.804 -24.869 -11.232  0.00  0.00    -0.076 C 
ATOM     13  C   UNL     1      37.227 -22.984 -12.528  0.00  0.00    -0.057 C 
ATOM     14  C   UNL     1      35.999 -25.753 -14.193  0.00  0.00    +0.091 C 
ATOM     15  C   UNL     1      36.492 -22.681 -10.233  0.00  0.00    -0.101 C 
ATOM     16  H   UNL     1      38.226 -23.441 -10.774  0.00  0.00    -0.080 HD
ENDBRANCH   1   7
BRANCH   6  17
ATOM     17  C   UNL     1      35.601 -21.191 -18.859  0.00  0.00    +0.000 C 
ATOM     18  C   UNL     1      34.297 -21.090 -19.347  0.00  0.00    +0.001 C 
ATOM     19  C   UNL     1      36.631 -20.474 -19.466  0.00  0.00    +0.001 C 
ATOM     20  C   UNL     1      34.025 -20.271 -20.443  0.00  0.00    +0.017 C 
ATOM     21  C   UNL     1      36.359 -19.655 -20.562  0.00  0.00    +0.017 C 
ATOM     22  C   UNL     1      35.055 -19.554 -21.050  0.00  0.00    +0.077 C 
BRANCH  22  24
ATOM     23  O   UNL     1      35.259 -16.594 -21.263  0.00  0.00    -0.268 OA
ATOM     24  N   UNL     1      34.773 -18.706 -22.185  0.00  0.00    -0.155 N 
ATOM     25  N   UNL     1      34.398 -19.407 -23.308  0.00  0.00    -0.170 NA
ATOM     26  C   UNL     1      34.872 -17.310 -22.186  0.00  0.00    +0.272 C 
ATOM     27  C   UNL     1      34.488 -16.616 -23.440  0.00  0.00    +0.062 C 
ATOM     28  C   UNL     1      34.098 -18.745 -24.371  0.00  0.00    +0.118 C 
ATOM     29  C   UNL     1      34.109 -17.294 -24.517  0.00  0.00    +0.027 C 
ENDBRANCH  22  24
ENDBRANCH   6  17
TORSDOF 3
ENDMDL
MODEL 3
REMARK VINA RESULT:     -10.1      7.692     14.929
REMARK  Name = 24743471
REMARK  3 active torsions:
REMARK  status: ('A' for Active; 'I' for Inactive)
REMARK    1  A    between atoms: C_1  and  N_7
REMARK    2  A    between atoms: C_6  and  C_17
REMARK    3  A    between atoms: C_22  and  N_24
REMARK                            x       y       z     vdW  Elec       q    Type
REMARK                         _______ _______ _______ _____ _____    ______ ____
ROOT
ATOM      1  C   UNL     1      32.455  -8.841 -22.696  0.00  0.00    +0.048 C 
ATOM      2  C   UNL     1      33.451  -9.257 -23.579  0.00  0.00    +0.015 C 
ATOM      3  C   UNL     1      31.805  -9.775 -21.887  0.00  0.00    +0.015 C 
ATOM      4  C   UNL     1      33.799 -10.606 -23.653  0.00  0.00    +0.001 C 
ATOM      5  C   UNL     1      32.154 -11.123 -21.962  0.00  0.00    +0.001 C 
ATOM      6  C   UNL     1      33.150 -11.538 -22.845  0.00  0.00    +0.000 C 
ENDROOT
BRANCH   1   7
ATOM      7  N   UNL     1      32.110  -7.506 -22.620  0.00  0.00    -0.311 N 
ATOM      8  N   UNL     1      33.377  -4.887 -24.551  0.00  0.00    +0.387 N 
ATOM      9  C   UNL     1      32.195  -5.129 -22.589  0.00  0.00    -0.003 C 
ATOM     10  C   UNL     1      33.056  -6.393 -22.749  0.00  0.00    +0.050 C 
ATOM     11  C   UNL     1      30.900  -5.602 -21.953  0.00  0.00    +0.021 C 
ATOM     12  C   UNL     1      32.058  -4.578 -24.002  0.00  0.00    -0.076 C 
ATOM     13  C   UNL     1      33.641  -6.276 -24.162  0.00  0.00    -0.057 C 
ATOM     14  C   UNL     1      30.737  -7.036 -22.447  0.00  0.00    +0.091 C 
ATOM     15  C   UNL     1      33.440  -4.692 -25.992  0.00  0.00    -0.101 C 
ATOM     16  H   UNL     1      34.091  -4.256 -24.185  0.00  0.00    -0.080 HD
ENDBRANCH   1   7
BRANCH   6  17
ATOM     17  C   UNL     1      33.510 -12.938 -22.922  0.00  0.00    +0.000 C 
ATOM     18  C   UNL     1      33.955 -13.606 -21.781  0.00  0.00    +0.001 C 
ATOM     19  C   UNL     1      33.414 -13.617 -24.136  0.00  0.00    +0.001 C 
ATOM     20  C   UNL     1      34.302 -14.956 -21.855  0.00  0.00    +0.017 C 
ATOM     21  C   UNL     1      33.761 -14.967 -24.210  0.00  0.00    +0.017 C 
ATOM     22  C   UNL     1      34.205 -15.635 -23.069  0.00  0.00    +0.077 C 
BRANCH  22  24
ATOM     23  O   UNL     1      33.448 -17.647 -25.126  0.00  0.00    -0.268 OA
ATOM     24  N   UNL     1      34.565 -17.032 -23.145  0.00  0.00    -0.155 N 
ATOM     25  N   UNL     1      35.400 -17.435 -22.129  0.00  0.00    -0.170 NA
ATOM     26  C   UNL     1      34.138 -17.915 -24.143  0.00  0.00    +0.272 C 
ATOM     27  C   UNL     1      34.577 -19.328 -24.015  0.00  0.00    +0.062 C 
ATOM     28  C   UNL     1      35.762 -18.670 -22.087  0.00  0.00    +0.118 C 
ATOM     29  C   UNL     1      35.369 -19.717 -23.023  0.00  0.00    +0.027 C 
ENDBRANCH  22  24
ENDBRANCH   6  17
TORSDOF 3
ENDMDL
MODEL 4
REMARK VINA RESULT:      -9.8      7.675     14.879
REMARK  Name = 24743471
REMARK  3 active torsions:
REMARK  status: ('A' for Active; 'I' for Inactive)
REMARK    1  A    between atoms: C_1  and  N_7
REMARK    2  A    between atoms: C_6  and  C_17
REMARK    3  A    between atoms: C_22  and  N_24
REMARK                            x       y       z     vdW  Elec       q    Type
REMARK                         _______ _______ _______ _____ _____    ______ ____
ROOT
ATOM      1  C   UNL     1      32.362  -8.839 -22.620  0.00  0.00    +0.048 C 
ATOM      2  C   UNL     1      33.364  -9.272 -23.489  0.00  0.00    +0.015 C 
ATOM      3  C   UNL     1      31.717  -9.753 -21.787  0.00  0.00    +0.015 C 
ATOM      4  C   UNL     1      33.720 -10.621 -23.525  0.00  0.00    +0.001 C 
ATOM      5  C   UNL     1      32.075 -11.102 -21.823  0.00  0.00    +0.001 C 
ATOM      6  C   UNL     1      33.076 -11.534 -22.692  0.00  0.00    +0.000 C 
ENDROOT
BRANCH   1   7
ATOM      7  N   UNL     1      32.009  -7.504 -22.582  0.00  0.00    -0.311 N 
ATOM      8  N   UNL     1      33.355  -4.910 -24.494  0.00  0.00    +0.387 N 
ATOM      9  C   UNL     1      32.082  -5.127 -22.586  0.00  0.00    -0.003 C 
ATOM     10  C   UNL     1      32.955  -6.389 -22.684  0.00  0.00    +0.050 C 
ATOM     11  C   UNL     1      30.760  -5.596 -22.004  0.00  0.00    +0.021 C 
ATOM     12  C   UNL     1      32.010  -4.600 -24.013  0.00  0.00    -0.076 C 
ATOM     13  C   UNL     1      33.606  -6.292 -24.070  0.00  0.00    -0.057 C 
ATOM     14  C   UNL     1      30.627  -7.039 -22.482  0.00  0.00    +0.091 C 
ATOM     15  C   UNL     1      33.485  -4.738 -25.933  0.00  0.00    -0.101 C 
ATOM     16  H   UNL     1      34.048  -4.270 -24.105  0.00  0.00    -0.080 HD
ENDBRANCH   1   7
BRANCH   6  17
ATOM     17  C   UNL     1      33.445 -12.933 -22.729  0.00  0.00    +0.000 C 
ATOM     18  C   UNL     1      33.857 -13.576 -21.561  0.00  0.00    +0.001 C 
ATOM     19  C   UNL     1      33.391 -13.638 -23.932  0.00  0.00    +0.001 C 
ATOM     20  C   UNL     1      34.213 -14.924 -21.596  0.00  0.00    +0.017 C 
ATOM     21  C   UNL     1      33.747 -14.986 -23.967  0.00  0.00    +0.017 C 
ATOM     22  C   UNL     1      34.158 -15.629 -22.799  0.00  0.00    +0.077 C 
BRANCH  22  24
ATOM     23  O   UNL     1      35.391 -17.288 -20.659  0.00  0.00    -0.268 OA
ATOM     24  N   UNL     1      34.527 -17.025 -22.835  0.00  0.00    -0.155 N 
ATOM     25  N   UNL     1      34.215 -17.639 -24.025  0.00  0.00    -0.170 NA
ATOM     26  C   UNL     1      35.131 -17.721 -21.782  0.00  0.00    +0.272 C 
ATOM     27  C   UNL     1      35.480 -19.142 -22.035  0.00  0.00    +0.062 C 
ATOM     28  C   UNL     1      34.525 -18.881 -24.174  0.00  0.00    +0.118 C 
ATOM     29  C   UNL     1      35.193 -19.727 -23.192  0.00  0.00    +0.027 C 
ENDBRANCH  22  24
ENDBRANCH   6  17
TORSDOF 3
ENDMDL
MODEL 5
REMARK VINA RESULT:      -9.5     10.098     17.302
REMARK  Name = 24743471
REMARK  3 active torsions:
REMARK  status: ('A' for Active; 'I' for Inactive)
REMARK    1  A    between atoms: C_1  and  N_7
REMARK    2  A    between atoms: C_6  and  C_17
REMARK    3  A    between atoms: C_22  and  N_24
REMARK                            x       y       z     vdW  Elec       q    Type
REMARK                         _______ _______ _______ _____ _____    ______ ____
ROOT
ATOM      1  C   UNL     1      31.737  -5.890 -22.945  0.00  0.00    +0.048 C 
ATOM      2  C   UNL     1      33.082  -6.246 -23.052  0.00  0.00    +0.015 C 
ATOM      3  C   UNL     1      30.758  -6.880 -22.857  0.00  0.00    +0.015 C 
ATOM      4  C   UNL     1      33.447  -7.592 -23.071  0.00  0.00    +0.001 C 
ATOM      5  C   UNL     1      31.125  -8.226 -22.876  0.00  0.00    +0.001 C 
ATOM      6  C   UNL     1      32.469  -8.581 -22.983  0.00  0.00    +0.000 C 
ENDROOT
BRANCH   1   7
ATOM      7  N   UNL     1      31.374  -4.558 -22.925  0.00  0.00    -0.311 N 
ATOM      8  N   UNL     1      31.366  -2.332 -25.616  0.00  0.00    +0.387 N 
ATOM      9  C   UNL     1      31.287  -2.213 -23.316  0.00  0.00    -0.003 C 
ATOM     10  C   UNL     1      32.058  -3.497 -23.670  0.00  0.00    +0.050 C 
ATOM     11  C   UNL     1      30.493  -2.552 -22.067  0.00  0.00    +0.021 C 
ATOM     12  C   UNL     1      30.451  -1.916 -24.554  0.00  0.00    -0.076 C 
ATOM     13  C   UNL     1      31.885  -3.635 -25.187  0.00  0.00    -0.057 C 
ATOM     14  C   UNL     1      30.220  -4.048 -22.187  0.00  0.00    +0.091 C 
ATOM     15  C   UNL     1      30.718  -2.392 -26.917  0.00  0.00    -0.101 C 
ATOM     16  H   UNL     1      32.119  -1.655 -25.746  0.00  0.00    -0.080 HD
ENDBRANCH   1   7
BRANCH   6  17
ATOM     17  C   UNL     1      32.848  -9.978 -23.002  0.00  0.00    +0.000 C 
ATOM     18  C   UNL     1      33.826 -10.422 -23.893  0.00  0.00    +0.001 C 
ATOM     19  C   UNL     1      32.235 -10.879 -22.133  0.00  0.00    +0.001 C 
ATOM     20  C   UNL     1      34.192 -11.768 -23.912  0.00  0.00    +0.017 C 
ATOM     21  C   UNL     1      32.601 -12.225 -22.152  0.00  0.00    +0.017 C 
ATOM     22  C   UNL     1      33.579 -12.669 -23.043  0.00  0.00    +0.077 C 
BRANCH  22  24
ATOM     23  O   UNL     1      34.484 -14.389 -20.790  0.00  0.00    -0.268 OA
ATOM     24  N   UNL     1      33.958 -14.063 -23.063  0.00  0.00    -0.155 N 
ATOM     25  N   UNL     1      33.834 -14.642 -24.304  0.00  0.00    -0.170 NA
ATOM     26  C   UNL     1      34.399 -14.789 -21.951  0.00  0.00    +0.272 C 
ATOM     27  C   UNL     1      34.791 -16.201 -22.189  0.00  0.00    +0.062 C 
ATOM     28  C   UNL     1      34.170 -15.878 -24.439  0.00  0.00    +0.118 C 
ATOM     29  C   UNL     1      34.687 -16.752 -23.393  0.00  0.00    +0.027 C 
ENDBRANCH  22  24
ENDBRANCH   6  17
TORSDOF 3
ENDMDL
MODEL 6
REMARK VINA RESULT:      -9.2      6.680     11.347
REMARK  Name = 24743471
REMARK  3 active torsions:
REMARK  status: ('A' for Active; 'I' for Inactive)
REMARK    1  A    between atoms: C_1  and  N_7
REMARK    2  A    between atoms: C_6  and  C_17
REMARK    3  A    between atoms: C_22  and  N_24
REMARK                            x       y       z     vdW  Elec       q    Type
REMARK                         _______ _______ _______ _____ _____    ______ ____
ROOT
ATOM      1  C   UNL     1      34.140 -15.907 -23.291  0.00  0.00    +0.048 C 
ATOM      2  C   UNL     1      33.434 -15.214 -24.274  0.00  0.00    +0.015 C 
ATOM      3  C   UNL     1      34.484 -15.268 -22.099  0.00  0.00    +0.015 C 
ATOM      4  C   UNL     1      33.073 -13.882 -24.067  0.00  0.00    +0.001 C 
ATOM      5  C   UNL     1      34.122 -13.937 -21.891  0.00  0.00    +0.001 C 
ATOM      6  C   UNL     1      33.417 -13.245 -22.876  0.00  0.00    +0.000 C 
ENDROOT
BRANCH   1   7
ATOM      7  N   UNL     1      34.497 -17.225 -23.494  0.00  0.00    -0.311 N 
ATOM      8  N   UNL     1      35.079 -19.654 -21.054  0.00  0.00    +0.387 N 
ATOM      9  C   UNL     1      35.513 -19.367 -23.298  0.00  0.00    -0.003 C 
ATOM     10  C   UNL     1      35.461 -17.963 -22.671  0.00  0.00    +0.050 C 
ATOM     11  C   UNL     1      34.912 -19.211 -24.684  0.00  0.00    +0.021 C 
ATOM     12  C   UNL     1      34.716 -20.243 -22.341  0.00  0.00    -0.076 C 
ATOM     13  C   UNL     1      34.954 -18.205 -21.244  0.00  0.00    -0.057 C 
ATOM     14  C   UNL     1      33.915 -18.066 -24.538  0.00  0.00    +0.091 C 
ATOM     15  C   UNL     1      34.251 -20.145 -19.963  0.00  0.00    -0.101 C 
ATOM     16  H   UNL     1      36.028 -19.913 -20.779  0.00  0.00    -0.080 HD
ENDBRANCH   1   7
BRANCH   6  17
ATOM     17  C   UNL     1      33.042 -11.863 -22.660  0.00  0.00    +0.000 C 
ATOM     18  C   UNL     1      32.072 -11.545 -21.710  0.00  0.00    +0.001 C 
ATOM     19  C   UNL     1      33.650 -10.852 -23.403  0.00  0.00    +0.001 C 
ATOM     20  C   UNL     1      31.710 -10.214 -21.501  0.00  0.00    +0.017 C 
ATOM     21  C   UNL     1      33.288  -9.520 -23.194  0.00  0.00    +0.017 C 
ATOM     22  C   UNL     1      32.318  -9.202 -22.244  0.00  0.00    +0.077 C 
BRANCH  22  24
ATOM     23  O   UNL     1      33.066  -7.396 -20.001  0.00  0.00    -0.268 OA
ATOM     24  N   UNL     1      31.944  -7.824 -22.028  0.00  0.00    -0.155 N 
ATOM     25  N   UNL     1      31.166  -7.307 -23.038  0.00  0.00    -0.170 NA
ATOM     26  C   UNL     1      32.324  -7.055 -20.922  0.00  0.00    +0.272 C 
ATOM     27  C   UNL     1      31.792  -5.670 -20.859  0.00  0.00    +0.062 C 
ATOM     28  C   UNL     1      30.755  -6.091 -22.933  0.00  0.00    +0.118 C 
ATOM     29  C   UNL     1      31.027  -5.180 -21.827  0.00  0.00    +0.027 C 
ENDBRANCH  22  24
ENDBRANCH   6  17
TORSDOF 3
ENDMDL
MODEL 7
REMARK VINA RESULT:      -9.2      7.621     14.903
REMARK  Name = 24743471
REMARK  3 active torsions:
REMARK  status: ('A' for Active; 'I' for Inactive)
REMARK    1  A    between atoms: C_1  and  N_7
REMARK    2  A    between atoms: C_6  and  C_17
REMARK    3  A    between atoms: C_22  and  N_24
REMARK                            x       y       z     vdW  Elec       q    Type
REMARK                         _______ _______ _______ _____ _____    ______ ____
ROOT
ATOM      1  C   UNL     1      33.295  -8.752 -23.487  0.00  0.00    +0.048 C 
ATOM      2  C   UNL     1      32.409  -9.532 -22.743  0.00  0.00    +0.015 C 
ATOM      3  C   UNL     1      34.401  -9.344 -24.097  0.00  0.00    +0.015 C 
ATOM      4  C   UNL     1      32.629 -10.903 -22.609  0.00  0.00    +0.001 C 
ATOM      5  C   UNL     1      34.621 -10.716 -23.963  0.00  0.00    +0.001 C 
ATOM      6  C   UNL     1      33.734 -11.494 -23.218  0.00  0.00    +0.000 C 
ENDROOT
BRANCH   1   7
ATOM      7  N   UNL     1      33.078  -7.395 -23.622  0.00  0.00    -0.311 N 
ATOM      8  N   UNL     1      30.555  -5.503 -22.122  0.00  0.00    +0.387 N 
ATOM      9  C   UNL     1      32.047  -5.265 -23.862  0.00  0.00    -0.003 C 
ATOM     10  C   UNL     1      31.756  -6.770 -23.727  0.00  0.00    +0.050 C 
ATOM     11  C   UNL     1      33.510  -5.172 -24.259  0.00  0.00    +0.021 C 
ATOM     12  C   UNL     1      31.709  -4.686 -22.495  0.00  0.00    -0.076 C 
ATOM     13  C   UNL     1      30.945  -6.883 -22.430  0.00  0.00    -0.057 C 
ATOM     14  C   UNL     1      34.151  -6.404 -23.629  0.00  0.00    +0.091 C 
ATOM     15  C   UNL     1      30.177  -5.330 -20.728  0.00  0.00    -0.101 C 
ATOM     16  H   UNL     1      29.720  -5.227 -22.641  0.00  0.00    -0.080 HD
ENDBRANCH   1   7
BRANCH   6  17
ATOM     17  C   UNL     1      33.963 -12.916 -23.080  0.00  0.00    +0.000 C 
ATOM     18  C   UNL     1      34.197 -13.464 -21.818  0.00  0.00    +0.001 C 
ATOM     19  C   UNL     1      33.950 -13.738 -24.206  0.00  0.00    +0.001 C 
ATOM     20  C   UNL     1      34.418 -14.835 -21.683  0.00  0.00    +0.017 C 
ATOM     21  C   UNL     1      34.171 -15.109 -24.071  0.00  0.00    +0.017 C 
ATOM     22  C   UNL     1      34.405 -15.657 -22.810  0.00  0.00    +0.077 C 
BRANCH  22  24
ATOM     23  O   UNL     1      34.118 -17.802 -24.852  0.00  0.00    -0.268 OA
ATOM     24  N   UNL     1      34.634 -17.076 -22.670  0.00  0.00    -0.155 N 
ATOM     25  N   UNL     1      35.077 -17.435 -21.419  0.00  0.00    -0.170 NA
ATOM     26  C   UNL     1      34.446 -18.021 -23.686  0.00  0.00    +0.272 C 
ATOM     27  C   UNL     1      34.687 -19.441 -23.327  0.00  0.00    +0.062 C 
ATOM     28  C   UNL     1      35.288 -18.683 -21.178  0.00  0.00    +0.118 C 
ATOM     29  C   UNL     1      35.098 -19.787 -22.112  0.00  0.00    +0.027 C 
ENDBRANCH  22  24
ENDBRANCH   6  17
TORSDOF 3
ENDMDL
MODEL 8
REMARK VINA RESULT:      -9.1      2.386     10.427
REMARK  Name = 24743471
REMARK  3 active torsions:
REMARK  status: ('A' for Active; 'I' for Inactive)
REMARK    1  A    between atoms: C_1  and  N_7
REMARK    2  A    between atoms: C_6  and  C_17
REMARK    3  A    between atoms: C_22  and  N_24
REMARK                            x       y       z     vdW  Elec       q    Type
REMARK                         _______ _______ _______ _____ _____    ______ ____
ROOT
ATOM      1  C   UNL     1      35.242 -18.806 -21.446  0.00  0.00    +0.048 C 
ATOM      2  C   UNL     1      34.192 -19.608 -20.997  0.00  0.00    +0.015 C 
ATOM      3  C   UNL     1      36.493 -18.887 -20.833  0.00  0.00    +0.015 C 
ATOM      4  C   UNL     1      34.393 -20.489 -19.935  0.00  0.00    +0.001 C 
ATOM      5  C   UNL     1      36.693 -19.769 -19.771  0.00  0.00    +0.001 C 
ATOM      6  C   UNL     1      35.643 -20.570 -19.323  0.00  0.00    +0.000 C 
ENDROOT
BRANCH   1   7
ATOM      7  N   UNL     1      35.045 -17.934 -22.498  0.00  0.00    -0.311 N 
ATOM      8  N   UNL     1      32.927 -18.376 -25.239  0.00  0.00    +0.387 N 
ATOM      9  C   UNL     1      34.700 -17.020 -24.667  0.00  0.00    -0.003 C 
ATOM     10  C   UNL     1      34.882 -18.340 -23.897  0.00  0.00    +0.050 C 
ATOM     11  C   UNL     1      35.200 -15.935 -23.730  0.00  0.00    +0.021 C 
ATOM     12  C   UNL     1      33.211 -16.965 -24.985  0.00  0.00    -0.076 C 
ATOM     13  C   UNL     1      33.574 -19.103 -24.141  0.00  0.00    -0.057 C 
ATOM     14  C   UNL     1      34.928 -16.486 -22.334  0.00  0.00    +0.091 C 
ATOM     15  C   UNL     1      31.501 -18.651 -25.323  0.00  0.00    -0.101 C 
ATOM     16  H   UNL     1      33.289 -18.673 -26.146  0.00  0.00    -0.080 HD
ENDBRANCH   1   7
BRANCH   6  17
ATOM     17  C   UNL     1      35.852 -21.485 -18.221  0.00  0.00    +0.000 C 
ATOM     18  C   UNL     1      34.799 -22.280 -17.766  0.00  0.00    +0.001 C 
ATOM     19  C   UNL     1      37.104 -21.571 -17.613  0.00  0.00    +0.001 C 
ATOM     20  C   UNL     1      35.000 -23.161 -16.704  0.00  0.00    +0.017 C 
ATOM     21  C   UNL     1      37.305 -22.452 -16.551  0.00  0.00    +0.017 C 
ATOM     22  C   UNL     1      36.252 -23.247 -16.096  0.00  0.00    +0.077 C 
BRANCH  22  24
ATOM     23  O   UNL     1      37.281 -22.673 -13.364  0.00  0.00    -0.268 OA
ATOM     24  N   UNL     1      36.459 -24.160 -14.997  0.00  0.00    -0.155 N 
ATOM     25  N   UNL     1      36.084 -25.452 -15.284  0.00  0.00    -0.170 NA
ATOM     26  C   UNL     1      36.976 -23.803 -13.746  0.00  0.00    +0.272 C 
ATOM     27  C   UNL     1      37.162 -24.900 -12.763  0.00  0.00    +0.062 C 
ATOM     28  C   UNL     1      36.251 -26.354 -14.379  0.00  0.00    +0.118 C 
ATOM     29  C   UNL     1      36.815 -26.150 -13.050  0.00  0.00    +0.027 C 
ENDBRANCH  22  24
ENDBRANCH   6  17
TORSDOF 3
ENDMDL
MODEL 9
REMARK VINA RESULT:      -9.1      7.533     14.813
REMARK  Name = 24743471
REMARK  3 active torsions:
REMARK  status: ('A' for Active; 'I' for Inactive)
REMARK    1  A    between atoms: C_1  and  N_7
REMARK    2  A    between atoms: C_6  and  C_17
REMARK    3  A    between atoms: C_22  and  N_24
REMARK                            x       y       z     vdW  Elec       q    Type
REMARK                         _______ _______ _______ _____ _____    ______ ____
ROOT
ATOM      1  C   UNL     1      33.358  -8.820 -23.487  0.00  0.00    +0.048 C 
ATOM      2  C   UNL     1      32.507  -9.582 -22.687  0.00  0.00    +0.015 C 
ATOM      3  C   UNL     1      34.412  -9.433 -24.165  0.00  0.00    +0.015 C 
ATOM      4  C   UNL     1      32.710 -10.957 -22.564  0.00  0.00    +0.001 C 
ATOM      5  C   UNL     1      34.614 -10.808 -24.043  0.00  0.00    +0.001 C 
ATOM      6  C   UNL     1      33.763 -11.569 -23.242  0.00  0.00    +0.000 C 
ENDROOT
BRANCH   1   7
ATOM      7  N   UNL     1      33.158  -7.459 -23.610  0.00  0.00    -0.311 N 
ATOM      8  N   UNL     1      30.618  -5.560 -22.150  0.00  0.00    +0.387 N 
ATOM      9  C   UNL     1      32.154  -5.316 -23.849  0.00  0.00    -0.003 C 
ATOM     10  C   UNL     1      31.845  -6.819 -23.740  0.00  0.00    +0.050 C 
ATOM     11  C   UNL     1      33.628  -5.233 -24.208  0.00  0.00    +0.021 C 
ATOM     12  C   UNL     1      31.788  -4.750 -22.483  0.00  0.00    -0.076 C 
ATOM     13  C   UNL     1      31.001  -6.940 -22.465  0.00  0.00    -0.057 C 
ATOM     14  C   UNL     1      34.241  -6.479 -23.578  0.00  0.00    +0.091 C 
ATOM     15  C   UNL     1      30.206  -5.400 -20.763  0.00  0.00    -0.101 C 
ATOM     16  H   UNL     1      29.798  -5.269 -22.685  0.00  0.00    -0.080 HD
ENDBRANCH   1   7
BRANCH   6  17
ATOM     17  C   UNL     1      33.974 -12.995 -23.115  0.00  0.00    +0.000 C 
ATOM     18  C   UNL     1      34.264 -13.548 -21.868  0.00  0.00    +0.001 C 
ATOM     19  C   UNL     1      33.888 -13.816 -24.240  0.00  0.00    +0.001 C 
ATOM     20  C   UNL     1      34.468 -14.923 -21.745  0.00  0.00    +0.017 C 
ATOM     21  C   UNL     1      34.091 -15.191 -24.117  0.00  0.00    +0.017 C 
ATOM     22  C   UNL     1      34.382 -15.744 -22.869  0.00  0.00    +0.077 C 
BRANCH  22  24
ATOM     23  O   UNL     1      35.294 -17.290 -20.497  0.00  0.00    -0.268 OA
ATOM     24  N   UNL     1      34.592 -17.167 -22.742  0.00  0.00    -0.155 N 
ATOM     25  N   UNL     1      34.283 -17.867 -23.885  0.00  0.00    -0.170 NA
ATOM     26  C   UNL     1      35.052 -17.808 -21.586  0.00  0.00    +0.272 C 
ATOM     27  C   UNL     1      35.252 -19.277 -21.674  0.00  0.00    +0.062 C 
ATOM     28  C   UNL     1      34.459 -19.143 -23.889  0.00  0.00    +0.118 C 
ATOM     29  C   UNL     1      34.969 -19.947 -22.785  0.00  0.00    +0.027 C 
ENDBRANCH  22  24
ENDBRANCH   6  17
TORSDOF 3
ENDMDL
