MODEL 1
REMARK VINA RESULT:     -12.3      0.000      0.000
REMARK  Name = 10430360
REMARK  6 active torsions:
REMARK  status: ('A' for Active; 'I' for Inactive)
REMARK    1  A    between atoms: C_4  and  C_18
REMARK    2  A    between atoms: C_7  and  C_14
REMARK    3  A    between atoms: C_17  and  O_23
REMARK    4  A    between atoms: O_23  and  C_24
REMARK    5  A    between atoms: C_24  and  C_25
REMARK    6  A    between atoms: C_25  and  N_26
REMARK                            x       y       z     vdW  Elec       q    Type
REMARK                         _______ _______ _______ _____ _____    ______ ____
ROOT
ATOM      1  N   UNL     1      33.663 -24.921 -13.318  0.00  0.00    -0.276 N 
ATOM      2  N   UNL     1      34.634 -24.421 -14.101  0.00  0.00    -0.173 NA
ATOM      3  C   UNL     1      32.560 -23.855 -14.885  0.00  0.00    +0.036 A 
ATOM      4  C   UNL     1      33.962 -23.771 -15.057  0.00  0.00    +0.102 A 
ATOM      5  C   UNL     1      32.395 -24.618 -13.735  0.00  0.00    +0.075 A 
ATOM      6  C   UNL     1      31.426 -23.380 -15.565  0.00  0.00    +0.006 C 
ATOM      7  C   UNL     1      30.160 -23.694 -15.054  0.00  0.00    +0.033 C 
ATOM      8  C   UNL     1      31.143 -24.942 -13.209  0.00  0.00    +0.019 C 
ATOM      9  C   UNL     1      30.023 -24.462 -13.896  0.00  0.00    +0.004 C 
ATOM     10  H   UNL     1      33.848 -25.460 -12.515  0.00  0.00    +0.189 HD
ENDROOT
BRANCH   7  14
ATOM     11  N   UNL     1      28.573 -23.707 -16.936  0.00  0.00    -0.218 N 
ATOM     12  N   UNL     1      28.157 -22.281 -15.334  0.00  0.00    -0.206 NA
ATOM     13  N   UNL     1      27.454 -23.095 -17.352  0.00  0.00    -0.157 NA
ATOM     14  C   UNL     1      28.981 -23.216 -15.737  0.00  0.00    +0.149 C 
ATOM     15  C   UNL     1      27.243 -22.241 -16.348  0.00  0.00    +0.218 C 
ATOM     16  H   UNL     1      29.036 -24.419 -17.434  0.00  0.00    +0.176 HD
ENDBRANCH   7  14
BRANCH   4  18
ATOM     17  C   UNL     1      34.735 -22.185 -18.334  0.00  0.00    +0.138 C 
ATOM     18  C   UNL     1      34.669 -23.087 -16.103  0.00  0.00    +0.022 C 
ATOM     19  C   UNL     1      34.044 -22.848 -17.327  0.00  0.00    +0.038 C 
ATOM     20  C   UNL     1      36.043 -21.759 -18.134  0.00  0.00    +0.037 C 
ATOM     21  C   UNL     1      35.981 -22.663 -15.895  0.00  0.00    +0.002 C 
ATOM     22  C   UNL     1      36.668 -21.998 -16.910  0.00  0.00    +0.003 C 
BRANCH  17  23
ATOM     23  O   UNL     1      34.121 -21.948 -19.536  0.00  0.00    -0.478 OA
BRANCH  23  24
ATOM     24  C   UNL     1      33.928 -20.587 -19.901  0.00  0.00    +0.183 C 
BRANCH  24  25
ATOM     25  C   UNL     1      35.032 -20.179 -20.864  0.00  0.00    -0.029 C 
BRANCH  25  26
ATOM     26  N   UNL     1      34.598 -19.059 -21.700  0.00  0.00    +0.389 N 
ATOM     27  C   UNL     1      35.378 -17.853 -21.389  0.00  0.00    -0.077 C 
ATOM     28  C   UNL     1      34.704 -19.409 -23.123  0.00  0.00    -0.077 C 
ATOM     29  C   UNL     1      34.904 -16.660 -22.221  0.00  0.00    -0.023 C 
ATOM     30  C   UNL     1      34.208 -18.267 -24.011  0.00  0.00    -0.023 C 
ATOM     31  C   UNL     1      34.951 -16.969 -23.713  0.00  0.00    -0.004 C 
ATOM     32  H   UNL     1      33.618 -18.860 -21.498  0.00  0.00    -0.080 HD
ENDBRANCH  25  26
ENDBRANCH  24  25
ENDBRANCH  23  24
ENDBRANCH  17  23
ENDBRANCH   4  18
TORSDOF 6
ENDMDL
MODEL 2
REMARK VINA RESULT:     -11.9      1.989      4.680
REMARK  Name = 10430360
REMARK  6 active torsions:
REMARK  status: ('A' for Active; 'I' for Inactive)
REMARK    1  A    between atoms: C_4  and  C_18
REMARK    2  A    between atoms: C_7  and  C_14
REMARK    3  A    between atoms: C_17  and  O_23
REMARK    4  A    between atoms: O_23  and  C_24
REMARK    5  A    between atoms: C_24  and  C_25
REMARK    6  A    between atoms: C_25  and  N_26
REMARK                            x       y       z     vdW  Elec       q    Type
REMARK                         _______ _______ _______ _____ _____    ______ ____
ROOT
ATOM      1  N   UNL     1      31.195 -23.039 -16.600  0.00  0.00    -0.276 N 
ATOM      2  N   UNL     1      31.833 -22.431 -17.615  0.00  0.00    -0.173 NA
ATOM      3  C   UNL     1      33.311 -23.205 -16.048  0.00  0.00    +0.036 A 
ATOM      4  C   UNL     1      33.124 -22.532 -17.278  0.00  0.00    +0.102 A 
ATOM      5  C   UNL     1      32.026 -23.526 -15.627  0.00  0.00    +0.075 A 
ATOM      6  C   UNL     1      34.409 -23.575 -15.252  0.00  0.00    +0.006 C 
ATOM      7  C   UNL     1      34.166 -24.259 -14.054  0.00  0.00    +0.033 C 
ATOM      8  C   UNL     1      31.762 -24.206 -14.436  0.00  0.00    +0.019 C 
ATOM      9  C   UNL     1      32.864 -24.568 -13.655  0.00  0.00    +0.004 C 
ATOM     10  H   UNL     1      30.216 -23.126 -16.561  0.00  0.00    +0.189 HD
ENDROOT
BRANCH   7  14
ATOM     11  N   UNL     1      35.133 -25.026 -11.925  0.00  0.00    -0.218 N 
ATOM     12  N   UNL     1      36.544 -24.694 -13.560  0.00  0.00    -0.206 NA
ATOM     13  N   UNL     1      36.319 -25.335 -11.376  0.00  0.00    -0.157 NA
ATOM     14  C   UNL     1      35.279 -24.647 -13.221  0.00  0.00    +0.149 C 
ATOM     15  C   UNL     1      37.138 -25.117 -12.406  0.00  0.00    +0.218 C 
ATOM     16  H   UNL     1      34.272 -25.069 -11.449  0.00  0.00    +0.176 HD
ENDBRANCH   7  14
BRANCH   4  18
ATOM     17  C   UNL     1      34.773 -20.759 -20.105  0.00  0.00    +0.138 C 
ATOM     18  C   UNL     1      34.141 -21.989 -18.134  0.00  0.00    +0.022 C 
ATOM     19  C   UNL     1      33.782 -21.281 -19.281  0.00  0.00    +0.038 C 
ATOM     20  C   UNL     1      36.117 -20.935 -19.797  0.00  0.00    +0.037 C 
ATOM     21  C   UNL     1      35.487 -22.170 -17.819  0.00  0.00    +0.002 C 
ATOM     22  C   UNL     1      36.476 -21.643 -18.650  0.00  0.00    +0.003 C 
BRANCH  17  23
ATOM     23  O   UNL     1      34.421 -20.062 -21.231  0.00  0.00    -0.478 OA
BRANCH  23  24
ATOM     24  C   UNL     1      34.992 -18.770 -21.390  0.00  0.00    +0.183 C 
BRANCH  24  25
ATOM     25  C   UNL     1      35.560 -18.657 -22.796  0.00  0.00    -0.029 C 
BRANCH  25  26
ATOM     26  N   UNL     1      35.308 -17.326 -23.349  0.00  0.00    +0.389 N 
ATOM     27  C   UNL     1      34.315 -17.398 -24.430  0.00  0.00    -0.077 C 
ATOM     28  C   UNL     1      34.875 -16.403 -22.290  0.00  0.00    -0.077 C 
ATOM     29  C   UNL     1      34.076 -16.021 -25.051  0.00  0.00    -0.023 C 
ATOM     30  C   UNL     1      34.655 -14.994 -22.842  0.00  0.00    -0.023 C 
ATOM     31  C   UNL     1      33.661 -15.000 -23.998  0.00  0.00    -0.004 C 
ATOM     32  H   UNL     1      36.177 -16.966 -23.743  0.00  0.00    -0.080 HD
ENDBRANCH  25  26
ENDBRANCH  24  25
ENDBRANCH  23  24
ENDBRANCH  17  23
ENDBRANCH   4  18
TORSDOF 6
ENDMDL
MODEL 3
REMARK VINA RESULT:     -11.7      3.129      6.206
REMARK  Name = 10430360
REMARK  6 active torsions:
REMARK  status: ('A' for Active; 'I' for Inactive)
REMARK    1  A    between atoms: C_4  and  C_18
REMARK    2  A    between atoms: C_7  and  C_14
REMARK    3  A    between atoms: C_17  and  O_23
REMARK    4  A    between atoms: O_23  and  C_24
REMARK    5  A    between atoms: C_24  and  C_25
REMARK    6  A    between atoms: C_25  and  N_26
REMARK                            x       y       z     vdW  Elec       q    Type
REMARK                         _______ _______ _______ _____ _____    ______ ____
ROOT
ATOM      1  N   UNL     1      32.192 -21.594 -19.279  0.00  0.00    -0.276 N 
ATOM      2  N   UNL     1      32.778 -20.803 -20.194  0.00  0.00    -0.173 NA
ATOM      3  C   UNL     1      34.306 -21.609 -18.694  0.00  0.00    +0.036 A 
ATOM      4  C   UNL     1      34.067 -20.812 -19.837  0.00  0.00    +0.102 A 
ATOM      5  C   UNL     1      33.055 -22.109 -18.349  0.00  0.00    +0.075 A 
ATOM      6  C   UNL     1      35.424 -21.960 -17.918  0.00  0.00    +0.006 C 
ATOM      7  C   UNL     1      35.237 -22.808 -16.819  0.00  0.00    +0.033 C 
ATOM      8  C   UNL     1      32.847 -22.955 -17.257  0.00  0.00    +0.019 C 
ATOM      9  C   UNL     1      33.970 -23.295 -16.496  0.00  0.00    +0.004 C 
ATOM     10  H   UNL     1      31.227 -21.785 -19.277  0.00  0.00    +0.189 HD
ENDROOT
BRANCH   7  14
ATOM     11  N   UNL     1      37.600 -22.617 -16.155  0.00  0.00    -0.218 N 
ATOM     12  N   UNL     1      36.403 -24.075 -15.052  0.00  0.00    -0.206 NA
ATOM     13  N   UNL     1      38.476 -23.139 -15.283  0.00  0.00    -0.157 NA
ATOM     14  C   UNL     1      36.372 -23.180 -16.009  0.00  0.00    +0.149 C 
ATOM     15  C   UNL     1      37.703 -24.015 -14.640  0.00  0.00    +0.218 C 
ATOM     16  H   UNL     1      37.818 -21.918 -16.813  0.00  0.00    +0.176 HD
ENDBRANCH   7  14
BRANCH   4  18
ATOM     17  C   UNL     1      35.616 -18.777 -22.541  0.00  0.00    +0.138 C 
ATOM     18  C   UNL     1      35.033 -20.067 -20.594  0.00  0.00    +0.022 C 
ATOM     19  C   UNL     1      34.675 -19.497 -21.815  0.00  0.00    +0.038 C 
ATOM     20  C   UNL     1      36.912 -18.619 -22.062  0.00  0.00    +0.037 C 
ATOM     21  C   UNL     1      36.331 -19.913 -20.107  0.00  0.00    +0.002 C 
ATOM     22  C   UNL     1      37.271 -19.189 -20.840  0.00  0.00    +0.003 C 
BRANCH  17  23
ATOM     23  O   UNL     1      35.264 -18.216 -23.741  0.00  0.00    -0.478 OA
BRANCH  23  24
ATOM     24  C   UNL     1      34.296 -17.175 -23.702  0.00  0.00    +0.183 C 
BRANCH  24  25
ATOM     25  C   UNL     1      34.981 -15.860 -24.038  0.00  0.00    -0.029 C 
BRANCH  25  26
ATOM     26  N   UNL     1      34.570 -14.811 -23.105  0.00  0.00    +0.389 N 
ATOM     27  C   UNL     1      33.286 -14.227 -23.519  0.00  0.00    -0.077 C 
ATOM     28  C   UNL     1      34.496 -15.341 -21.736  0.00  0.00    -0.077 C 
ATOM     29  C   UNL     1      32.866 -13.096 -22.580  0.00  0.00    -0.023 C 
ATOM     30  C   UNL     1      34.116 -14.245 -20.739  0.00  0.00    -0.023 C 
ATOM     31  C   UNL     1      32.807 -13.568 -21.132  0.00  0.00    -0.004 C 
ATOM     32  H   UNL     1      35.271 -14.069 -23.116  0.00  0.00    -0.080 HD
ENDBRANCH  25  26
ENDBRANCH  24  25
ENDBRANCH  23  24
ENDBRANCH  17  23
ENDBRANCH   4  18
TORSDOF 6
ENDMDL
MODEL 4
REMARK VINA RESULT:     -11.6      2.472      3.950
REMARK  Name = 10430360
REMARK  6 active torsions:
REMARK  status: ('A' for Active; 'I' for Inactive)
REMARK    1  A    between atoms: C_4  and  C_18
REMARK    2  A    between atoms: C_7  and  C_14
REMARK    3  A    between atoms: C_17  and  O_23
REMARK    4  A    between atoms: O_23  and  C_24
REMARK    5  A    between atoms: C_24  and  C_25
REMARK    6  A    between atoms: C_25  and  N_26
REMARK                            x       y       z     vdW  Elec       q    Type
REMARK                         _______ _______ _______ _____ _____    ______ ____
ROOT
ATOM      1  N   UNL     1      37.612 -23.003 -15.864  0.00  0.00    -0.276 N 
ATOM      2  N   UNL     1      37.302 -22.406 -17.028  0.00  0.00    -0.173 NA
ATOM      3  C   UNL     1      35.419 -22.998 -15.870  0.00  0.00    +0.036 A 
ATOM      4  C   UNL     1      35.964 -22.403 -17.032  0.00  0.00    +0.102 A 
ATOM      5  C   UNL     1      36.526 -23.383 -15.122  0.00  0.00    +0.075 A 
ATOM      6  C   UNL     1      34.130 -23.252 -15.372  0.00  0.00    +0.006 C 
ATOM      7  C   UNL     1      34.006 -23.889 -14.131  0.00  0.00    +0.033 C 
ATOM      8  C   UNL     1      36.424 -24.018 -13.883  0.00  0.00    +0.019 C 
ATOM      9  C   UNL     1      35.135 -24.264 -13.401  0.00  0.00    +0.004 C 
ATOM     10  H   UNL     1      38.539 -23.154 -15.571  0.00  0.00    +0.189 HD
ENDROOT
BRANCH   7  14
ATOM     11  N   UNL     1      31.950 -23.227 -12.949  0.00  0.00    -0.218 N 
ATOM     12  N   UNL     1      32.032 -25.292 -13.658  0.00  0.00    -0.206 NA
ATOM     13  N   UNL     1      30.771 -23.734 -12.558  0.00  0.00    -0.157 NA
ATOM     14  C   UNL     1      32.690 -24.161 -13.601  0.00  0.00    +0.149 C 
ATOM     15  C   UNL     1      30.870 -24.985 -13.011  0.00  0.00    +0.218 C 
ATOM     16  H   UNL     1      32.239 -22.301 -12.785  0.00  0.00    +0.176 HD
ENDBRANCH   7  14
BRANCH   4  18
ATOM     17  C   UNL     1      35.203 -20.478 -20.124  0.00  0.00    +0.138 C 
ATOM     18  C   UNL     1      35.244 -21.834 -18.136  0.00  0.00    +0.022 C 
ATOM     19  C   UNL     1      35.907 -21.024 -19.058  0.00  0.00    +0.038 C 
ATOM     20  C   UNL     1      33.845 -20.730 -20.281  0.00  0.00    +0.037 C 
ATOM     21  C   UNL     1      33.882 -22.092 -18.286  0.00  0.00    +0.002 C 
ATOM     22  C   UNL     1      33.182 -21.540 -19.359  0.00  0.00    +0.003 C 
BRANCH  17  23
ATOM     23  O   UNL     1      35.854 -19.683 -21.031  0.00  0.00    -0.478 OA
BRANCH  23  24
ATOM     24  C   UNL     1      35.085 -18.666 -21.661  0.00  0.00    +0.183 C 
BRANCH  24  25
ATOM     25  C   UNL     1      35.631 -18.438 -23.061  0.00  0.00    -0.029 C 
BRANCH  25  26
ATOM     26  N   UNL     1      35.278 -17.102 -23.541  0.00  0.00    +0.389 N 
ATOM     27  C   UNL     1      34.224 -17.183 -24.563  0.00  0.00    -0.077 C 
ATOM     28  C   UNL     1      34.866 -16.245 -22.420  0.00  0.00    -0.077 C 
ATOM     29  C   UNL     1      33.878 -15.798 -25.109  0.00  0.00    -0.023 C 
ATOM     30  C   UNL     1      34.541 -14.829 -22.898  0.00  0.00    -0.023 C 
ATOM     31  C   UNL     1      33.478 -14.843 -23.991  0.00  0.00    -0.004 C 
ATOM     32  H   UNL     1      36.101 -16.681 -23.972  0.00  0.00    -0.080 HD
ENDBRANCH  25  26
ENDBRANCH  24  25
ENDBRANCH  23  24
ENDBRANCH  17  23
ENDBRANCH   4  18
TORSDOF 6
ENDMDL
MODEL 5
REMARK VINA RESULT:     -11.5      3.285      5.984
REMARK  Name = 10430360
REMARK  6 active torsions:
REMARK  status: ('A' for Active; 'I' for Inactive)
REMARK    1  A    between atoms: C_4  and  C_18
REMARK    2  A    between atoms: C_7  and  C_14
REMARK    3  A    between atoms: C_17  and  O_23
REMARK    4  A    between atoms: O_23  and  C_24
REMARK    5  A    between atoms: C_24  and  C_25
REMARK    6  A    between atoms: C_25  and  N_26
REMARK                            x       y       z     vdW  Elec       q    Type
REMARK                         _______ _______ _______ _____ _____    ______ ____
ROOT
ATOM      1  N   UNL     1      32.581 -24.909 -13.672  0.00  0.00    -0.276 N 
ATOM      2  N   UNL     1      33.577 -24.474 -14.463  0.00  0.00    -0.173 NA
ATOM      3  C   UNL     1      31.540 -23.762 -15.225  0.00  0.00    +0.036 A 
ATOM      4  C   UNL     1      32.942 -23.775 -15.411  0.00  0.00    +0.102 A 
ATOM      5  C   UNL     1      31.333 -24.516 -14.075  0.00  0.00    +0.075 A 
ATOM      6  C   UNL     1      30.434 -23.207 -15.891  0.00  0.00    +0.006 C 
ATOM      7  C   UNL     1      29.155 -23.433 -15.368  0.00  0.00    +0.033 C 
ATOM      8  C   UNL     1      30.067 -24.754 -13.537  0.00  0.00    +0.019 C 
ATOM      9  C   UNL     1      28.977 -24.194 -14.211  0.00  0.00    +0.004 C 
ATOM     10  H   UNL     1      32.737 -25.462 -12.873  0.00  0.00    +0.189 HD
ENDROOT
BRANCH   7  14
ATOM     11  N   UNL     1      26.935 -22.370 -15.369  0.00  0.00    -0.218 N 
ATOM     12  N   UNL     1      27.816 -22.763 -17.329  0.00  0.00    -0.206 NA
ATOM     13  N   UNL     1      26.005 -21.913 -16.222  0.00  0.00    -0.157 NA
ATOM     14  C   UNL     1      28.005 -22.872 -16.037  0.00  0.00    +0.149 C 
ATOM     15  C   UNL     1      26.586 -22.173 -17.394  0.00  0.00    +0.218 C 
ATOM     16  H   UNL     1      26.851 -22.344 -14.388  0.00  0.00    +0.176 HD
ENDBRANCH   7  14
BRANCH   4  18
ATOM     17  C   UNL     1      35.725 -22.154 -17.275  0.00  0.00    +0.138 C 
ATOM     18  C   UNL     1      33.684 -23.138 -16.462  0.00  0.00    +0.022 C 
ATOM     19  C   UNL     1      35.013 -22.769 -16.252  0.00  0.00    +0.038 C 
ATOM     20  C   UNL     1      35.126 -21.901 -18.504  0.00  0.00    +0.037 C 
ATOM     21  C   UNL     1      33.076 -22.889 -17.692  0.00  0.00    +0.002 C 
ATOM     22  C   UNL     1      33.797 -22.270 -18.714  0.00  0.00    +0.003 C 
BRANCH  17  23
ATOM     23  O   UNL     1      37.031 -21.792 -17.071  0.00  0.00    -0.478 OA
BRANCH  23  24
ATOM     24  C   UNL     1      37.555 -21.994 -15.765  0.00  0.00    +0.183 C 
BRANCH  24  25
ATOM     25  C   UNL     1      38.413 -23.248 -15.771  0.00  0.00    -0.029 C 
BRANCH  25  26
ATOM     26  N   UNL     1      37.936 -24.205 -14.772  0.00  0.00    +0.389 N 
ATOM     27  C   UNL     1      39.040 -25.057 -14.307  0.00  0.00    -0.077 C 
ATOM     28  C   UNL     1      37.298 -23.501 -13.651  0.00  0.00    -0.077 C 
ATOM     29  C   UNL     1      38.548 -26.094 -13.297  0.00  0.00    -0.023 C 
ATOM     30  C   UNL     1      36.749 -24.489 -12.620  0.00  0.00    -0.023 C 
ATOM     31  C   UNL     1      37.838 -25.432 -12.121  0.00  0.00    -0.004 C 
ATOM     32  H   UNL     1      37.235 -24.807 -15.204  0.00  0.00    -0.080 HD
ENDBRANCH  25  26
ENDBRANCH  24  25
ENDBRANCH  23  24
ENDBRANCH  17  23
ENDBRANCH   4  18
TORSDOF 6
ENDMDL
MODEL 6
REMARK VINA RESULT:     -11.1      2.970      6.081
REMARK  Name = 10430360
REMARK  6 active torsions:
REMARK  status: ('A' for Active; 'I' for Inactive)
REMARK    1  A    between atoms: C_4  and  C_18
REMARK    2  A    between atoms: C_7  and  C_14
REMARK    3  A    between atoms: C_17  and  O_23
REMARK    4  A    between atoms: O_23  and  C_24
REMARK    5  A    between atoms: C_24  and  C_25
REMARK    6  A    between atoms: C_25  and  N_26
REMARK                            x       y       z     vdW  Elec       q    Type
REMARK                         _______ _______ _______ _____ _____    ______ ____
ROOT
ATOM      1  N   UNL     1      33.832 -24.212 -11.560  0.00  0.00    -0.276 N 
ATOM      2  N   UNL     1      33.091 -23.789 -12.599  0.00  0.00    -0.173 NA
ATOM      3  C   UNL     1      35.219 -24.315 -13.256  0.00  0.00    +0.036 A 
ATOM      4  C   UNL     1      33.938 -23.852 -13.634  0.00  0.00    +0.102 A 
ATOM      5  C   UNL     1      35.119 -24.543 -11.888  0.00  0.00    +0.075 A 
ATOM      6  C   UNL     1      36.440 -24.564 -13.907  0.00  0.00    +0.006 C 
ATOM      7  C   UNL     1      37.518 -25.037 -13.149  0.00  0.00    +0.033 C 
ATOM      8  C   UNL     1      36.182 -25.013 -11.114  0.00  0.00    +0.019 C 
ATOM      9  C   UNL     1      37.390 -25.257 -11.777  0.00  0.00    +0.004 C 
ATOM     10  H   UNL     1      33.479 -24.277 -10.644  0.00  0.00    +0.189 HD
ENDROOT
BRANCH   7  14
ATOM     11  N   UNL     1      39.472 -26.456 -13.629  0.00  0.00    -0.218 N 
ATOM     12  N   UNL     1      39.432 -24.505 -14.612  0.00  0.00    -0.206 NA
ATOM     13  N   UNL     1      40.610 -26.446 -14.340  0.00  0.00    -0.157 NA
ATOM     14  C   UNL     1      38.781 -25.299 -13.798  0.00  0.00    +0.149 C 
ATOM     15  C   UNL     1      40.539 -25.245 -14.916  0.00  0.00    +0.218 C 
ATOM     16  H   UNL     1      39.177 -27.204 -13.061  0.00  0.00    +0.176 HD
ENDBRANCH   7  14
BRANCH   4  18
ATOM     17  C   UNL     1      34.009 -22.952 -17.244  0.00  0.00    +0.138 C 
ATOM     18  C   UNL     1      33.504 -23.473 -14.949  0.00  0.00    +0.022 C 
ATOM     19  C   UNL     1      34.438 -23.318 -15.974  0.00  0.00    +0.038 C 
ATOM     20  C   UNL     1      32.660 -22.737 -17.504  0.00  0.00    +0.037 C 
ATOM     21  C   UNL     1      32.150 -23.259 -15.201  0.00  0.00    +0.002 C 
ATOM     22  C   UNL     1      31.727 -22.892 -16.479  0.00  0.00    +0.003 C 
BRANCH  17  23
ATOM     23  O   UNL     1      34.926 -22.801 -18.252  0.00  0.00    -0.478 OA
BRANCH  23  24
ATOM     24  C   UNL     1      34.640 -21.815 -19.236  0.00  0.00    +0.183 C 
BRANCH  24  25
ATOM     25  C   UNL     1      35.880 -20.961 -19.446  0.00  0.00    -0.029 C 
BRANCH  25  26
ATOM     26  N   UNL     1      35.819 -20.270 -20.734  0.00  0.00    +0.389 N 
ATOM     27  C   UNL     1      34.460 -19.773 -20.987  0.00  0.00    -0.077 C 
ATOM     28  C   UNL     1      36.802 -19.179 -20.779  0.00  0.00    -0.077 C 
ATOM     29  C   UNL     1      34.368 -19.090 -22.352  0.00  0.00    -0.023 C 
ATOM     30  C   UNL     1      36.785 -18.477 -22.138  0.00  0.00    -0.023 C 
ATOM     31  C   UNL     1      35.390 -17.967 -22.482  0.00  0.00    -0.004 C 
ATOM     32  H   UNL     1      36.054 -20.934 -21.473  0.00  0.00    -0.080 HD
ENDBRANCH  25  26
ENDBRANCH  24  25
ENDBRANCH  23  24
ENDBRANCH  17  23
ENDBRANCH   4  18
TORSDOF 6
ENDMDL
MODEL 7
REMARK VINA RESULT:     -10.6      7.550     12.354
REMARK  Name = 10430360
REMARK  6 active torsions:
REMARK  status: ('A' for Active; 'I' for Inactive)
REMARK    1  A    between atoms: C_4  and  C_18
REMARK    2  A    between atoms: C_7  and  C_14
REMARK    3  A    between atoms: C_17  and  O_23
REMARK    4  A    between atoms: O_23  and  C_24
REMARK    5  A    between atoms: C_24  and  C_25
REMARK    6  A    between atoms: C_25  and  N_26
REMARK                            x       y       z     vdW  Elec       q    Type
REMARK                         _______ _______ _______ _____ _____    ______ ____
ROOT
ATOM      1  N   UNL     1      33.071 -14.302 -25.372  0.00  0.00    -0.276 N 
ATOM      2  N   UNL     1      32.540 -13.370 -24.562  0.00  0.00    -0.173 NA
ATOM      3  C   UNL     1      33.744 -14.912 -23.375  0.00  0.00    +0.036 A 
ATOM      4  C   UNL     1      32.950 -13.742 -23.344  0.00  0.00    +0.102 A 
ATOM      5  C   UNL     1      33.805 -15.257 -24.720  0.00  0.00    +0.075 A 
ATOM      6  C   UNL     1      34.410 -15.710 -22.429  0.00  0.00    +0.006 C 
ATOM      7  C   UNL     1      35.116 -16.832 -22.880  0.00  0.00    +0.033 C 
ATOM      8  C   UNL     1      34.503 -16.371 -25.190  0.00  0.00    +0.019 C 
ATOM      9  C   UNL     1      35.161 -17.155 -24.237  0.00  0.00    +0.004 C 
ATOM     10  H   UNL     1      32.942 -14.299 -26.347  0.00  0.00    +0.189 HD
ENDROOT
BRANCH   7  14
ATOM     11  N   UNL     1      36.997 -18.263 -22.191  0.00  0.00    -0.218 N 
ATOM     12  N   UNL     1      35.417 -17.969 -20.710  0.00  0.00    -0.206 NA
ATOM     13  N   UNL     1      37.422 -18.981 -21.140  0.00  0.00    -0.157 NA
ATOM     14  C   UNL     1      35.807 -17.666 -21.924  0.00  0.00    +0.149 C 
ATOM     15  C   UNL     1      36.432 -18.771 -20.271  0.00  0.00    +0.218 C 
ATOM     16  H   UNL     1      37.485 -18.179 -23.041  0.00  0.00    +0.176 HD
ENDBRANCH   7  14
BRANCH   4  18
ATOM     17  C   UNL     1      31.901 -10.888 -21.199  0.00  0.00    +0.138 C 
ATOM     18  C   UNL     1      32.579 -12.974 -22.189  0.00  0.00    +0.022 C 
ATOM     19  C   UNL     1      32.260 -11.623 -22.322  0.00  0.00    +0.038 C 
ATOM     20  C   UNL     1      31.857 -11.485 -19.944  0.00  0.00    +0.037 C 
ATOM     21  C   UNL     1      32.538 -13.580 -20.934  0.00  0.00    +0.002 C 
ATOM     22  C   UNL     1      32.177 -12.836 -19.811  0.00  0.00    +0.003 C 
BRANCH  17  23
ATOM     23  O   UNL     1      31.585  -9.560 -21.329  0.00  0.00    -0.478 OA
BRANCH  23  24
ATOM     24  C   UNL     1      32.314  -8.820 -22.301  0.00  0.00    +0.183 C 
BRANCH  24  25
ATOM     25  C   UNL     1      33.124  -7.748 -21.591  0.00  0.00    -0.029 C 
BRANCH  25  26
ATOM     26  N   UNL     1      33.515  -6.693 -22.527  0.00  0.00    +0.389 N 
ATOM     27  C   UNL     1      34.605  -7.156 -23.398  0.00  0.00    -0.077 C 
ATOM     28  C   UNL     1      32.357  -6.249 -23.315  0.00  0.00    -0.077 C 
ATOM     29  C   UNL     1      35.059  -6.049 -24.350  0.00  0.00    -0.023 C 
ATOM     30  C   UNL     1      32.738  -5.112 -24.264  0.00  0.00    -0.023 C 
ATOM     31  C   UNL     1      33.894  -5.513 -25.174  0.00  0.00    -0.004 C 
ATOM     32  H   UNL     1      33.857  -5.893 -21.994  0.00  0.00    -0.080 HD
ENDBRANCH  25  26
ENDBRANCH  24  25
ENDBRANCH  23  24
ENDBRANCH  17  23
ENDBRANCH   4  18
TORSDOF 6
ENDMDL
MODEL 8
REMARK VINA RESULT:     -10.2      7.527     11.906
REMARK  Name = 10430360
REMARK  6 active torsions:
REMARK  status: ('A' for Active; 'I' for Inactive)
REMARK    1  A    between atoms: C_4  and  C_18
REMARK    2  A    between atoms: C_7  and  C_14
REMARK    3  A    between atoms: C_17  and  O_23
REMARK    4  A    between atoms: O_23  and  C_24
REMARK    5  A    between atoms: C_24  and  C_25
REMARK    6  A    between atoms: C_25  and  N_26
REMARK                            x       y       z     vdW  Elec       q    Type
REMARK                         _______ _______ _______ _____ _____    ______ ____
ROOT
ATOM      1  N   UNL     1      32.415 -16.737 -25.875  0.00  0.00    -0.276 N 
ATOM      2  N   UNL     1      32.336 -15.401 -25.750  0.00  0.00    -0.173 NA
ATOM      3  C   UNL     1      33.766 -16.298 -24.204  0.00  0.00    +0.036 A 
ATOM      4  C   UNL     1      33.161 -15.134 -24.730  0.00  0.00    +0.102 A 
ATOM      5  C   UNL     1      33.257 -17.336 -24.977  0.00  0.00    +0.075 A 
ATOM      6  C   UNL     1      34.677 -16.590 -23.174  0.00  0.00    +0.006 C 
ATOM      7  C   UNL     1      35.040 -17.926 -22.962  0.00  0.00    +0.033 C 
ATOM      8  C   UNL     1      33.606 -18.674 -24.781  0.00  0.00    +0.019 C 
ATOM      9  C   UNL     1      34.513 -18.948 -23.752  0.00  0.00    +0.004 C 
ATOM     10  H   UNL     1      31.911 -17.240 -26.554  0.00  0.00    +0.189 HD
ENDROOT
BRANCH   7  14
ATOM     11  N   UNL     1      37.285 -18.513 -22.139  0.00  0.00    -0.218 N 
ATOM     12  N   UNL     1      35.720 -18.334 -20.625  0.00  0.00    -0.206 NA
ATOM     13  N   UNL     1      37.932 -18.782 -20.995  0.00  0.00    -0.157 NA
ATOM     14  C   UNL     1      35.974 -18.248 -21.908  0.00  0.00    +0.149 C 
ATOM     15  C   UNL     1      36.942 -18.662 -20.109  0.00  0.00    +0.218 C 
ATOM     16  H   UNL     1      37.707 -18.506 -23.029  0.00  0.00    +0.176 HD
ENDBRANCH   7  14
BRANCH   4  18
ATOM     17  C   UNL     1      33.065 -12.072 -22.617  0.00  0.00    +0.138 C 
ATOM     18  C   UNL     1      33.350 -13.781 -24.288  0.00  0.00    +0.022 C 
ATOM     19  C   UNL     1      32.877 -13.383 -23.037  0.00  0.00    +0.038 C 
ATOM     20  C   UNL     1      33.719 -11.152 -23.430  0.00  0.00    +0.037 C 
ATOM     21  C   UNL     1      34.007 -12.865 -25.109  0.00  0.00    +0.002 C 
ATOM     22  C   UNL     1      34.192 -11.551 -24.680  0.00  0.00    +0.003 C 
BRANCH  17  23
ATOM     23  O   UNL     1      32.601 -11.680 -21.388  0.00  0.00    -0.478 OA
BRANCH  23  24
ATOM     24  C   UNL     1      31.510 -10.768 -21.375  0.00  0.00    +0.183 C 
BRANCH  24  25
ATOM     25  C   UNL     1      31.831  -9.637 -20.411  0.00  0.00    -0.029 C 
BRANCH  25  26
ATOM     26  N   UNL     1      31.574  -8.339 -21.036  0.00  0.00    +0.389 N 
ATOM     27  C   UNL     1      32.590  -7.360 -20.624  0.00  0.00    -0.077 C 
ATOM     28  C   UNL     1      31.528  -8.473 -22.499  0.00  0.00    -0.077 C 
ATOM     29  C   UNL     1      32.308  -5.985 -21.230  0.00  0.00    -0.023 C 
ATOM     30  C   UNL     1      31.211  -7.134 -23.166  0.00  0.00    -0.023 C 
ATOM     31  C   UNL     1      32.208  -6.057 -22.750  0.00  0.00    -0.004 C 
ATOM     32  H   UNL     1      30.664  -7.999 -20.723  0.00  0.00    -0.080 HD
ENDBRANCH  25  26
ENDBRANCH  24  25
ENDBRANCH  23  24
ENDBRANCH  17  23
ENDBRANCH   4  18
TORSDOF 6
ENDMDL
MODEL 9
REMARK VINA RESULT:     -10.0      3.671      7.812
REMARK  Name = 10430360
REMARK  6 active torsions:
REMARK  status: ('A' for Active; 'I' for Inactive)
REMARK    1  A    between atoms: C_4  and  C_18
REMARK    2  A    between atoms: C_7  and  C_14
REMARK    3  A    between atoms: C_17  and  O_23
REMARK    4  A    between atoms: O_23  and  C_24
REMARK    5  A    between atoms: C_24  and  C_25
REMARK    6  A    between atoms: C_25  and  N_26
REMARK                            x       y       z     vdW  Elec       q    Type
REMARK                         _______ _______ _______ _____ _____    ______ ____
ROOT
ATOM      1  N   UNL     1      37.876 -18.685 -21.425  0.00  0.00    -0.276 N 
ATOM      2  N   UNL     1      37.221 -18.150 -22.470  0.00  0.00    -0.173 NA
ATOM      3  C   UNL     1      35.836 -19.461 -21.207  0.00  0.00    +0.036 A 
ATOM      4  C   UNL     1      35.977 -18.623 -22.337  0.00  0.00    +0.102 A 
ATOM      5  C   UNL     1      37.100 -19.483 -20.628  0.00  0.00    +0.075 A 
ATOM      6  C   UNL     1      34.795 -20.196 -20.614  0.00  0.00    +0.006 C 
ATOM      7  C   UNL     1      35.071 -20.929 -19.453  0.00  0.00    +0.033 C 
ATOM      8  C   UNL     1      37.396 -20.208 -19.472  0.00  0.00    +0.019 C 
ATOM      9  C   UNL     1      36.350 -20.934 -18.893  0.00  0.00    +0.004 C 
ATOM     10  H   UNL     1      38.829 -18.518 -21.250  0.00  0.00    +0.189 HD
ENDROOT
BRANCH   7  14
ATOM     11  N   UNL     1      32.706 -21.345 -18.911  0.00  0.00    -0.218 N 
ATOM     12  N   UNL     1      34.144 -22.784 -18.116  0.00  0.00    -0.206 NA
ATOM     13  N   UNL     1      31.933 -22.217 -18.245  0.00  0.00    -0.157 NA
ATOM     14  C   UNL     1      34.016 -21.692 -18.828  0.00  0.00    +0.149 C 
ATOM     15  C   UNL     1      32.851 -23.067 -17.782  0.00  0.00    +0.218 C 
ATOM     16  H   UNL     1      32.367 -20.559 -19.397  0.00  0.00    +0.176 HD
ENDBRANCH   7  14
BRANCH   4  18
ATOM     17  C   UNL     1      33.919 -16.627 -24.710  0.00  0.00    +0.138 C 
ATOM     18  C   UNL     1      34.960 -18.264 -23.284  0.00  0.00    +0.022 C 
ATOM     19  C   UNL     1      34.907 -16.966 -23.793  0.00  0.00    +0.038 C 
ATOM     20  C   UNL     1      32.983 -17.567 -25.125  0.00  0.00    +0.037 C 
ATOM     21  C   UNL     1      34.025 -19.213 -23.696  0.00  0.00    +0.002 C 
ATOM     22  C   UNL     1      33.036 -18.865 -24.617  0.00  0.00    +0.003 C 
BRANCH  17  23
ATOM     23  O   UNL     1      33.867 -15.352 -25.211  0.00  0.00    -0.478 OA
BRANCH  23  24
ATOM     24  C   UNL     1      33.023 -14.430 -24.532  0.00  0.00    +0.183 C 
BRANCH  24  25
ATOM     25  C   UNL     1      33.882 -13.324 -23.943  0.00  0.00    -0.029 C 
BRANCH  25  26
ATOM     26  N   UNL     1      33.611 -13.166 -22.514  0.00  0.00    +0.389 N 
ATOM     27  C   UNL     1      32.205 -12.799 -22.295  0.00  0.00    -0.077 C 
ATOM     28  C   UNL     1      33.960 -14.393 -21.786  0.00  0.00    -0.077 C 
ATOM     29  C   UNL     1      31.917 -12.582 -20.809  0.00  0.00    -0.023 C 
ATOM     30  C   UNL     1      33.729 -14.228 -20.283  0.00  0.00    -0.023 C 
ATOM     31  C   UNL     1      32.294 -13.809 -19.985  0.00  0.00    -0.004 C 
ATOM     32  H   UNL     1      34.193 -12.410 -22.152  0.00  0.00    -0.080 HD
ENDBRANCH  25  26
ENDBRANCH  24  25
ENDBRANCH  23  24
ENDBRANCH  17  23
ENDBRANCH   4  18
TORSDOF 6
ENDMDL
