MODEL 1
REMARK VINA RESULT:     -11.4      0.000      0.000
REMARK  Name = 60795
REMARK  7 active torsions:
REMARK  status: ('A' for Active; 'I' for Inactive)
REMARK    1  A    between atoms: C_1  and  N_2
REMARK    2  A    between atoms: C_1  and  C_17
REMARK    3  A    between atoms: N_3  and  C_11
REMARK    4  A    between atoms: C_17  and  C_18
REMARK    5  A    between atoms: C_18  and  C_19
REMARK    6  A    between atoms: C_19  and  O_20
REMARK    7  A    between atoms: O_20  and  C_26
REMARK                            x       y       z     vdW  Elec       q    Type
REMARK                         _______ _______ _______ _____ _____    ______ ____
ROOT
ATOM      1  C   UNL     1      34.317 -15.882 -24.173  0.00  0.00    -0.077 C 
ENDROOT
BRANCH   1   2
ATOM      2  N   UNL     1      34.917 -16.958 -23.386  0.00  0.00    +0.389 N 
ATOM      3  N   UNL     1      34.981 -19.019 -21.408  0.00  0.00    -0.311 N 
ATOM      4  C   UNL     1      34.911 -16.617 -21.958  0.00  0.00    -0.055 C 
ATOM      5  C   UNL     1      34.195 -18.218 -23.602  0.00  0.00    -0.055 C 
ATOM      6  C   UNL     1      35.587 -17.711 -21.129  0.00  0.00    +0.068 C 
ATOM      7  C   UNL     1      34.847 -19.366 -22.826  0.00  0.00    +0.068 C 
ATOM      8  H   UNL     1      35.882 -17.076 -23.692  0.00  0.00    -0.080 HD
BRANCH   3  11
ATOM      9 CL   UNL     1      32.442 -20.268 -20.382  0.00  0.00    -0.080 Cl
ATOM     10 CL   UNL     1      32.925 -22.578 -18.206  0.00  0.00    -0.081 Cl
ATOM     11  C   UNL     1      35.138 -20.033 -20.458  0.00  0.00    +0.059 C 
ATOM     12  C   UNL     1      34.043 -20.714 -19.881  0.00  0.00    +0.081 C 
ATOM     13  C   UNL     1      36.434 -20.405 -20.045  0.00  0.00    +0.015 C 
ATOM     14  C   UNL     1      34.238 -21.720 -18.934  0.00  0.00    +0.069 C 
ATOM     15  C   UNL     1      36.629 -21.411 -19.099  0.00  0.00    +0.002 C 
ATOM     16  C   UNL     1      35.531 -22.069 -18.544  0.00  0.00    +0.012 C 
ENDBRANCH   3  11
ENDBRANCH   1   2
BRANCH   1  17
ATOM     17  C   UNL     1      34.434 -14.552 -23.430  0.00  0.00    -0.019 C 
BRANCH  17  18
ATOM     18  C   UNL     1      33.064 -13.903 -23.238  0.00  0.00    +0.045 C 
BRANCH  18  19
ATOM     19  C   UNL     1      32.860 -13.431 -21.805  0.00  0.00    +0.205 C 
BRANCH  19  20
ATOM     20  O   UNL     1      31.666 -12.656 -21.716  0.00  0.00    -0.475 OA
BRANCH  20  26
ATOM     21  O   UNL     1      32.925  -5.795 -23.055  0.00  0.00    -0.275 OA
ATOM     22  N   UNL     1      32.568  -8.017 -22.600  0.00  0.00    -0.284 N 
ATOM     23  C   UNL     1      32.043  -8.748 -20.340  0.00  0.00    -0.008 C 
ATOM     24  C   UNL     1      32.288  -7.350 -19.850  0.00  0.00    +0.037 C 
ATOM     25  C   UNL     1      32.231  -9.042 -21.697  0.00  0.00    +0.049 C 
ATOM     26  C   UNL     1      31.790 -11.376 -21.268  0.00  0.00    +0.140 C 
ATOM     27  C   UNL     1      31.953  -6.331 -20.929  0.00  0.00    +0.090 C 
ATOM     28  C   UNL     1      32.115 -10.355 -22.160  0.00  0.00    +0.051 C 
ATOM     29  C   UNL     1      31.731  -9.782 -19.452  0.00  0.00    +0.000 C 
ATOM     30  C   UNL     1      31.596 -11.091 -19.917  0.00  0.00    +0.037 C 
ATOM     31  C   UNL     1      32.559  -6.675 -22.276  0.00  0.00    +0.226 C 
ATOM     32  H   UNL     1      32.825  -8.273 -23.516  0.00  0.00    +0.155 HD
ENDBRANCH  20  26
ENDBRANCH  19  20
ENDBRANCH  18  19
ENDBRANCH  17  18
ENDBRANCH   1  17
TORSDOF 7
ENDMDL
MODEL 2
REMARK VINA RESULT:     -11.3      1.656      2.129
REMARK  Name = 60795
REMARK  7 active torsions:
REMARK  status: ('A' for Active; 'I' for Inactive)
REMARK    1  A    between atoms: C_1  and  N_2
REMARK    2  A    between atoms: C_1  and  C_17
REMARK    3  A    between atoms: N_3  and  C_11
REMARK    4  A    between atoms: C_17  and  C_18
REMARK    5  A    between atoms: C_18  and  C_19
REMARK    6  A    between atoms: C_19  and  O_20
REMARK    7  A    between atoms: O_20  and  C_26
REMARK                            x       y       z     vdW  Elec       q    Type
REMARK                         _______ _______ _______ _____ _____    ______ ____
ROOT
ATOM      1  C   UNL     1      34.676 -16.075 -24.152  0.00  0.00    -0.077 C 
ENDROOT
BRANCH   1   2
ATOM      2  N   UNL     1      35.202 -17.157 -23.321  0.00  0.00    +0.389 N 
ATOM      3  N   UNL     1      35.109 -19.168 -21.294  0.00  0.00    -0.311 N 
ATOM      4  C   UNL     1      35.164 -16.780 -21.902  0.00  0.00    -0.055 C 
ATOM      5  C   UNL     1      34.431 -18.388 -23.531  0.00  0.00    -0.055 C 
ATOM      6  C   UNL     1      35.764 -17.881 -21.025  0.00  0.00    +0.068 C 
ATOM      7  C   UNL     1      35.006 -19.544 -22.707  0.00  0.00    +0.068 C 
ATOM      8  H   UNL     1      36.170 -17.324 -23.591  0.00  0.00    -0.080 HD
BRANCH   3  11
ATOM      9 CL   UNL     1      32.486 -20.302 -20.348  0.00  0.00    -0.080 Cl
ATOM     10 CL   UNL     1      32.795 -22.574 -18.102  0.00  0.00    -0.081 Cl
ATOM     11  C   UNL     1      35.190 -20.164 -20.315  0.00  0.00    +0.059 C 
ATOM     12  C   UNL     1      34.048 -20.792 -19.770  0.00  0.00    +0.081 C 
ATOM     13  C   UNL     1      36.454 -20.571 -19.840  0.00  0.00    +0.015 C 
ATOM     14  C   UNL     1      34.167 -21.782 -18.793  0.00  0.00    +0.069 C 
ATOM     15  C   UNL     1      36.572 -21.561 -18.864  0.00  0.00    +0.002 C 
ATOM     16  C   UNL     1      35.429 -22.166 -18.341  0.00  0.00    +0.012 C 
ENDBRANCH   3  11
ENDBRANCH   1   2
BRANCH   1  17
ATOM     17  C   UNL     1      34.481 -14.811 -23.318  0.00  0.00    -0.019 C 
BRANCH  17  18
ATOM     18  C   UNL     1      33.313 -13.976 -23.842  0.00  0.00    +0.045 C 
BRANCH  18  19
ATOM     19  C   UNL     1      33.272 -12.598 -23.196  0.00  0.00    +0.205 C 
BRANCH  19  20
ATOM     20  O   UNL     1      34.251 -11.753 -23.797  0.00  0.00    -0.475 OA
BRANCH  20  26
ATOM     21  O   UNL     1      30.233  -6.253 -21.780  0.00  0.00    -0.275 OA
ATOM     22  N   UNL     1      31.524  -8.018 -22.484  0.00  0.00    -0.284 N 
ATOM     23  C   UNL     1      33.789  -7.650 -23.288  0.00  0.00    -0.008 C 
ATOM     24  C   UNL     1      33.562  -6.168 -23.197  0.00  0.00    +0.037 C 
ATOM     25  C   UNL     1      32.744  -8.525 -22.965  0.00  0.00    +0.049 C 
ATOM     26  C   UNL     1      34.098 -10.410 -23.630  0.00  0.00    +0.140 C 
ATOM     27  C   UNL     1      32.576  -5.839 -22.086  0.00  0.00    +0.090 C 
ATOM     28  C   UNL     1      32.893  -9.903 -23.145  0.00  0.00    +0.051 C 
ATOM     29  C   UNL     1      34.988  -8.168 -23.787  0.00  0.00    +0.000 C 
ATOM     30  C   UNL     1      35.145  -9.546 -23.948  0.00  0.00    +0.037 C 
ATOM     31  C   UNL     1      31.326  -6.697 -22.131  0.00  0.00    +0.226 C 
ATOM     32  H   UNL     1      30.766  -8.641 -22.394  0.00  0.00    +0.155 HD
ENDBRANCH  20  26
ENDBRANCH  19  20
ENDBRANCH  18  19
ENDBRANCH  17  18
ENDBRANCH   1  17
TORSDOF 7
ENDMDL
MODEL 3
REMARK VINA RESULT:     -11.2      4.323     11.273
REMARK  Name = 60795
REMARK  7 active torsions:
REMARK  status: ('A' for Active; 'I' for Inactive)
REMARK    1  A    between atoms: C_1  and  N_2
REMARK    2  A    between atoms: C_1  and  C_17
REMARK    3  A    between atoms: N_3  and  C_11
REMARK    4  A    between atoms: C_17  and  C_18
REMARK    5  A    between atoms: C_18  and  C_19
REMARK    6  A    between atoms: C_19  and  O_20
REMARK    7  A    between atoms: O_20  and  C_26
REMARK                            x       y       z     vdW  Elec       q    Type
REMARK                         _______ _______ _______ _____ _____    ______ ____
ROOT
ATOM      1  C   UNL     1      34.684 -17.519 -23.989  0.00  0.00    -0.077 C 
ENDROOT
BRANCH   1   2
ATOM      2  N   UNL     1      34.640 -16.068 -23.815  0.00  0.00    +0.389 N 
ATOM      3  N   UNL     1      33.523 -13.575 -22.979  0.00  0.00    -0.311 N 
ATOM      4  C   UNL     1      33.481 -15.501 -24.516  0.00  0.00    -0.055 C 
ATOM      5  C   UNL     1      34.581 -15.722 -22.390  0.00  0.00    -0.055 C 
ATOM      6  C   UNL     1      33.455 -13.977 -24.390  0.00  0.00    +0.068 C 
ATOM      7  C   UNL     1      34.589 -14.203 -22.192  0.00  0.00    +0.068 C 
ATOM      8  H   UNL     1      35.491 -15.674 -24.214  0.00  0.00    -0.080 HD
BRANCH   3  11
ATOM      9 CL   UNL     1      31.896 -13.389 -20.454  0.00  0.00    -0.080 Cl
ATOM     10 CL   UNL     1      30.906 -10.413 -19.770  0.00  0.00    -0.081 Cl
ATOM     11  C   UNL     1      33.069 -12.297 -22.636  0.00  0.00    +0.059 C 
ATOM     12  C   UNL     1      32.293 -12.048 -21.483  0.00  0.00    +0.081 C 
ATOM     13  C   UNL     1      33.388 -11.200 -23.463  0.00  0.00    +0.015 C 
ATOM     14  C   UNL     1      31.857 -10.759 -21.173  0.00  0.00    +0.069 C 
ATOM     15  C   UNL     1      32.952  -9.912 -23.152  0.00  0.00    +0.002 C 
ATOM     16  C   UNL     1      32.187  -9.692 -22.007  0.00  0.00    +0.012 C 
ENDBRANCH   3  11
ENDBRANCH   1   2
BRANCH   1  17
ATOM     17  C   UNL     1      35.280 -18.184 -22.750  0.00  0.00    -0.019 C 
BRANCH  17  18
ATOM     18  C   UNL     1      34.588 -19.514 -22.449  0.00  0.00    +0.045 C 
BRANCH  18  19
ATOM     19  C   UNL     1      34.441 -19.745 -20.951  0.00  0.00    +0.205 C 
BRANCH  19  20
ATOM     20  O   UNL     1      35.436 -20.663 -20.503  0.00  0.00    -0.475 OA
BRANCH  20  26
ATOM     21  O   UNL     1      37.715 -23.199 -14.272  0.00  0.00    -0.275 OA
ATOM     22  N   UNL     1      36.979 -22.429 -16.306  0.00  0.00    -0.284 N 
ATOM     23  C   UNL     1      34.657 -22.718 -16.970  0.00  0.00    -0.008 C 
ATOM     24  C   UNL     1      34.426 -23.547 -15.740  0.00  0.00    +0.037 C 
ATOM     25  C   UNL     1      35.940 -22.220 -17.231  0.00  0.00    +0.049 C 
ATOM     26  C   UNL     1      35.183 -21.335 -19.346  0.00  0.00    +0.140 C 
ATOM     27  C   UNL     1      35.342 -23.105 -14.609  0.00  0.00    +0.090 C 
ATOM     28  C   UNL     1      36.207 -21.538 -18.422  0.00  0.00    +0.051 C 
ATOM     29  C   UNL     1      33.641 -22.521 -17.911  0.00  0.00    +0.000 C 
ATOM     30  C   UNL     1      33.902 -21.823 -19.091  0.00  0.00    +0.037 C 
ATOM     31  C   UNL     1      36.788 -22.954 -15.043  0.00  0.00    +0.226 C 
ATOM     32  H   UNL     1      37.895 -22.188 -16.576  0.00  0.00    +0.155 HD
ENDBRANCH  20  26
ENDBRANCH  19  20
ENDBRANCH  18  19
ENDBRANCH  17  18
ENDBRANCH   1  17
TORSDOF 7
ENDMDL
MODEL 4
REMARK VINA RESULT:     -11.1      4.912     12.049
REMARK  Name = 60795
REMARK  7 active torsions:
REMARK  status: ('A' for Active; 'I' for Inactive)
REMARK    1  A    between atoms: C_1  and  N_2
REMARK    2  A    between atoms: C_1  and  C_17
REMARK    3  A    between atoms: N_3  and  C_11
REMARK    4  A    between atoms: C_17  and  C_18
REMARK    5  A    between atoms: C_18  and  C_19
REMARK    6  A    between atoms: C_19  and  O_20
REMARK    7  A    between atoms: O_20  and  C_26
REMARK                            x       y       z     vdW  Elec       q    Type
REMARK                         _______ _______ _______ _____ _____    ______ ____
ROOT
ATOM      1  C   UNL     1      31.726 -10.625 -19.781  0.00  0.00    -0.077 C 
ENDROOT
BRANCH   1   2
ATOM      2  N   UNL     1      32.220  -9.600 -20.699  0.00  0.00    +0.389 N 
ATOM      3  N   UNL     1      32.107  -7.176 -22.208  0.00  0.00    -0.311 N 
ATOM      4  C   UNL     1      31.348  -9.497 -21.875  0.00  0.00    -0.055 C 
ATOM      5  C   UNL     1      32.302  -8.299 -20.023  0.00  0.00    -0.055 C 
ATOM      6  C   UNL     1      31.886  -8.468 -22.870  0.00  0.00    +0.068 C 
ATOM      7  C   UNL     1      32.871  -7.228 -20.957  0.00  0.00    +0.068 C 
ATOM      8  H   UNL     1      33.154  -9.870 -21.005  0.00  0.00    -0.080 HD
BRANCH   3  11
ATOM      9 CL   UNL     1      30.248  -4.943 -21.421  0.00  0.00    -0.080 Cl
ATOM     10 CL   UNL     1      30.450  -2.364 -23.321  0.00  0.00    -0.081 Cl
ATOM     11  C   UNL     1      32.158  -6.028 -23.004  0.00  0.00    +0.059 C 
ATOM     12  C   UNL     1      31.347  -4.897 -22.765  0.00  0.00    +0.081 C 
ATOM     13  C   UNL     1      33.048  -5.978 -24.097  0.00  0.00    +0.015 C 
ATOM     14  C   UNL     1      31.425  -3.768 -23.582  0.00  0.00    +0.069 C 
ATOM     15  C   UNL     1      33.126  -4.850 -24.913  0.00  0.00    +0.002 C 
ATOM     16  C   UNL     1      32.314  -3.745 -24.656  0.00  0.00    +0.012 C 
ENDBRANCH   3  11
ENDBRANCH   1   2
BRANCH   1  17
ATOM     17  C   UNL     1      31.189 -11.822 -20.562  0.00  0.00    -0.019 C 
BRANCH  17  18
ATOM     18  C   UNL     1      32.275 -12.877 -20.774  0.00  0.00    +0.045 C 
BRANCH  18  19
ATOM     19  C   UNL     1      32.626 -13.035 -22.247  0.00  0.00    +0.205 C 
BRANCH  19  20
ATOM     20  O   UNL     1      33.995 -13.411 -22.380  0.00  0.00    -0.475 OA
BRANCH  20  26
ATOM     21  O   UNL     1      35.964 -19.823 -20.043  0.00  0.00    -0.275 OA
ATOM     22  N   UNL     1      35.377 -17.744 -20.822  0.00  0.00    -0.284 N 
ATOM     23  C   UNL     1      34.787 -17.421 -23.159  0.00  0.00    -0.008 C 
ATOM     24  C   UNL     1      35.180 -18.843 -23.437  0.00  0.00    +0.037 C 
ATOM     25  C   UNL     1      34.938 -16.908 -21.864  0.00  0.00    +0.049 C 
ATOM     26  C   UNL     1      34.255 -14.724 -22.633  0.00  0.00    +0.140 C 
ATOM     27  C   UNL     1      34.950 -19.718 -22.214  0.00  0.00    +0.090 C 
ATOM     28  C   UNL     1      34.682 -15.559 -21.601  0.00  0.00    +0.051 C 
ATOM     29  C   UNL     1      34.372 -16.571 -24.189  0.00  0.00    +0.000 C 
ATOM     30  C   UNL     1      34.097 -15.228 -23.923  0.00  0.00    +0.037 C 
ATOM     31  C   UNL     1      35.511 -19.114 -20.941  0.00  0.00    +0.226 C 
ATOM     32  H   UNL     1      35.601 -17.329 -19.958  0.00  0.00    +0.155 HD
ENDBRANCH  20  26
ENDBRANCH  19  20
ENDBRANCH  18  19
ENDBRANCH  17  18
ENDBRANCH   1  17
TORSDOF 7
ENDMDL
MODEL 5
REMARK VINA RESULT:     -11.1      4.131     10.998
REMARK  Name = 60795
REMARK  7 active torsions:
REMARK  status: ('A' for Active; 'I' for Inactive)
REMARK    1  A    between atoms: C_1  and  N_2
REMARK    2  A    between atoms: C_1  and  C_17
REMARK    3  A    between atoms: N_3  and  C_11
REMARK    4  A    between atoms: C_17  and  C_18
REMARK    5  A    between atoms: C_18  and  C_19
REMARK    6  A    between atoms: C_19  and  O_20
REMARK    7  A    between atoms: O_20  and  C_26
REMARK                            x       y       z     vdW  Elec       q    Type
REMARK                         _______ _______ _______ _____ _____    ______ ____
ROOT
ATOM      1  C   UNL     1      34.502 -16.700 -24.623  0.00  0.00    -0.077 C 
ENDROOT
BRANCH   1   2
ATOM      2  N   UNL     1      34.444 -15.286 -24.253  0.00  0.00    +0.389 N 
ATOM      3  N   UNL     1      33.309 -12.943 -23.077  0.00  0.00    -0.311 N 
ATOM      4  C   UNL     1      33.274 -14.642 -24.862  0.00  0.00    -0.055 C 
ATOM      5  C   UNL     1      34.393 -15.138 -22.794  0.00  0.00    -0.055 C 
ATOM      6  C   UNL     1      33.233 -13.149 -24.529  0.00  0.00    +0.068 C 
ATOM      7  C   UNL     1      34.387 -13.661 -22.390  0.00  0.00    +0.068 C 
ATOM      8  H   UNL     1      35.288 -14.832 -24.600  0.00  0.00    -0.080 HD
BRANCH   3  11
ATOM      9 CL   UNL     1      31.885 -13.098 -20.430  0.00  0.00    -0.080 Cl
ATOM     10 CL   UNL     1      30.861 -10.255 -19.345  0.00  0.00    -0.081 Cl
ATOM     11  C   UNL     1      32.845 -11.729 -22.560  0.00  0.00    +0.059 C 
ATOM     12  C   UNL     1      32.157 -11.638 -21.330  0.00  0.00    +0.081 C 
ATOM     13  C   UNL     1      33.062 -10.537 -23.281  0.00  0.00    +0.015 C 
ATOM     14  C   UNL     1      31.706 -10.409 -20.846  0.00  0.00    +0.069 C 
ATOM     15  C   UNL     1      32.613  -9.309 -22.797  0.00  0.00    +0.002 C 
ATOM     16  C   UNL     1      31.935  -9.245 -21.579  0.00  0.00    +0.012 C 
ENDBRANCH   3  11
ENDBRANCH   1   2
BRANCH   1  17
ATOM     17  C   UNL     1      35.168 -17.512 -23.515  0.00  0.00    -0.019 C 
BRANCH  17  18
ATOM     18  C   UNL     1      34.601 -18.930 -23.450  0.00  0.00    +0.045 C 
BRANCH  18  19
ATOM     19  C   UNL     1      35.026 -19.649 -22.177  0.00  0.00    +0.205 C 
BRANCH  19  20
ATOM     20  O   UNL     1      33.883 -19.918 -21.369  0.00  0.00    -0.475 OA
BRANCH  20  26
ATOM     21  O   UNL     1      31.201 -23.535 -15.875  0.00  0.00    -0.275 OA
ATOM     22  N   UNL     1      32.082 -22.325 -17.617  0.00  0.00    -0.284 N 
ATOM     23  C   UNL     1      34.489 -22.201 -17.943  0.00  0.00    -0.008 C 
ATOM     24  C   UNL     1      34.684 -22.935 -16.648  0.00  0.00    +0.037 C 
ATOM     25  C   UNL     1      33.190 -21.886 -18.364  0.00  0.00    +0.049 C 
ATOM     26  C   UNL     1      34.079 -20.665 -20.247  0.00  0.00    +0.140 C 
ATOM     27  C   UNL     1      33.521 -23.877 -16.378  0.00  0.00    +0.090 C 
ATOM     28  C   UNL     1      32.983 -21.111 -19.508  0.00  0.00    +0.051 C 
ATOM     29  C   UNL     1      35.580 -21.737 -18.684  0.00  0.00    +0.000 C 
ATOM     30  C   UNL     1      35.374 -20.979 -19.839  0.00  0.00    +0.037 C 
ATOM     31  C   UNL     1      32.169 -23.215 -16.565  0.00  0.00    +0.226 C 
ATOM     32  H   UNL     1      31.193 -21.978 -17.859  0.00  0.00    +0.155 HD
ENDBRANCH  20  26
ENDBRANCH  19  20
ENDBRANCH  18  19
ENDBRANCH  17  18
ENDBRANCH   1  17
TORSDOF 7
ENDMDL
MODEL 6
REMARK VINA RESULT:     -11.1      6.146     11.457
REMARK  Name = 60795
REMARK  7 active torsions:
REMARK  status: ('A' for Active; 'I' for Inactive)
REMARK    1  A    between atoms: C_1  and  N_2
REMARK    2  A    between atoms: C_1  and  C_17
REMARK    3  A    between atoms: N_3  and  C_11
REMARK    4  A    between atoms: C_17  and  C_18
REMARK    5  A    between atoms: C_18  and  C_19
REMARK    6  A    between atoms: C_19  and  O_20
REMARK    7  A    between atoms: O_20  and  C_26
REMARK                            x       y       z     vdW  Elec       q    Type
REMARK                         _______ _______ _______ _____ _____    ______ ____
ROOT
ATOM      1  C   UNL     1      36.555 -21.403 -19.400  0.00  0.00    -0.077 C 
ENDROOT
BRANCH   1   2
ATOM      2  N   UNL     1      36.042 -20.125 -19.893  0.00  0.00    +0.389 N 
ATOM      3  N   UNL     1      35.245 -18.222 -21.869  0.00  0.00    -0.311 N 
ATOM      4  C   UNL     1      37.048 -19.454 -20.726  0.00  0.00    -0.055 C 
ATOM      5  C   UNL     1      34.810 -20.327 -20.663  0.00  0.00    -0.055 C 
ATOM      6  C   UNL     1      36.546 -18.089 -21.200  0.00  0.00    +0.068 C 
ATOM      7  C   UNL     1      34.232 -18.990 -21.138  0.00  0.00    +0.068 C 
ATOM      8  H   UNL     1      35.834 -19.535 -19.088  0.00  0.00    -0.080 HD
BRANCH   3  11
ATOM      9 CL   UNL     1      34.650 -15.556 -20.604  0.00  0.00    -0.080 Cl
ATOM     10 CL   UNL     1      33.742 -13.304 -22.704  0.00  0.00    -0.081 Cl
ATOM     11  C   UNL     1      34.847 -17.205 -22.743  0.00  0.00    +0.059 C 
ATOM     12  C   UNL     1      34.531 -15.901 -22.302  0.00  0.00    +0.081 C 
ATOM     13  C   UNL     1      34.749 -17.474 -24.124  0.00  0.00    +0.015 C 
ATOM     14  C   UNL     1      34.136 -14.912 -23.203  0.00  0.00    +0.069 C 
ATOM     15  C   UNL     1      34.354 -16.485 -25.024  0.00  0.00    +0.002 C 
ATOM     16  C   UNL     1      34.048 -15.204 -24.564  0.00  0.00    +0.012 C 
ENDBRANCH   3  11
ENDBRANCH   1   2
BRANCH   1  17
ATOM     17  C   UNL     1      35.848 -21.795 -18.104  0.00  0.00    -0.019 C 
BRANCH  17  18
ATOM     18  C   UNL     1      36.843 -21.935 -16.952  0.00  0.00    +0.045 C 
BRANCH  18  19
ATOM     19  C   UNL     1      36.176 -22.477 -15.695  0.00  0.00    +0.205 C 
BRANCH  19  20
ATOM     20  O   UNL     1      35.395 -23.625 -16.019  0.00  0.00    -0.475 OA
BRANCH  20  26
ATOM     21  O   UNL     1      28.438 -22.429 -16.809  0.00  0.00    -0.275 OA
ATOM     22  N   UNL     1      30.690 -22.773 -16.520  0.00  0.00    -0.284 N 
ATOM     23  C   UNL     1      31.534 -23.786 -14.476  0.00  0.00    -0.008 C 
ATOM     24  C   UNL     1      30.148 -23.736 -13.901  0.00  0.00    +0.037 C 
ATOM     25  C   UNL     1      31.764 -23.264 -15.757  0.00  0.00    +0.049 C 
ATOM     26  C   UNL     1      34.130 -23.677 -15.516  0.00  0.00    +0.140 C 
ATOM     27  C   UNL     1      29.101 -23.854 -14.997  0.00  0.00    +0.090 C 
ATOM     28  C   UNL     1      33.061 -23.200 -16.273  0.00  0.00    +0.051 C 
ATOM     29  C   UNL     1      32.616 -24.249 -13.721  0.00  0.00    +0.000 C 
ATOM     30  C   UNL     1      33.909 -24.203 -14.244  0.00  0.00    +0.037 C 
ATOM     31  C   UNL     1      29.364 -22.927 -16.168  0.00  0.00    +0.226 C 
ATOM     32  H   UNL     1      30.897 -22.292 -17.355  0.00  0.00    +0.155 HD
ENDBRANCH  20  26
ENDBRANCH  19  20
ENDBRANCH  18  19
ENDBRANCH  17  18
ENDBRANCH   1  17
TORSDOF 7
ENDMDL
MODEL 7
REMARK VINA RESULT:     -11.0      4.500     11.822
REMARK  Name = 60795
REMARK  7 active torsions:
REMARK  status: ('A' for Active; 'I' for Inactive)
REMARK    1  A    between atoms: C_1  and  N_2
REMARK    2  A    between atoms: C_1  and  C_17
REMARK    3  A    between atoms: N_3  and  C_11
REMARK    4  A    between atoms: C_17  and  C_18
REMARK    5  A    between atoms: C_18  and  C_19
REMARK    6  A    between atoms: C_19  and  O_20
REMARK    7  A    between atoms: O_20  and  C_26
REMARK                            x       y       z     vdW  Elec       q    Type
REMARK                         _______ _______ _______ _____ _____    ______ ____
ROOT
ATOM      1  C   UNL     1      31.628 -10.393 -19.725  0.00  0.00    -0.077 C 
ENDROOT
BRANCH   1   2
ATOM      2  N   UNL     1      31.534  -9.155 -20.497  0.00  0.00    +0.389 N 
ATOM      3  N   UNL     1      32.350  -7.222 -22.437  0.00  0.00    -0.311 N 
ATOM      4  C   UNL     1      32.705  -8.304 -20.251  0.00  0.00    -0.055 C 
ATOM      5  C   UNL     1      31.422  -9.449 -21.931  0.00  0.00    -0.055 C 
ATOM      6  C   UNL     1      32.591  -6.980 -21.009  0.00  0.00    +0.068 C 
ATOM      7  C   UNL     1      31.267  -8.162 -22.747  0.00  0.00    +0.068 C 
ATOM      8  H   UNL     1      30.696  -8.656 -20.198  0.00  0.00    -0.080 HD
BRANCH   3  11
ATOM      9 CL   UNL     1      34.933  -7.536 -23.950  0.00  0.00    -0.080 Cl
ATOM     10 CL   UNL     1      35.539  -5.131 -25.986  0.00  0.00    -0.081 Cl
ATOM     11  C   UNL     1      32.659  -6.200 -23.340  0.00  0.00    +0.059 C 
ATOM     12  C   UNL     1      33.835  -6.202 -24.121  0.00  0.00    +0.081 C 
ATOM     13  C   UNL     1      31.773  -5.112 -23.489  0.00  0.00    +0.015 C 
ATOM     14  C   UNL     1      34.111  -5.163 -25.011  0.00  0.00    +0.069 C 
ATOM     15  C   UNL     1      32.049  -4.074 -24.379  0.00  0.00    +0.002 C 
ATOM     16  C   UNL     1      33.218  -4.100 -25.140  0.00  0.00    +0.012 C 
ENDBRANCH   3  11
ENDBRANCH   1   2
BRANCH   1  17
ATOM     17  C   UNL     1      31.130 -11.575 -20.555  0.00  0.00    -0.019 C 
BRANCH  17  18
ATOM     18  C   UNL     1      32.169 -12.695 -20.602  0.00  0.00    +0.045 C 
BRANCH  18  19
ATOM     19  C   UNL     1      32.583 -13.018 -22.031  0.00  0.00    +0.205 C 
BRANCH  19  20
ATOM     20  O   UNL     1      33.958 -13.395 -22.062  0.00  0.00    -0.475 OA
BRANCH  20  26
ATOM     21  O   UNL     1      35.991 -19.892 -20.034  0.00  0.00    -0.275 OA
ATOM     22  N   UNL     1      35.383 -17.784 -20.712  0.00  0.00    -0.284 N 
ATOM     23  C   UNL     1      34.815 -17.348 -23.037  0.00  0.00    -0.008 C 
ATOM     24  C   UNL     1      35.231 -18.749 -23.382  0.00  0.00    +0.037 C 
ATOM     25  C   UNL     1      34.944 -16.901 -21.715  0.00  0.00    +0.049 C 
ATOM     26  C   UNL     1      34.239 -14.689 -22.379  0.00  0.00    +0.140 C 
ATOM     27  C   UNL     1      34.999 -19.688 -22.209  0.00  0.00    +0.090 C 
ATOM     28  C   UNL     1      34.666 -15.571 -21.387  0.00  0.00    +0.051 C 
ATOM     29  C   UNL     1      34.399 -16.452 -24.026  0.00  0.00    +0.000 C 
ATOM     30  C   UNL     1      34.103 -15.128 -23.695  0.00  0.00    +0.037 C 
ATOM     31  C   UNL     1      35.537 -19.143 -20.900  0.00  0.00    +0.226 C 
ATOM     32  H   UNL     1      35.592 -17.410 -19.825  0.00  0.00    +0.155 HD
ENDBRANCH  20  26
ENDBRANCH  19  20
ENDBRANCH  18  19
ENDBRANCH  17  18
ENDBRANCH   1  17
TORSDOF 7
ENDMDL
MODEL 8
REMARK VINA RESULT:     -10.7      5.991     11.385
REMARK  Name = 60795
REMARK  7 active torsions:
REMARK  status: ('A' for Active; 'I' for Inactive)
REMARK    1  A    between atoms: C_1  and  N_2
REMARK    2  A    between atoms: C_1  and  C_17
REMARK    3  A    between atoms: N_3  and  C_11
REMARK    4  A    between atoms: C_17  and  C_18
REMARK    5  A    between atoms: C_18  and  C_19
REMARK    6  A    between atoms: C_19  and  O_20
REMARK    7  A    between atoms: O_20  and  C_26
REMARK                            x       y       z     vdW  Elec       q    Type
REMARK                         _______ _______ _______ _____ _____    ______ ____
ROOT
ATOM      1  C   UNL     1      36.669 -21.355 -19.492  0.00  0.00    -0.077 C 
ENDROOT
BRANCH   1   2
ATOM      2  N   UNL     1      36.080 -20.079 -19.894  0.00  0.00    +0.389 N 
ATOM      3  N   UNL     1      35.179 -18.086 -21.732  0.00  0.00    -0.311 N 
ATOM      4  C   UNL     1      37.047 -19.284 -20.661  0.00  0.00    -0.055 C 
ATOM      5  C   UNL     1      34.869 -20.299 -20.694  0.00  0.00    -0.055 C 
ATOM      6  C   UNL     1      36.463 -17.922 -21.038  0.00  0.00    +0.068 C 
ATOM      7  C   UNL     1      34.211 -18.969 -21.075  0.00  0.00    +0.068 C 
ATOM      8  H   UNL     1      35.828 -19.565 -19.050  0.00  0.00    -0.080 HD
BRANCH   3  11
ATOM      9 CL   UNL     1      33.888 -18.872 -24.335  0.00  0.00    -0.080 Cl
ATOM     10 CL   UNL     1      32.888 -16.375 -26.087  0.00  0.00    -0.081 Cl
ATOM     11  C   UNL     1      34.724 -17.033 -22.533  0.00  0.00    +0.059 C 
ATOM     12  C   UNL     1      34.099 -17.239 -23.782  0.00  0.00    +0.081 C 
ATOM     13  C   UNL     1      34.888 -15.703 -22.092  0.00  0.00    +0.015 C 
ATOM     14  C   UNL     1      33.659 -16.163 -24.554  0.00  0.00    +0.069 C 
ATOM     15  C   UNL     1      34.447 -14.628 -22.863  0.00  0.00    +0.002 C 
ATOM     16  C   UNL     1      33.832 -14.858 -24.094  0.00  0.00    +0.012 C 
ENDBRANCH   3  11
ENDBRANCH   1   2
BRANCH   1  17
ATOM     17  C   UNL     1      35.923 -21.929 -18.289  0.00  0.00    -0.019 C 
BRANCH  17  18
ATOM     18  C   UNL     1      36.836 -22.030 -17.068  0.00  0.00    +0.045 C 
BRANCH  18  19
ATOM     19  C   UNL     1      36.068 -22.456 -15.824  0.00  0.00    +0.205 C 
BRANCH  19  20
ATOM     20  O   UNL     1      35.295 -23.620 -16.109  0.00  0.00    -0.475 OA
BRANCH  20  26
ATOM     21  O   UNL     1      28.363 -22.218 -16.770  0.00  0.00    -0.275 OA
ATOM     22  N   UNL     1      30.608 -22.630 -16.521  0.00  0.00    -0.284 N 
ATOM     23  C   UNL     1      31.444 -23.767 -14.540  0.00  0.00    -0.008 C 
ATOM     24  C   UNL     1      30.065 -23.713 -13.949  0.00  0.00    +0.037 C 
ATOM     25  C   UNL     1      31.676 -23.186 -15.794  0.00  0.00    +0.049 C 
ATOM     26  C   UNL     1      34.034 -23.667 -15.597  0.00  0.00    +0.140 C 
ATOM     27  C   UNL     1      29.006 -23.750 -15.040  0.00  0.00    +0.090 C 
ATOM     28  C   UNL     1      32.970 -23.126 -16.318  0.00  0.00    +0.051 C 
ATOM     29  C   UNL     1      32.521 -24.294 -13.819  0.00  0.00    +0.000 C 
ATOM     30  C   UNL     1      33.810 -24.253 -14.352  0.00  0.00    +0.037 C 
ATOM     31  C   UNL     1      29.282 -22.770 -16.164  0.00  0.00    +0.226 C 
ATOM     32  H   UNL     1      30.820 -22.112 -17.331  0.00  0.00    +0.155 HD
ENDBRANCH  20  26
ENDBRANCH  19  20
ENDBRANCH  18  19
ENDBRANCH  17  18
ENDBRANCH   1  17
TORSDOF 7
ENDMDL
MODEL 9
REMARK VINA RESULT:     -10.7      6.088     12.648
REMARK  Name = 60795
REMARK  7 active torsions:
REMARK  status: ('A' for Active; 'I' for Inactive)
REMARK    1  A    between atoms: C_1  and  N_2
REMARK    2  A    between atoms: C_1  and  C_17
REMARK    3  A    between atoms: N_3  and  C_11
REMARK    4  A    between atoms: C_17  and  C_18
REMARK    5  A    between atoms: C_18  and  C_19
REMARK    6  A    between atoms: C_19  and  O_20
REMARK    7  A    between atoms: O_20  and  C_26
REMARK                            x       y       z     vdW  Elec       q    Type
REMARK                         _______ _______ _______ _____ _____    ______ ____
ROOT
ATOM      1  C   UNL     1      35.690 -21.373 -19.429  0.00  0.00    -0.077 C 
ENDROOT
BRANCH   1   2
ATOM      2  N   UNL     1      35.582 -20.536 -20.623  0.00  0.00    +0.389 N 
ATOM      3  N   UNL     1      34.998 -18.160 -22.097  0.00  0.00    -0.311 N 
ATOM      4  C   UNL     1      34.191 -20.115 -20.833  0.00  0.00    -0.055 C 
ATOM      5  C   UNL     1      36.448 -19.357 -20.504  0.00  0.00    -0.055 C 
ATOM      6  C   UNL     1      34.055 -19.286 -22.111  0.00  0.00    +0.068 C 
ATOM      7  C   UNL     1      36.387 -18.499 -21.771  0.00  0.00    +0.068 C 
ATOM      8  H   UNL     1      35.885 -21.086 -21.426  0.00  0.00    -0.080 HD
BRANCH   3  11
ATOM      9 CL   UNL     1      34.626 -15.516 -20.706  0.00  0.00    -0.080 Cl
ATOM     10 CL   UNL     1      34.008 -13.080 -22.703  0.00  0.00    -0.081 Cl
ATOM     11  C   UNL     1      34.728 -17.065 -22.924  0.00  0.00    +0.059 C 
ATOM     12  C   UNL     1      34.527 -15.760 -22.422  0.00  0.00    +0.081 C 
ATOM     13  C   UNL     1      34.647 -17.251 -24.320  0.00  0.00    +0.015 C 
ATOM     14  C   UNL     1      34.258 -14.692 -23.279  0.00  0.00    +0.069 C 
ATOM     15  C   UNL     1      34.379 -16.183 -25.176  0.00  0.00    +0.002 C 
ATOM     16  C   UNL     1      34.185 -14.903 -24.655  0.00  0.00    +0.012 C 
ENDBRANCH   3  11
ENDBRANCH   1   2
BRANCH   1  17
ATOM     17  C   UNL     1      34.309 -21.611 -18.821  0.00  0.00    -0.019 C 
BRANCH  17  18
ATOM     18  C   UNL     1      33.993 -23.104 -18.732  0.00  0.00    +0.045 C 
BRANCH  18  19
ATOM     19  C   UNL     1      33.511 -23.495 -17.342  0.00  0.00    +0.205 C 
BRANCH  19  20
ATOM     20  O   UNL     1      34.093 -22.631 -16.368  0.00  0.00    -0.475 OA
BRANCH  20  26
ATOM     21  O   UNL     1      36.864 -26.813 -11.339  0.00  0.00    -0.275 OA
ATOM     22  N   UNL     1      35.977 -25.418 -12.933  0.00  0.00    -0.284 N 
ATOM     23  C   UNL     1      37.429 -24.051 -14.326  0.00  0.00    -0.008 C 
ATOM     24  C   UNL     1      38.605 -24.497 -13.507  0.00  0.00    +0.037 C 
ATOM     25  C   UNL     1      36.145 -24.499 -13.984  0.00  0.00    +0.049 C 
ATOM     26  C   UNL     1      35.183 -23.097 -15.698  0.00  0.00    +0.140 C 
ATOM     27  C   UNL     1      38.382 -25.896 -12.954  0.00  0.00    +0.090 C 
ATOM     28  C   UNL     1      35.022 -24.016 -14.661  0.00  0.00    +0.051 C 
ATOM     29  C   UNL     1      37.577 -23.120 -15.359  0.00  0.00    +0.000 C 
ATOM     30  C   UNL     1      36.457 -22.652 -16.049  0.00  0.00    +0.037 C 
ATOM     31  C   UNL     1      37.022 -26.066 -12.304  0.00  0.00    +0.226 C 
ATOM     32  H   UNL     1      35.060 -25.610 -12.628  0.00  0.00    +0.155 HD
ENDBRANCH  20  26
ENDBRANCH  19  20
ENDBRANCH  18  19
ENDBRANCH  17  18
ENDBRANCH   1  17
TORSDOF 7
ENDMDL
