MODEL 1
REMARK VINA RESULT:     -12.4      0.000      0.000
REMARK  Name = 10157080
REMARK  5 active torsions:
REMARK  status: ('A' for Active; 'I' for Inactive)
REMARK    1  A    between atoms: C_3  and  O_8
REMARK    2  A    between atoms: C_6  and  O_18
REMARK    3  A    between atoms: O_8  and  C_13
REMARK    4  A    between atoms: O_18  and  C_20
REMARK    5  A    between atoms: C_19  and  N_25
REMARK                            x       y       z     vdW  Elec       q    Type
REMARK                         _______ _______ _______ _____ _____    ______ ____
ROOT
ATOM      1  N   UNL     1      34.558 -23.284 -16.237  0.00  0.00    -0.277 NA
ATOM      2  N   UNL     1      32.203 -23.273 -16.752  0.00  0.00    -0.319 NA
ATOM      3  C   UNL     1      34.225 -23.138 -14.944  0.00  0.00    +0.278 C 
ATOM      4  C   UNL     1      32.939 -23.051 -14.471  0.00  0.00    +0.156 C 
ATOM      5  C   UNL     1      31.954 -23.125 -15.434  0.00  0.00    +0.113 C 
ATOM      6  C   UNL     1      33.508 -23.344 -17.078  0.00  0.00    +0.317 C 
ATOM      7  C   UNL     1      30.521 -23.041 -15.028  0.00  0.00    +0.063 C 
ENDROOT
BRANCH   3   8
ATOM      8  O   UNL     1      35.271 -23.075 -14.041  0.00  0.00    -0.429 OA
BRANCH   8  13
ATOM      9  O   UNL     1      39.826 -24.537 -14.650  0.00  0.00    -0.435 OA
ATOM     10  O   UNL     1      39.213 -26.849 -14.362  0.00  0.00    -0.435 OA
ATOM     11  C   UNL     1      38.494 -24.694 -14.424  0.00  0.00    +0.179 C 
ATOM     12  C   UNL     1      38.143 -26.014 -14.259  0.00  0.00    +0.177 C 
ATOM     13  C   UNL     1      36.231 -24.040 -14.116  0.00  0.00    +0.151 C 
ATOM     14  C   UNL     1      37.559 -23.681 -14.357  0.00  0.00    +0.078 C 
ATOM     15  C   UNL     1      36.839 -26.395 -14.019  0.00  0.00    +0.043 C 
ATOM     16  C   UNL     1      35.872 -25.389 -13.947  0.00  0.00    +0.041 C 
ATOM     17  C   UNL     1      40.275 -25.907 -14.608  0.00  0.00    +0.429 C 
ENDBRANCH   8  13
ENDBRANCH   3   8
BRANCH   6  18
ATOM     18  O   UNL     1      33.800 -23.491 -18.415  0.00  0.00    -0.375 OA
BRANCH  18  20
ATOM     19  C   UNL     1      34.524 -20.030 -20.587  0.00  0.00    +0.057 C 
ATOM     20  C   UNL     1      34.041 -22.342 -19.136  0.00  0.00    +0.161 C 
ATOM     21  C   UNL     1      33.214 -20.410 -20.299  0.00  0.00    +0.018 C 
ATOM     22  C   UNL     1      35.591 -20.812 -20.145  0.00  0.00    +0.018 C 
ATOM     23  C   UNL     1      32.970 -21.574 -19.568  0.00  0.00    +0.040 C 
ATOM     24  C   UNL     1      35.349 -21.974 -19.415  0.00  0.00    +0.040 C 
BRANCH  19  25
ATOM     25  N   UNL     1      34.765 -18.876 -21.312  0.00  0.00    -0.246 N 
ATOM     26  N   UNL     1      34.911 -17.497 -23.057  0.00  0.00    -0.224 NA
ATOM     27  C   UNL     1      35.214 -17.678 -20.818  0.00  0.00    +0.092 C 
ATOM     28  C   UNL     1      34.599 -18.712 -22.665  0.00  0.00    +0.172 C 
ATOM     29  C   UNL     1      35.295 -16.848 -21.911  0.00  0.00    +0.117 C 
ENDBRANCH  19  25
ENDBRANCH  18  20
ENDBRANCH   6  18
TORSDOF 5
ENDMDL
MODEL 2
REMARK VINA RESULT:     -11.7      2.517      5.538
REMARK  Name = 10157080
REMARK  5 active torsions:
REMARK  status: ('A' for Active; 'I' for Inactive)
REMARK    1  A    between atoms: C_3  and  O_8
REMARK    2  A    between atoms: C_6  and  O_18
REMARK    3  A    between atoms: O_8  and  C_13
REMARK    4  A    between atoms: O_18  and  C_20
REMARK    5  A    between atoms: C_19  and  N_25
REMARK                            x       y       z     vdW  Elec       q    Type
REMARK                         _______ _______ _______ _____ _____    ______ ____
ROOT
ATOM      1  N   UNL     1      33.219 -23.484 -16.065  0.00  0.00    -0.277 NA
ATOM      2  N   UNL     1      35.534 -22.990 -16.519  0.00  0.00    -0.319 NA
ATOM      3  C   UNL     1      33.498 -23.349 -14.759  0.00  0.00    +0.278 C 
ATOM      4  C   UNL     1      34.737 -23.045 -14.249  0.00  0.00    +0.156 C 
ATOM      5  C   UNL     1      35.732 -22.873 -15.190  0.00  0.00    +0.113 C 
ATOM      6  C   UNL     1      34.273 -23.293 -16.882  0.00  0.00    +0.317 C 
ATOM      7  C   UNL     1      37.115 -22.539 -14.744  0.00  0.00    +0.063 C 
ENDROOT
BRANCH   3   8
ATOM      8  O   UNL     1      32.445 -23.534 -13.880  0.00  0.00    -0.429 OA
BRANCH   8  13
ATOM      9  O   UNL     1      28.724 -22.125 -16.605  0.00  0.00    -0.435 OA
ATOM     10  O   UNL     1      27.472 -24.115 -16.075  0.00  0.00    -0.435 OA
ATOM     11  C   UNL     1      29.405 -22.956 -15.770  0.00  0.00    +0.179 C 
ATOM     12  C   UNL     1      28.690 -24.093 -15.468  0.00  0.00    +0.177 C 
ATOM     13  C   UNL     1      31.202 -23.708 -14.411  0.00  0.00    +0.151 C 
ATOM     14  C   UNL     1      30.666 -22.735 -15.257  0.00  0.00    +0.078 C 
ATOM     15  C   UNL     1      29.196 -25.070 -14.635  0.00  0.00    +0.043 C 
ATOM     16  C   UNL     1      30.472 -24.869 -14.102  0.00  0.00    +0.041 C 
ATOM     17  C   UNL     1      27.501 -22.866 -16.795  0.00  0.00    +0.429 C 
ENDBRANCH   8  13
ENDBRANCH   3   8
BRANCH   6  18
ATOM     18  O   UNL     1      34.036 -23.424 -18.231  0.00  0.00    -0.375 OA
BRANCH  18  20
ATOM     19  C   UNL     1      34.585 -20.053 -20.588  0.00  0.00    +0.057 C 
ATOM     20  C   UNL     1      34.218 -22.305 -19.013  0.00  0.00    +0.161 C 
ATOM     21  C   UNL     1      33.297 -20.446 -20.223  0.00  0.00    +0.018 C 
ATOM     22  C   UNL     1      35.687 -20.792 -20.160  0.00  0.00    +0.018 C 
ATOM     23  C   UNL     1      33.112 -21.579 -19.430  0.00  0.00    +0.040 C 
ATOM     24  C   UNL     1      35.504 -21.924 -19.367  0.00  0.00    +0.040 C 
BRANCH  19  25
ATOM     25  N   UNL     1      34.767 -18.929 -21.374  0.00  0.00    -0.246 N 
ATOM     26  N   UNL     1      34.765 -17.616 -23.175  0.00  0.00    -0.224 NA
ATOM     27  C   UNL     1      35.267 -17.718 -20.967  0.00  0.00    +0.092 C 
ATOM     28  C   UNL     1      34.482 -18.813 -22.712  0.00  0.00    +0.172 C 
ATOM     29  C   UNL     1      35.255 -16.930 -22.094  0.00  0.00    +0.117 C 
ENDBRANCH  19  25
ENDBRANCH  18  20
ENDBRANCH   6  18
TORSDOF 5
ENDMDL
MODEL 3
REMARK VINA RESULT:     -11.3      3.691      7.303
REMARK  Name = 10157080
REMARK  5 active torsions:
REMARK  status: ('A' for Active; 'I' for Inactive)
REMARK    1  A    between atoms: C_3  and  O_8
REMARK    2  A    between atoms: C_6  and  O_18
REMARK    3  A    between atoms: O_8  and  C_13
REMARK    4  A    between atoms: O_18  and  C_20
REMARK    5  A    between atoms: C_19  and  N_25
REMARK                            x       y       z     vdW  Elec       q    Type
REMARK                         _______ _______ _______ _____ _____    ______ ____
ROOT
ATOM      1  N   UNL     1      34.279 -24.315 -14.152  0.00  0.00    -0.277 NA
ATOM      2  N   UNL     1      34.731 -23.954 -11.812  0.00  0.00    -0.319 NA
ATOM      3  C   UNL     1      35.496 -23.812 -14.414  0.00  0.00    +0.278 C 
ATOM      4  C   UNL     1      36.380 -23.363 -13.463  0.00  0.00    +0.156 C 
ATOM      5  C   UNL     1      35.937 -23.460 -12.160  0.00  0.00    +0.113 C 
ATOM      6  C   UNL     1      33.963 -24.357 -12.844  0.00  0.00    +0.317 C 
ATOM      7  C   UNL     1      36.820 -23.001 -11.048  0.00  0.00    +0.063 C 
ENDROOT
BRANCH   3   8
ATOM      8  O   UNL     1      35.866 -23.751 -15.746  0.00  0.00    -0.429 OA
BRANCH   8  13
ATOM      9  O   UNL     1      34.887 -20.922 -19.527  0.00  0.00    -0.435 OA
ATOM     10  O   UNL     1      32.516 -21.287 -19.294  0.00  0.00    -0.435 OA
ATOM     11  C   UNL     1      34.590 -21.746 -18.485  0.00  0.00    +0.179 C 
ATOM     12  C   UNL     1      33.236 -21.955 -18.353  0.00  0.00    +0.177 C 
ATOM     13  C   UNL     1      35.005 -23.151 -16.615  0.00  0.00    +0.151 C 
ATOM     14  C   UNL     1      35.501 -22.331 -17.631  0.00  0.00    +0.078 C 
ATOM     15  C   UNL     1      32.719 -22.759 -17.358  0.00  0.00    +0.043 C 
ATOM     16  C   UNL     1      33.621 -23.364 -16.479  0.00  0.00    +0.041 C 
ATOM     17  C   UNL     1      33.568 -20.636 -20.035  0.00  0.00    +0.429 C 
ENDBRANCH   8  13
ENDBRANCH   3   8
BRANCH   6  18
ATOM     18  O   UNL     1      32.724 -24.862 -12.527  0.00  0.00    -0.375 OA
BRANCH  18  20
ATOM     19  C   UNL     1      29.524 -23.638 -14.868  0.00  0.00    +0.057 C 
ATOM     20  C   UNL     1      31.661 -24.455 -13.304  0.00  0.00    +0.161 C 
ATOM     21  C   UNL     1      29.753 -24.997 -14.657  0.00  0.00    +0.018 C 
ATOM     22  C   UNL     1      30.369 -22.690 -14.292  0.00  0.00    +0.018 C 
ATOM     23  C   UNL     1      30.828 -25.409 -13.870  0.00  0.00    +0.040 C 
ATOM     24  C   UNL     1      31.444 -23.101 -13.505  0.00  0.00    +0.040 C 
BRANCH  19  25
ATOM     25  N   UNL     1      28.457 -23.230 -15.649  0.00  0.00    -0.246 N 
ATOM     26  N   UNL     1      27.075 -23.095 -17.393  0.00  0.00    -0.224 NA
ATOM     27  C   UNL     1      27.499 -22.308 -15.310  0.00  0.00    +0.092 C 
ATOM     28  C   UNL     1      28.155 -23.671 -16.913  0.00  0.00    +0.172 C 
ATOM     29  C   UNL     1      26.663 -22.244 -16.399  0.00  0.00    +0.117 C 
ENDBRANCH  19  25
ENDBRANCH  18  20
ENDBRANCH   6  18
TORSDOF 5
ENDMDL
MODEL 4
REMARK VINA RESULT:     -10.8      1.155      1.711
REMARK  Name = 10157080
REMARK  5 active torsions:
REMARK  status: ('A' for Active; 'I' for Inactive)
REMARK    1  A    between atoms: C_3  and  O_8
REMARK    2  A    between atoms: C_6  and  O_18
REMARK    3  A    between atoms: O_8  and  C_13
REMARK    4  A    between atoms: O_18  and  C_20
REMARK    5  A    between atoms: C_19  and  N_25
REMARK                            x       y       z     vdW  Elec       q    Type
REMARK                         _______ _______ _______ _____ _____    ______ ____
ROOT
ATOM      1  N   UNL     1      35.593 -22.743 -16.898  0.00  0.00    -0.277 NA
ATOM      2  N   UNL     1      33.431 -22.647 -17.960  0.00  0.00    -0.319 NA
ATOM      3  C   UNL     1      34.955 -22.863 -15.722  0.00  0.00    +0.278 C 
ATOM      4  C   UNL     1      33.590 -22.882 -15.570  0.00  0.00    +0.156 C 
ATOM      5  C   UNL     1      32.867 -22.770 -16.740  0.00  0.00    +0.113 C 
ATOM      6  C   UNL     1      34.778 -22.641 -17.965  0.00  0.00    +0.317 C 
ATOM      7  C   UNL     1      31.377 -22.781 -16.688  0.00  0.00    +0.063 C 
ENDROOT
BRANCH   3   8
ATOM      8  O   UNL     1      35.751 -22.974 -14.596  0.00  0.00    -0.429 OA
BRANCH   8  13
ATOM      9  O   UNL     1      40.222 -24.775 -14.465  0.00  0.00    -0.435 OA
ATOM     10  O   UNL     1      39.399 -27.040 -14.398  0.00  0.00    -0.435 OA
ATOM     11  C   UNL     1      38.863 -24.832 -14.484  0.00  0.00    +0.179 C 
ATOM     12  C   UNL     1      38.393 -26.125 -14.445  0.00  0.00    +0.177 C 
ATOM     13  C   UNL     1      36.635 -24.009 -14.547  0.00  0.00    +0.151 C 
ATOM     14  C   UNL     1      38.007 -23.751 -14.535  0.00  0.00    +0.078 C 
ATOM     15  C   UNL     1      37.042 -26.408 -14.456  0.00  0.00    +0.043 C 
ATOM     16  C   UNL     1      36.155 -25.331 -14.507  0.00  0.00    +0.041 C 
ATOM     17  C   UNL     1      40.555 -26.178 -14.410  0.00  0.00    +0.429 C 
ENDBRANCH   8  13
ENDBRANCH   3   8
BRANCH   6  18
ATOM     18  O   UNL     1      35.387 -22.513 -19.192  0.00  0.00    -0.375 OA
BRANCH  18  20
ATOM     19  C   UNL     1      35.124 -18.818 -21.062  0.00  0.00    +0.057 C 
ATOM     20  C   UNL     1      35.299 -21.287 -19.813  0.00  0.00    +0.161 C 
ATOM     21  C   UNL     1      36.350 -19.265 -20.573  0.00  0.00    +0.018 C 
ATOM     22  C   UNL     1      33.985 -19.612 -20.924  0.00  0.00    +0.018 C 
ATOM     23  C   UNL     1      36.439 -20.508 -19.944  0.00  0.00    +0.040 C 
ATOM     24  C   UNL     1      34.073 -20.854 -20.296  0.00  0.00    +0.040 C 
BRANCH  19  25
ATOM     25  N   UNL     1      35.036 -17.585 -21.684  0.00  0.00    -0.246 N 
ATOM     26  N   UNL     1      34.787 -15.384 -21.937  0.00  0.00    -0.224 NA
ATOM     27  C   UNL     1      35.152 -17.337 -23.029  0.00  0.00    +0.092 C 
ATOM     28  C   UNL     1      34.817 -16.375 -21.074  0.00  0.00    +0.172 C 
ATOM     29  C   UNL     1      34.995 -15.977 -23.156  0.00  0.00    +0.117 C 
ENDBRANCH  19  25
ENDBRANCH  18  20
ENDBRANCH   6  18
TORSDOF 5
ENDMDL
MODEL 5
REMARK VINA RESULT:     -10.7      4.243      8.406
REMARK  Name = 10157080
REMARK  5 active torsions:
REMARK  status: ('A' for Active; 'I' for Inactive)
REMARK    1  A    between atoms: C_3  and  O_8
REMARK    2  A    between atoms: C_6  and  O_18
REMARK    3  A    between atoms: O_8  and  C_13
REMARK    4  A    between atoms: O_18  and  C_20
REMARK    5  A    between atoms: C_19  and  N_25
REMARK                            x       y       z     vdW  Elec       q    Type
REMARK                         _______ _______ _______ _____ _____    ______ ____
ROOT
ATOM      1  N   UNL     1      35.644 -17.581 -22.322  0.00  0.00    -0.277 NA
ATOM      2  N   UNL     1      34.176 -17.228 -24.201  0.00  0.00    -0.319 NA
ATOM      3  C   UNL     1      35.256 -18.867 -22.324  0.00  0.00    +0.278 C 
ATOM      4  C   UNL     1      34.353 -19.412 -23.204  0.00  0.00    +0.156 C 
ATOM      5  C   UNL     1      33.839 -18.533 -24.135  0.00  0.00    +0.113 C 
ATOM      6  C   UNL     1      35.071 -16.825 -23.278  0.00  0.00    +0.317 C 
ATOM      7  C   UNL     1      32.850 -19.021 -25.140  0.00  0.00    +0.063 C 
ENDROOT
BRANCH   3   8
ATOM      8  O   UNL     1      35.821 -19.684 -21.361  0.00  0.00    -0.429 OA
BRANCH   8  13
ATOM      9  O   UNL     1      34.918 -22.808 -17.800  0.00  0.00    -0.435 OA
ATOM     10  O   UNL     1      32.543 -22.428 -17.954  0.00  0.00    -0.435 OA
ATOM     11  C   UNL     1      34.600 -21.904 -18.766  0.00  0.00    +0.179 C 
ATOM     12  C   UNL     1      33.244 -21.687 -18.854  0.00  0.00    +0.177 C 
ATOM     13  C   UNL     1      34.977 -20.353 -20.526  0.00  0.00    +0.151 C 
ATOM     14  C   UNL     1      35.494 -21.251 -19.589  0.00  0.00    +0.078 C 
ATOM     15  C   UNL     1      32.707 -20.806 -19.770  0.00  0.00    +0.043 C 
ATOM     16  C   UNL     1      33.591 -20.132 -20.616  0.00  0.00    +0.041 C 
ATOM     17  C   UNL     1      33.609 -23.135 -17.289  0.00  0.00    +0.429 C 
ENDBRANCH   8  13
ENDBRANCH   3   8
BRANCH   6  18
ATOM     18  O   UNL     1      35.435 -15.500 -23.312  0.00  0.00    -0.375 OA
BRANCH  18  20
ATOM     19  C   UNL     1      32.855 -12.779 -21.534  0.00  0.00    +0.057 C 
ATOM     20  C   UNL     1      34.579 -14.596 -22.722  0.00  0.00    +0.161 C 
ATOM     21  C   UNL     1      33.413 -13.808 -20.776  0.00  0.00    +0.018 C 
ATOM     22  C   UNL     1      33.164 -12.664 -22.889  0.00  0.00    +0.018 C 
ATOM     23  C   UNL     1      34.281 -14.722 -21.374  0.00  0.00    +0.040 C 
ATOM     24  C   UNL     1      34.031 -13.577 -23.487  0.00  0.00    +0.040 C 
BRANCH  19  25
ATOM     25  N   UNL     1      31.994 -11.873 -20.941  0.00  0.00    -0.246 N 
ATOM     26  N   UNL     1      31.020 -10.645 -19.356  0.00  0.00    -0.224 NA
ATOM     27  C   UNL     1      31.023 -11.134 -21.569  0.00  0.00    +0.092 C 
ATOM     28  C   UNL     1      31.949 -11.540 -19.610  0.00  0.00    +0.172 C 
ATOM     29  C   UNL     1      30.440 -10.388 -20.573  0.00  0.00    +0.117 C 
ENDBRANCH  19  25
ENDBRANCH  18  20
ENDBRANCH   6  18
TORSDOF 5
ENDMDL
MODEL 6
REMARK VINA RESULT:     -10.5      5.210     11.314
REMARK  Name = 10157080
REMARK  5 active torsions:
REMARK  status: ('A' for Active; 'I' for Inactive)
REMARK    1  A    between atoms: C_3  and  O_8
REMARK    2  A    between atoms: C_6  and  O_18
REMARK    3  A    between atoms: O_8  and  C_13
REMARK    4  A    between atoms: O_18  and  C_20
REMARK    5  A    between atoms: C_19  and  N_25
REMARK                            x       y       z     vdW  Elec       q    Type
REMARK                         _______ _______ _______ _____ _____    ______ ____
ROOT
ATOM      1  N   UNL     1      35.443 -16.231 -22.943  0.00  0.00    -0.277 NA
ATOM      2  N   UNL     1      34.261 -17.963 -24.132  0.00  0.00    -0.319 NA
ATOM      3  C   UNL     1      34.604 -15.344 -23.501  0.00  0.00    +0.278 C 
ATOM      4  C   UNL     1      33.587 -15.664 -24.368  0.00  0.00    +0.156 C 
ATOM      5  C   UNL     1      33.460 -17.009 -24.651  0.00  0.00    +0.113 C 
ATOM      6  C   UNL     1      35.217 -17.510 -23.299  0.00  0.00    +0.317 C 
ATOM      7  C   UNL     1      32.387 -17.466 -25.581  0.00  0.00    +0.063 C 
ENDROOT
BRANCH   3   8
ATOM      8  O   UNL     1      34.795 -14.016 -23.164  0.00  0.00    -0.429 OA
BRANCH   8  13
ATOM      9  O   UNL     1      31.828 -10.329 -22.235  0.00  0.00    -0.435 OA
ATOM     10  O   UNL     1      30.896 -11.452 -20.317  0.00  0.00    -0.435 OA
ATOM     11  C   UNL     1      32.386 -11.554 -22.031  0.00  0.00    +0.179 C 
ATOM     12  C   UNL     1      31.853 -12.195 -20.936  0.00  0.00    +0.177 C 
ATOM     13  C   UNL     1      33.822 -13.403 -22.433  0.00  0.00    +0.151 C 
ATOM     14  C   UNL     1      33.373 -12.133 -22.801  0.00  0.00    +0.078 C 
ATOM     15  C   UNL     1      32.279 -13.450 -20.550  0.00  0.00    +0.043 C 
ATOM     16  C   UNL     1      33.278 -14.058 -21.314  0.00  0.00    +0.041 C 
ATOM     17  C   UNL     1      30.884 -10.272 -21.146  0.00  0.00    +0.429 C 
ENDBRANCH   8  13
ENDBRANCH   3   8
BRANCH   6  18
ATOM     18  O   UNL     1      36.055 -18.456 -22.754  0.00  0.00    -0.375 OA
BRANCH  18  20
ATOM     19  C   UNL     1      34.491 -20.880 -19.770  0.00  0.00    +0.057 C 
ATOM     20  C   UNL     1      35.535 -19.260 -21.763  0.00  0.00    +0.161 C 
ATOM     21  C   UNL     1      35.872 -20.723 -19.888  0.00  0.00    +0.018 C 
ATOM     22  C   UNL     1      33.636 -20.222 -20.654  0.00  0.00    +0.018 C 
ATOM     23  C   UNL     1      36.398 -19.907 -20.891  0.00  0.00    +0.040 C 
ATOM     24  C   UNL     1      34.161 -19.407 -21.656  0.00  0.00    +0.040 C 
BRANCH  19  25
ATOM     25  N   UNL     1      33.970 -21.689 -18.776  0.00  0.00    -0.246 N 
ATOM     26  N   UNL     1      32.464 -22.728 -17.503  0.00  0.00    -0.224 NA
ATOM     27  C   UNL     1      34.682 -22.429 -17.866  0.00  0.00    +0.092 C 
ATOM     28  C   UNL     1      32.640 -21.905 -18.512  0.00  0.00    +0.172 C 
ATOM     29  C   UNL     1      33.732 -23.057 -17.095  0.00  0.00    +0.117 C 
ENDBRANCH  19  25
ENDBRANCH  18  20
ENDBRANCH   6  18
TORSDOF 5
ENDMDL
MODEL 7
REMARK VINA RESULT:     -10.3      3.739      9.949
REMARK  Name = 10157080
REMARK  5 active torsions:
REMARK  status: ('A' for Active; 'I' for Inactive)
REMARK    1  A    between atoms: C_3  and  O_8
REMARK    2  A    between atoms: C_6  and  O_18
REMARK    3  A    between atoms: O_8  and  C_13
REMARK    4  A    between atoms: O_18  and  C_20
REMARK    5  A    between atoms: C_19  and  N_25
REMARK                            x       y       z     vdW  Elec       q    Type
REMARK                         _______ _______ _______ _____ _____    ______ ____
ROOT
ATOM      1  N   UNL     1      36.482 -19.765 -20.252  0.00  0.00    -0.277 NA
ATOM      2  N   UNL     1      34.690 -21.173 -19.468  0.00  0.00    -0.319 NA
ATOM      3  C   UNL     1      35.563 -19.058 -20.930  0.00  0.00    +0.278 C 
ATOM      4  C   UNL     1      34.216 -19.328 -20.939  0.00  0.00    +0.156 C 
ATOM      5  C   UNL     1      33.831 -20.413 -20.178  0.00  0.00    +0.113 C 
ATOM      6  C   UNL     1      35.981 -20.798 -19.549  0.00  0.00    +0.317 C 
ATOM      7  C   UNL     1      32.390 -20.793 -20.117  0.00  0.00    +0.063 C 
ENDROOT
BRANCH   3   8
ATOM      8  O   UNL     1      36.030 -17.984 -21.666  0.00  0.00    -0.429 OA
BRANCH   8  13
ATOM      9  O   UNL     1      33.977 -14.556 -24.366  0.00  0.00    -0.435 OA
ATOM     10  O   UNL     1      33.035 -16.185 -25.871  0.00  0.00    -0.435 OA
ATOM     11  C   UNL     1      34.294 -15.831 -24.011  0.00  0.00    +0.179 C 
ATOM     12  C   UNL     1      33.756 -16.761 -24.871  0.00  0.00    +0.177 C 
ATOM     13  C   UNL     1      35.278 -17.567 -22.724  0.00  0.00    +0.151 C 
ATOM     14  C   UNL     1      35.061 -16.203 -22.927  0.00  0.00    +0.078 C 
ATOM     15  C   UNL     1      33.955 -18.115 -24.693  0.00  0.00    +0.043 C 
ATOM     16  C   UNL     1      34.729 -18.518 -23.602  0.00  0.00    +0.041 C 
ATOM     17  C   UNL     1      33.180 -14.788 -25.545  0.00  0.00    +0.429 C 
ENDBRANCH   8  13
ENDBRANCH   3   8
BRANCH   6  18
ATOM     18  O   UNL     1      36.886 -21.553 -18.839  0.00  0.00    -0.375 OA
BRANCH  18  20
ATOM     19  C   UNL     1      35.681 -22.955 -15.124  0.00  0.00    +0.057 C 
ATOM     20  C   UNL     1      36.486 -22.019 -17.606  0.00  0.00    +0.161 C 
ATOM     21  C   UNL     1      34.799 -22.995 -16.203  0.00  0.00    +0.018 C 
ATOM     22  C   UNL     1      36.968 -22.445 -15.293  0.00  0.00    +0.018 C 
ATOM     23  C   UNL     1      35.204 -22.524 -17.453  0.00  0.00    +0.040 C 
ATOM     24  C   UNL     1      37.374 -21.974 -16.541  0.00  0.00    +0.040 C 
BRANCH  19  25
ATOM     25  N   UNL     1      35.279 -23.422 -13.885  0.00  0.00    -0.246 N 
ATOM     26  N   UNL     1      33.963 -24.267 -12.297  0.00  0.00    -0.224 NA
ATOM     27  C   UNL     1      36.047 -23.501 -12.751  0.00  0.00    +0.092 C 
ATOM     28  C   UNL     1      34.033 -23.895 -13.555  0.00  0.00    +0.172 C 
ATOM     29  C   UNL     1      35.214 -24.024 -11.790  0.00  0.00    +0.117 C 
ENDBRANCH  19  25
ENDBRANCH  18  20
ENDBRANCH   6  18
TORSDOF 5
ENDMDL
MODEL 8
REMARK VINA RESULT:     -10.3      6.107     12.202
REMARK  Name = 10157080
REMARK  5 active torsions:
REMARK  status: ('A' for Active; 'I' for Inactive)
REMARK    1  A    between atoms: C_3  and  O_8
REMARK    2  A    between atoms: C_6  and  O_18
REMARK    3  A    between atoms: O_8  and  C_13
REMARK    4  A    between atoms: O_18  and  C_20
REMARK    5  A    between atoms: C_19  and  N_25
REMARK                            x       y       z     vdW  Elec       q    Type
REMARK                         _______ _______ _______ _____ _____    ______ ____
ROOT
ATOM      1  N   UNL     1      34.467 -15.470 -22.457  0.00  0.00    -0.277 NA
ATOM      2  N   UNL     1      34.369 -15.733 -24.851  0.00  0.00    -0.319 NA
ATOM      3  C   UNL     1      33.595 -14.457 -22.582  0.00  0.00    +0.278 C 
ATOM      4  C   UNL     1      33.068 -14.018 -23.772  0.00  0.00    +0.156 C 
ATOM      5  C   UNL     1      33.497 -14.704 -24.891  0.00  0.00    +0.113 C 
ATOM      6  C   UNL     1      34.808 -16.058 -23.619  0.00  0.00    +0.317 C 
ATOM      7  C   UNL     1      32.986 -14.310 -26.236  0.00  0.00    +0.063 C 
ENDROOT
BRANCH   3   8
ATOM      8  O   UNL     1      33.213 -13.823 -21.413  0.00  0.00    -0.429 OA
BRANCH   8  13
ATOM      9  O   UNL     1      32.981  -9.395 -23.309  0.00  0.00    -0.435 OA
ATOM     10  O   UNL     1      31.090  -8.812 -21.933  0.00  0.00    -0.435 OA
ATOM     11  C   UNL     1      32.601 -10.416 -22.493  0.00  0.00    +0.179 C 
ATOM     12  C   UNL     1      31.521 -10.083 -21.708  0.00  0.00    +0.177 C 
ATOM     13  C   UNL     1      32.661 -12.581 -21.519  0.00  0.00    +0.151 C 
ATOM     14  C   UNL     1      33.194 -11.659 -22.422  0.00  0.00    +0.078 C 
ATOM     15  C   UNL     1      30.976 -10.975 -20.807  0.00  0.00    +0.043 C 
ATOM     16  C   UNL     1      31.558 -12.241 -20.716  0.00  0.00    +0.041 C 
ATOM     17  C   UNL     1      32.019  -8.382 -22.949  0.00  0.00    +0.429 C 
ENDBRANCH   8  13
ENDBRANCH   3   8
BRANCH   6  18
ATOM     18  O   UNL     1      35.702 -17.101 -23.541  0.00  0.00    -0.375 OA
BRANCH  18  20
ATOM     19  C   UNL     1      34.970 -20.011 -20.675  0.00  0.00    +0.057 C 
ATOM     20  C   UNL     1      35.459 -18.067 -22.589  0.00  0.00    +0.161 C 
ATOM     21  C   UNL     1      34.034 -19.772 -21.680  0.00  0.00    +0.018 C 
ATOM     22  C   UNL     1      36.152 -19.273 -20.632  0.00  0.00    +0.018 C 
ATOM     23  C   UNL     1      34.279 -18.794 -22.644  0.00  0.00    +0.040 C 
ATOM     24  C   UNL     1      36.399 -18.295 -21.596  0.00  0.00    +0.040 C 
BRANCH  19  25
ATOM     25  N   UNL     1      34.725 -20.981 -19.719  0.00  0.00    -0.246 N 
ATOM     26  N   UNL     1      35.120 -22.534 -18.168  0.00  0.00    -0.224 NA
ATOM     27  C   UNL     1      33.497 -21.428 -19.302  0.00  0.00    +0.092 C 
ATOM     28  C   UNL     1      35.667 -21.680 -19.005  0.00  0.00    +0.172 C 
ATOM     29  C   UNL     1      33.768 -22.382 -18.349  0.00  0.00    +0.117 C 
ENDBRANCH  19  25
ENDBRANCH  18  20
ENDBRANCH   6  18
TORSDOF 5
ENDMDL
MODEL 9
REMARK VINA RESULT:     -10.1      7.031     13.126
REMARK  Name = 10157080
REMARK  5 active torsions:
REMARK  status: ('A' for Active; 'I' for Inactive)
REMARK    1  A    between atoms: C_3  and  O_8
REMARK    2  A    between atoms: C_6  and  O_18
REMARK    3  A    between atoms: O_8  and  C_13
REMARK    4  A    between atoms: O_18  and  C_20
REMARK    5  A    between atoms: C_19  and  N_25
REMARK                            x       y       z     vdW  Elec       q    Type
REMARK                         _______ _______ _______ _____ _____    ______ ____
ROOT
ATOM      1  N   UNL     1      34.496 -13.848 -24.050  0.00  0.00    -0.277 NA
ATOM      2  N   UNL     1      33.847 -14.916 -21.988  0.00  0.00    -0.319 NA
ATOM      3  C   UNL     1      33.818 -12.763 -23.643  0.00  0.00    +0.278 C 
ATOM      4  C   UNL     1      33.138 -12.663 -22.453  0.00  0.00    +0.156 C 
ATOM      5  C   UNL     1      33.189 -13.787 -21.654  0.00  0.00    +0.113 C 
ATOM      6  C   UNL     1      34.470 -14.878 -23.183  0.00  0.00    +0.317 C 
ATOM      7  C   UNL     1      32.484 -13.786 -20.339  0.00  0.00    +0.063 C 
ENDROOT
BRANCH   3   8
ATOM      8  O   UNL     1      33.819 -11.677 -24.500  0.00  0.00    -0.429 OA
BRANCH   8  13
ATOM      9  O   UNL     1      31.862  -8.099 -21.927  0.00  0.00    -0.435 OA
ATOM     10  O   UNL     1      33.809  -6.709 -22.220  0.00  0.00    -0.435 OA
ATOM     11  C   UNL     1      32.827  -8.710 -22.667  0.00  0.00    +0.179 C 
ATOM     12  C   UNL     1      33.938  -7.916 -22.834  0.00  0.00    +0.177 C 
ATOM     13  C   UNL     1      33.847 -10.433 -23.945  0.00  0.00    +0.151 C 
ATOM     14  C   UNL     1      32.751  -9.975 -23.211  0.00  0.00    +0.078 C 
ATOM     15  C   UNL     1      35.035  -8.344 -23.555  0.00  0.00    +0.043 C 
ATOM     16  C   UNL     1      34.983  -9.622 -24.115  0.00  0.00    +0.041 C 
ATOM     17  C   UNL     1      32.492  -6.832 -21.646  0.00  0.00    +0.429 C 
ENDBRANCH   8  13
ENDBRANCH   3   8
BRANCH   6  18
ATOM     18  O   UNL     1      35.149 -16.014 -23.558  0.00  0.00    -0.375 OA
BRANCH  18  20
ATOM     19  C   UNL     1      34.783 -19.339 -21.102  0.00  0.00    +0.057 C 
ATOM     20  C   UNL     1      35.027 -17.118 -22.743  0.00  0.00    +0.161 C 
ATOM     21  C   UNL     1      35.382 -18.177 -20.617  0.00  0.00    +0.018 C 
ATOM     22  C   UNL     1      34.306 -19.384 -22.411  0.00  0.00    +0.018 C 
ATOM     23  C   UNL     1      35.505 -17.059 -21.442  0.00  0.00    +0.040 C 
ATOM     24  C   UNL     1      34.428 -18.267 -23.237  0.00  0.00    +0.040 C 
BRANCH  19  25
ATOM     25  N   UNL     1      34.662 -20.448 -20.283  0.00  0.00    -0.246 N 
ATOM     26  N   UNL     1      35.248 -22.221 -19.066  0.00  0.00    -0.224 NA
ATOM     27  C   UNL     1      33.498 -20.961 -19.767  0.00  0.00    +0.092 C 
ATOM     28  C   UNL     1      35.684 -21.244 -19.830  0.00  0.00    +0.172 C 
ATOM     29  C   UNL     1      33.887 -22.051 -19.024  0.00  0.00    +0.117 C 
ENDBRANCH  19  25
ENDBRANCH  18  20
ENDBRANCH   6  18
TORSDOF 5
ENDMDL
