MODEL 1
REMARK VINA RESULT:     -11.3      0.000      0.000
REMARK  Name = 447734
REMARK  5 active torsions:
REMARK  status: ('A' for Active; 'I' for Inactive)
REMARK    1  A    between atoms: C_3  and  C_19
REMARK    2  A    between atoms: C_9  and  C_13
REMARK    3  A    between atoms: N_18  and  C_24
REMARK    4  A    between atoms: C_21  and  O_27
REMARK    5  A    between atoms: O_27  and  C_28
REMARK                            x       y       z     vdW  Elec       q    Type
REMARK                         _______ _______ _______ _____ _____    ______ ____
ROOT
ATOM      1  C   UNL     1      35.132 -20.243 -20.466  0.00  0.00    +0.000 C 
ATOM      2  C   UNL     1      33.915 -19.800 -21.037  0.00  0.00    +0.000 C 
ATOM      3  C   UNL     1      33.893 -21.791 -19.056  0.00  0.00    +0.054 C 
ATOM      4  C   UNL     1      35.103 -21.239 -19.477  0.00  0.00    +0.005 C 
ATOM      5  C   UNL     1      32.706 -20.366 -20.602  0.00  0.00    +0.000 C 
ATOM      6  C   UNL     1      32.697 -21.355 -19.618  0.00  0.00    +0.005 C 
ATOM      7  C   UNL     1      33.944 -18.803 -22.027  0.00  0.00    +0.003 C 
ATOM      8  C   UNL     1      36.341 -19.677 -20.902  0.00  0.00    +0.000 C 
ATOM      9  C   UNL     1      35.154 -18.252 -22.448  0.00  0.00    +0.031 C 
ATOM     10  C   UNL     1      36.351 -18.688 -21.886  0.00  0.00    +0.003 C 
ENDROOT
BRANCH   9  13
ATOM     11  N   UNL     1      34.589 -17.436 -24.724  0.00  0.00    -0.343 N 
ATOM     12  N   UNL     1      35.739 -16.056 -23.229  0.00  0.00    -0.285 NA
ATOM     13  C   UNL     1      35.167 -17.222 -23.474  0.00  0.00    +0.117 C 
ATOM     14  H   UNL     1      34.608 -16.724 -25.404  0.00  0.00    +0.144 HD
ATOM     15  H   UNL     1      34.161 -18.300 -24.927  0.00  0.00    +0.144 HD
ATOM     16  H   UNL     1      35.748 -15.357 -23.922  0.00  0.00    +0.188 HD
ENDBRANCH   9  13
BRANCH   3  19
ATOM     17  O   UNL     1      33.757 -24.009 -18.369  0.00  0.00    -0.270 OA
ATOM     18  N   UNL     1      34.038 -22.372 -16.711  0.00  0.00    -0.280 N 
ATOM     19  C   UNL     1      33.881 -22.821 -18.030  0.00  0.00    +0.249 C 
ATOM     20  H   UNL     1      34.124 -21.399 -16.598  0.00  0.00    +0.155 HD
BRANCH  18  24
ATOM     21  C   UNL     1      35.366 -24.141 -13.757  0.00  0.00    +0.140 C 
ATOM     22  C   UNL     1      35.316 -23.387 -14.928  0.00  0.00    +0.052 C 
ATOM     23  C   UNL     1      34.189 -24.635 -13.194  0.00  0.00    +0.037 C 
ATOM     24  C   UNL     1      34.089 -23.137 -15.520  0.00  0.00    +0.054 C 
ATOM     25  C   UNL     1      32.962 -24.375 -13.804  0.00  0.00    +0.004 C 
ATOM     26  C   UNL     1      32.912 -23.621 -14.975  0.00  0.00    +0.015 C 
BRANCH  21  27
ATOM     27  O   UNL     1      36.563 -24.396 -13.161  0.00  0.00    -0.479 OA
BRANCH  27  28
ATOM     28  C   UNL     1      36.910 -25.761 -12.964  0.00  0.00    +0.166 C 
ATOM     29  C   UNL     1      38.169 -25.845 -12.114  0.00  0.00    +0.044 C 
ATOM     30  C   UNL     1      37.340 -26.394 -14.277  0.00  0.00    +0.044 C 
ATOM     31  C   UNL     1      39.311 -25.572 -13.093  0.00  0.00    +0.004 C 
ATOM     32  C   UNL     1      38.768 -25.895 -14.485  0.00  0.00    +0.004 C 
ENDBRANCH  27  28
ENDBRANCH  21  27
ENDBRANCH  18  24
ENDBRANCH   3  19
TORSDOF 5
ENDMDL
MODEL 2
REMARK VINA RESULT:     -10.9      7.805     12.036
REMARK  Name = 447734
REMARK  5 active torsions:
REMARK  status: ('A' for Active; 'I' for Inactive)
REMARK    1  A    between atoms: C_3  and  C_19
REMARK    2  A    between atoms: C_9  and  C_13
REMARK    3  A    between atoms: N_18  and  C_24
REMARK    4  A    between atoms: C_21  and  O_27
REMARK    5  A    between atoms: O_27  and  C_28
REMARK                            x       y       z     vdW  Elec       q    Type
REMARK                         _______ _______ _______ _____ _____    ______ ____
ROOT
ATOM      1  C   UNL     1      31.967  -8.897 -22.526  0.00  0.00    +0.000 C 
ATOM      2  C   UNL     1      31.606  -8.401 -21.251  0.00  0.00    +0.000 C 
ATOM      3  C   UNL     1      32.188 -11.128 -21.583  0.00  0.00    +0.054 C 
ATOM      4  C   UNL     1      32.255 -10.263 -22.675  0.00  0.00    +0.005 C 
ATOM      5  C   UNL     1      31.543  -9.285 -20.162  0.00  0.00    +0.000 C 
ATOM      6  C   UNL     1      31.832 -10.640 -20.328  0.00  0.00    +0.005 C 
ATOM      7  C   UNL     1      31.318  -7.033 -21.102  0.00  0.00    +0.003 C 
ATOM      8  C   UNL     1      32.029  -8.011 -23.615  0.00  0.00    +0.000 C 
ATOM      9  C   UNL     1      31.384  -6.168 -22.194  0.00  0.00    +0.031 C 
ATOM     10  C   UNL     1      31.739  -6.657 -23.449  0.00  0.00    +0.003 C 
ENDROOT
BRANCH   9  13
ATOM     11  N   UNL     1      31.890  -3.770 -22.587  0.00  0.00    -0.343 N 
ATOM     12  N   UNL     1      30.029  -4.389 -21.316  0.00  0.00    -0.285 NA
ATOM     13  C   UNL     1      31.083  -4.756 -22.023  0.00  0.00    +0.117 C 
ATOM     14  H   UNL     1      31.667  -2.819 -22.459  0.00  0.00    +0.144 HD
ATOM     15  H   UNL     1      32.682  -4.023 -23.115  0.00  0.00    +0.144 HD
ATOM     16  H   UNL     1      29.823  -3.433 -21.200  0.00  0.00    +0.188 HD
ENDBRANCH   9  13
BRANCH   3  19
ATOM     17  O   UNL     1      32.065 -13.353 -20.916  0.00  0.00    -0.270 OA
ATOM     18  N   UNL     1      33.234 -12.873 -22.893  0.00  0.00    -0.280 N 
ATOM     19  C   UNL     1      32.489 -12.540 -21.754  0.00  0.00    +0.249 C 
ATOM     20  H   UNL     1      33.502 -12.118 -23.465  0.00  0.00    +0.155 HD
BRANCH  18  24
ATOM     21  C   UNL     1      34.731 -16.247 -22.874  0.00  0.00    +0.140 C 
ATOM     22  C   UNL     1      34.317 -14.987 -22.444  0.00  0.00    +0.052 C 
ATOM     23  C   UNL     1      34.474 -16.656 -24.183  0.00  0.00    +0.037 C 
ATOM     24  C   UNL     1      33.653 -14.154 -23.330  0.00  0.00    +0.054 C 
ATOM     25  C   UNL     1      33.805 -15.805 -25.061  0.00  0.00    +0.004 C 
ATOM     26  C   UNL     1      33.391 -14.545 -24.632  0.00  0.00    +0.015 C 
BRANCH  21  27
ATOM     27  O   UNL     1      35.384 -17.078 -22.017  0.00  0.00    -0.479 OA
BRANCH  27  28
ATOM     28  C   UNL     1      35.857 -18.311 -22.546  0.00  0.00    +0.166 C 
ATOM     29  C   UNL     1      34.931 -19.437 -22.110  0.00  0.00    +0.044 C 
ATOM     30  C   UNL     1      37.183 -18.688 -21.905  0.00  0.00    +0.044 C 
ATOM     31  C   UNL     1      35.359 -19.750 -20.676  0.00  0.00    +0.004 C 
ATOM     32  C   UNL     1      36.793 -19.241 -20.536  0.00  0.00    +0.004 C 
ENDBRANCH  27  28
ENDBRANCH  21  27
ENDBRANCH  18  24
ENDBRANCH   3  19
TORSDOF 5
ENDMDL
MODEL 3
REMARK VINA RESULT:     -10.8      3.299     10.832
REMARK  Name = 447734
REMARK  5 active torsions:
REMARK  status: ('A' for Active; 'I' for Inactive)
REMARK    1  A    between atoms: C_3  and  C_19
REMARK    2  A    between atoms: C_9  and  C_13
REMARK    3  A    between atoms: N_18  and  C_24
REMARK    4  A    between atoms: C_21  and  O_27
REMARK    5  A    between atoms: O_27  and  C_28
REMARK                            x       y       z     vdW  Elec       q    Type
REMARK                         _______ _______ _______ _____ _____    ______ ____
ROOT
ATOM      1  C   UNL     1      34.207 -22.404 -17.578  0.00  0.00    +0.000 C 
ATOM      2  C   UNL     1      35.589 -22.376 -17.276  0.00  0.00    +0.000 C 
ATOM      3  C   UNL     1      34.609 -20.964 -19.497  0.00  0.00    +0.054 C 
ATOM      4  C   UNL     1      33.733 -21.693 -18.692  0.00  0.00    +0.005 C 
ATOM      5  C   UNL     1      36.457 -21.638 -18.097  0.00  0.00    +0.000 C 
ATOM      6  C   UNL     1      35.968 -20.936 -19.200  0.00  0.00    +0.005 C 
ATOM      7  C   UNL     1      36.064 -23.089 -16.162  0.00  0.00    +0.003 C 
ATOM      8  C   UNL     1      33.340 -23.144 -16.757  0.00  0.00    +0.000 C 
ATOM      9  C   UNL     1      35.188 -23.818 -15.358  0.00  0.00    +0.031 C 
ATOM     10  C   UNL     1      33.828 -23.846 -15.655  0.00  0.00    +0.003 C 
ENDROOT
BRANCH   9  13
ATOM     11  N   UNL     1      34.858 -24.918 -13.156  0.00  0.00    -0.343 N 
ATOM     12  N   UNL     1      36.974 -24.873 -14.145  0.00  0.00    -0.285 NA
ATOM     13  C   UNL     1      35.695 -24.550 -14.208  0.00  0.00    +0.117 C 
ATOM     14  H   UNL     1      35.222 -25.414 -12.387  0.00  0.00    +0.144 HD
ATOM     15  H   UNL     1      33.902 -24.683 -13.183  0.00  0.00    +0.144 HD
ATOM     16  H   UNL     1      37.320 -25.369 -13.368  0.00  0.00    +0.188 HD
ENDBRANCH   9  13
BRANCH   3  19
ATOM     17  O   UNL     1      32.903 -20.344 -20.953  0.00  0.00    -0.270 OA
ATOM     18  N   UNL     1      35.030 -19.419 -21.312  0.00  0.00    -0.280 N 
ATOM     19  C   UNL     1      34.102 -20.231 -20.646  0.00  0.00    +0.249 C 
ATOM     20  H   UNL     1      35.946 -19.433 -20.952  0.00  0.00    +0.155 HD
BRANCH  18  24
ATOM     21  C   UNL     1      34.738 -16.385 -23.393  0.00  0.00    +0.140 C 
ATOM     22  C   UNL     1      34.944 -17.210 -22.288  0.00  0.00    +0.052 C 
ATOM     23  C   UNL     1      34.413 -16.944 -24.630  0.00  0.00    +0.037 C 
ATOM     24  C   UNL     1      34.822 -18.581 -22.435  0.00  0.00    +0.054 C 
ATOM     25  C   UNL     1      34.294 -18.328 -24.760  0.00  0.00    +0.004 C 
ATOM     26  C   UNL     1      34.500 -19.152 -23.655  0.00  0.00    +0.015 C 
BRANCH  21  27
ATOM     27  O   UNL     1      34.854 -15.035 -23.267  0.00  0.00    -0.479 OA
BRANCH  27  28
ATOM     28  C   UNL     1      33.663 -14.307 -22.996  0.00  0.00    +0.166 C 
ATOM     29  C   UNL     1      32.810 -14.244 -24.254  0.00  0.00    +0.044 C 
ATOM     30  C   UNL     1      33.986 -12.845 -22.726  0.00  0.00    +0.044 C 
ATOM     31  C   UNL     1      33.443 -13.131 -25.090  0.00  0.00    +0.004 C 
ATOM     32  C   UNL     1      34.224 -12.252 -24.113  0.00  0.00    +0.004 C 
ENDBRANCH  27  28
ENDBRANCH  21  27
ENDBRANCH  18  24
ENDBRANCH   3  19
TORSDOF 5
ENDMDL
MODEL 4
REMARK VINA RESULT:     -10.7      3.261      5.235
REMARK  Name = 447734
REMARK  5 active torsions:
REMARK  status: ('A' for Active; 'I' for Inactive)
REMARK    1  A    between atoms: C_3  and  C_19
REMARK    2  A    between atoms: C_9  and  C_13
REMARK    3  A    between atoms: N_18  and  C_24
REMARK    4  A    between atoms: C_21  and  O_27
REMARK    5  A    between atoms: O_27  and  C_28
REMARK                            x       y       z     vdW  Elec       q    Type
REMARK                         _______ _______ _______ _____ _____    ______ ____
ROOT
ATOM      1  C   UNL     1      34.583 -16.693 -22.748  0.00  0.00    +0.000 C 
ATOM      2  C   UNL     1      34.182 -17.311 -23.956  0.00  0.00    +0.000 C 
ATOM      3  C   UNL     1      34.998 -18.884 -21.778  0.00  0.00    +0.054 C 
ATOM      4  C   UNL     1      34.988 -17.494 -21.668  0.00  0.00    +0.005 C 
ATOM      5  C   UNL     1      34.198 -18.712 -24.049  0.00  0.00    +0.000 C 
ATOM      6  C   UNL     1      34.604 -19.492 -22.967  0.00  0.00    +0.005 C 
ATOM      7  C   UNL     1      33.776 -16.509 -25.036  0.00  0.00    +0.003 C 
ATOM      8  C   UNL     1      34.566 -15.291 -22.655  0.00  0.00    +0.000 C 
ATOM      9  C   UNL     1      33.767 -15.118 -24.927  0.00  0.00    +0.031 C 
ATOM     10  C   UNL     1      34.161 -14.510 -23.738  0.00  0.00    +0.003 C 
ENDROOT
BRANCH   9  13
ATOM     11  N   UNL     1      32.041 -13.819 -26.150  0.00  0.00    -0.343 N 
ATOM     12  N   UNL     1      34.203 -14.013 -27.015  0.00  0.00    -0.285 NA
ATOM     13  C   UNL     1      33.344 -14.302 -26.054  0.00  0.00    +0.117 C 
ATOM     14  H   UNL     1      31.776 -13.268 -26.922  0.00  0.00    +0.144 HD
ATOM     15  H   UNL     1      31.385 -14.027 -25.446  0.00  0.00    +0.144 HD
ATOM     16  H   UNL     1      33.919 -13.460 -27.779  0.00  0.00    +0.188 HD
ENDBRANCH   9  13
BRANCH   3  19
ATOM     17  O   UNL     1      36.591 -19.613 -20.247  0.00  0.00    -0.270 OA
ATOM     18  N   UNL     1      34.433 -20.519 -20.085  0.00  0.00    -0.280 N 
ATOM     19  C   UNL     1      35.420 -19.700 -20.650  0.00  0.00    +0.249 C 
ATOM     20  H   UNL     1      33.548 -20.482 -20.514  0.00  0.00    +0.155 HD
BRANCH  18  24
ATOM     21  C   UNL     1      33.511 -22.871 -17.394  0.00  0.00    +0.140 C 
ATOM     22  C   UNL     1      33.403 -22.011 -18.486  0.00  0.00    +0.052 C 
ATOM     23  C   UNL     1      34.756 -23.101 -16.808  0.00  0.00    +0.037 C 
ATOM     24  C   UNL     1      34.542 -21.394 -18.976  0.00  0.00    +0.054 C 
ATOM     25  C   UNL     1      35.892 -22.471 -17.314  0.00  0.00    +0.004 C 
ATOM     26  C   UNL     1      35.785 -21.611 -18.406  0.00  0.00    +0.015 C 
BRANCH  21  27
ATOM     27  O   UNL     1      32.403 -23.486 -16.899  0.00  0.00    -0.479 OA
BRANCH  27  28
ATOM     28  C   UNL     1      31.610 -22.748 -15.977  0.00  0.00    +0.166 C 
ATOM     29  C   UNL     1      32.017 -23.113 -14.557  0.00  0.00    +0.044 C 
ATOM     30  C   UNL     1      30.160 -23.199 -16.046  0.00  0.00    +0.044 C 
ATOM     31  C   UNL     1      31.310 -24.442 -14.286  0.00  0.00    +0.004 C 
ATOM     32  C   UNL     1      30.137 -24.510 -15.263  0.00  0.00    +0.004 C 
ENDBRANCH  27  28
ENDBRANCH  21  27
ENDBRANCH  18  24
ENDBRANCH   3  19
TORSDOF 5
ENDMDL
MODEL 5
REMARK VINA RESULT:     -10.5      4.514     11.865
REMARK  Name = 447734
REMARK  5 active torsions:
REMARK  status: ('A' for Active; 'I' for Inactive)
REMARK    1  A    between atoms: C_3  and  C_19
REMARK    2  A    between atoms: C_9  and  C_13
REMARK    3  A    between atoms: N_18  and  C_24
REMARK    4  A    between atoms: C_21  and  O_27
REMARK    5  A    between atoms: O_27  and  C_28
REMARK                            x       y       z     vdW  Elec       q    Type
REMARK                         _______ _______ _______ _____ _____    ______ ____
ROOT
ATOM      1  C   UNL     1      34.249 -20.678 -19.959  0.00  0.00    +0.000 C 
ATOM      2  C   UNL     1      35.590 -20.764 -19.516  0.00  0.00    +0.000 C 
ATOM      3  C   UNL     1      34.941 -19.153 -21.723  0.00  0.00    +0.054 C 
ATOM      4  C   UNL     1      33.941 -19.868 -21.063  0.00  0.00    +0.005 C 
ATOM      5  C   UNL     1      36.584 -20.038 -20.191  0.00  0.00    +0.000 C 
ATOM      6  C   UNL     1      36.260 -19.238 -21.287  0.00  0.00    +0.005 C 
ATOM      7  C   UNL     1      35.898 -21.575 -18.411  0.00  0.00    +0.003 C 
ATOM      8  C   UNL     1      33.255 -21.405 -19.283  0.00  0.00    +0.000 C 
ATOM      9  C   UNL     1      34.899 -22.291 -17.752  0.00  0.00    +0.031 C 
ATOM     10  C   UNL     1      33.579 -22.206 -18.187  0.00  0.00    +0.003 C 
ENDROOT
BRANCH   9  13
ATOM     11  N   UNL     1      36.425 -22.949 -15.908  0.00  0.00    -0.343 N 
ATOM     12  N   UNL     1      34.404 -24.077 -16.224  0.00  0.00    -0.285 NA
ATOM     13  C   UNL     1      35.234 -23.125 -16.610  0.00  0.00    +0.117 C 
ATOM     14  H   UNL     1      36.632 -23.525 -15.137  0.00  0.00    +0.144 HD
ATOM     15  H   UNL     1      37.059 -22.246 -16.182  0.00  0.00    +0.144 HD
ATOM     16  H   UNL     1      34.629 -24.643 -15.450  0.00  0.00    +0.188 HD
ENDBRANCH   9  13
BRANCH   3  19
ATOM     17  O   UNL     1      34.368 -18.857 -23.958  0.00  0.00    -0.270 OA
ATOM     18  N   UNL     1      34.553 -16.938 -22.619  0.00  0.00    -0.280 N 
ATOM     19  C   UNL     1      34.605 -18.317 -22.865  0.00  0.00    +0.249 C 
ATOM     20  H   UNL     1      34.767 -16.659 -21.700  0.00  0.00    +0.155 HD
BRANCH  18  24
ATOM     21  C   UNL     1      34.086 -13.551 -24.009  0.00  0.00    +0.140 C 
ATOM     22  C   UNL     1      34.402 -14.578 -23.122  0.00  0.00    +0.052 C 
ATOM     23  C   UNL     1      33.606 -13.853 -25.284  0.00  0.00    +0.037 C 
ATOM     24  C   UNL     1      34.234 -15.894 -23.521  0.00  0.00    +0.054 C 
ATOM     25  C   UNL     1      33.443 -15.183 -25.670  0.00  0.00    +0.004 C 
ATOM     26  C   UNL     1      33.759 -16.211 -24.783  0.00  0.00    +0.015 C 
BRANCH  21  27
ATOM     27  O   UNL     1      34.245 -12.253 -23.633  0.00  0.00    -0.479 OA
BRANCH  27  28
ATOM     28  C   UNL     1      33.751 -11.257 -24.520  0.00  0.00    +0.166 C 
ATOM     29  C   UNL     1      34.921 -10.555 -25.193  0.00  0.00    +0.044 C 
ATOM     30  C   UNL     1      33.081 -10.137 -23.739  0.00  0.00    +0.044 C 
ATOM     31  C   UNL     1      35.416  -9.552 -24.151  0.00  0.00    +0.004 C 
ATOM     32  C   UNL     1      34.245  -9.308 -23.200  0.00  0.00    +0.004 C 
ENDBRANCH  27  28
ENDBRANCH  21  27
ENDBRANCH  18  24
ENDBRANCH   3  19
TORSDOF 5
ENDMDL
MODEL 6
REMARK VINA RESULT:     -10.5      7.845     12.357
REMARK  Name = 447734
REMARK  5 active torsions:
REMARK  status: ('A' for Active; 'I' for Inactive)
REMARK    1  A    between atoms: C_3  and  C_19
REMARK    2  A    between atoms: C_9  and  C_13
REMARK    3  A    between atoms: N_18  and  C_24
REMARK    4  A    between atoms: C_21  and  O_27
REMARK    5  A    between atoms: O_27  and  C_28
REMARK                            x       y       z     vdW  Elec       q    Type
REMARK                         _______ _______ _______ _____ _____    ______ ____
ROOT
ATOM      1  C   UNL     1      32.013  -8.584 -22.843  0.00  0.00    +0.000 C 
ATOM      2  C   UNL     1      33.155  -7.906 -23.328  0.00  0.00    +0.000 C 
ATOM      3  C   UNL     1      33.206 -10.697 -23.021  0.00  0.00    +0.054 C 
ATOM      4  C   UNL     1      32.054  -9.980 -22.696  0.00  0.00    +0.005 C 
ATOM      5  C   UNL     1      34.306  -8.642 -23.652  0.00  0.00    +0.000 C 
ATOM      6  C   UNL     1      34.330 -10.029 -23.499  0.00  0.00    +0.005 C 
ATOM      7  C   UNL     1      33.114  -6.509 -23.476  0.00  0.00    +0.003 C 
ATOM      8  C   UNL     1      30.862  -7.847 -22.520  0.00  0.00    +0.000 C 
ATOM      9  C   UNL     1      31.962  -5.792 -23.149  0.00  0.00    +0.031 C 
ATOM     10  C   UNL     1      30.838  -6.460 -22.672  0.00  0.00    +0.003 C 
ENDROOT
BRANCH   9  13
ATOM     11  N   UNL     1      32.402  -3.737 -24.471  0.00  0.00    -0.343 N 
ATOM     12  N   UNL     1      31.467  -3.587 -22.334  0.00  0.00    -0.285 NA
ATOM     13  C   UNL     1      31.936  -4.347 -23.308  0.00  0.00    +0.117 C 
ATOM     14  H   UNL     1      32.374  -2.756 -24.557  0.00  0.00    +0.144 HD
ATOM     15  H   UNL     1      32.758  -4.286 -25.206  0.00  0.00    +0.144 HD
ATOM     16  H   UNL     1      31.448  -2.608 -22.440  0.00  0.00    +0.188 HD
ENDBRANCH   9  13
BRANCH   3  19
ATOM     17  O   UNL     1      32.762 -12.645 -21.830  0.00  0.00    -0.270 OA
ATOM     18  N   UNL     1      33.780 -12.864 -23.933  0.00  0.00    -0.280 N 
ATOM     19  C   UNL     1      33.232 -12.142 -22.864  0.00  0.00    +0.249 C 
ATOM     20  H   UNL     1      34.114 -12.326 -24.686  0.00  0.00    +0.155 HD
BRANCH  18  24
ATOM     21  C   UNL     1      34.722 -16.363 -23.231  0.00  0.00    +0.140 C 
ATOM     22  C   UNL     1      34.587 -14.982 -23.094  0.00  0.00    +0.052 C 
ATOM     23  C   UNL     1      34.183 -17.009 -24.344  0.00  0.00    +0.037 C 
ATOM     24  C   UNL     1      33.916 -14.267 -24.072  0.00  0.00    +0.054 C 
ATOM     25  C   UNL     1      33.511 -16.274 -25.320  0.00  0.00    +0.004 C 
ATOM     26  C   UNL     1      33.376 -14.893 -25.183  0.00  0.00    +0.015 C 
BRANCH  21  27
ATOM     27  O   UNL     1      35.378 -17.081 -22.279  0.00  0.00    -0.479 OA
BRANCH  27  28
ATOM     28  C   UNL     1      35.875 -18.358 -22.660  0.00  0.00    +0.166 C 
ATOM     29  C   UNL     1      34.933 -19.439 -22.153  0.00  0.00    +0.044 C 
ATOM     30  C   UNL     1      37.173 -18.661 -21.928  0.00  0.00    +0.044 C 
ATOM     31  C   UNL     1      35.298 -19.604 -20.678  0.00  0.00    +0.004 C 
ATOM     32  C   UNL     1      36.725 -19.075 -20.528  0.00  0.00    +0.004 C 
ENDBRANCH  27  28
ENDBRANCH  21  27
ENDBRANCH  18  24
ENDBRANCH   3  19
TORSDOF 5
ENDMDL
MODEL 7
REMARK VINA RESULT:     -10.2      6.900     11.278
REMARK  Name = 447734
REMARK  5 active torsions:
REMARK  status: ('A' for Active; 'I' for Inactive)
REMARK    1  A    between atoms: C_3  and  C_19
REMARK    2  A    between atoms: C_9  and  C_13
REMARK    3  A    between atoms: N_18  and  C_24
REMARK    4  A    between atoms: C_21  and  O_27
REMARK    5  A    between atoms: O_27  and  C_28
REMARK                            x       y       z     vdW  Elec       q    Type
REMARK                         _______ _______ _______ _____ _____    ______ ____
ROOT
ATOM      1  C   UNL     1      32.365  -9.866 -22.189  0.00  0.00    +0.000 C 
ATOM      2  C   UNL     1      33.203  -9.212 -23.123  0.00  0.00    +0.000 C 
ATOM      3  C   UNL     1      33.295 -12.007 -22.875  0.00  0.00    +0.054 C 
ATOM      4  C   UNL     1      32.423 -11.265 -22.078  0.00  0.00    +0.005 C 
ATOM      5  C   UNL     1      34.074  -9.974 -23.917  0.00  0.00    +0.000 C 
ATOM      6  C   UNL     1      34.119 -11.363 -23.793  0.00  0.00    +0.005 C 
ATOM      7  C   UNL     1      33.145  -7.812 -23.234  0.00  0.00    +0.003 C 
ATOM      8  C   UNL     1      31.494  -9.103 -21.394  0.00  0.00    +0.000 C 
ATOM      9  C   UNL     1      32.274  -7.070 -22.436  0.00  0.00    +0.031 C 
ATOM     10  C   UNL     1      31.450  -7.714 -21.518  0.00  0.00    +0.003 C 
ENDROOT
BRANCH   9  13
ATOM     11  N   UNL     1      32.566  -4.988 -23.757  0.00  0.00    -0.343 N 
ATOM     12  N   UNL     1      31.859  -4.882 -21.533  0.00  0.00    -0.285 NA
ATOM     13  C   UNL     1      32.226  -5.622 -22.564  0.00  0.00    +0.117 C 
ATOM     14  H   UNL     1      32.526  -4.006 -23.822  0.00  0.00    +0.144 HD
ATOM     15  H   UNL     1      32.845  -5.522 -24.536  0.00  0.00    +0.144 HD
ATOM     16  H   UNL     1      31.826  -3.902 -21.617  0.00  0.00    +0.188 HD
ENDBRANCH   9  13
BRANCH   3  19
ATOM     17  O   UNL     1      32.942 -13.982 -21.697  0.00  0.00    -0.270 OA
ATOM     18  N   UNL     1      33.826 -14.151 -23.864  0.00  0.00    -0.280 N 
ATOM     19  C   UNL     1      33.342 -13.455 -22.748  0.00  0.00    +0.249 C 
ATOM     20  H   UNL     1      34.108 -13.596 -24.626  0.00  0.00    +0.155 HD
BRANCH  18  24
ATOM     21  C   UNL     1      34.988 -17.625 -23.411  0.00  0.00    +0.140 C 
ATOM     22  C   UNL     1      34.852 -16.249 -23.238  0.00  0.00    +0.052 C 
ATOM     23  C   UNL     1      34.234 -18.284 -24.382  0.00  0.00    +0.037 C 
ATOM     24  C   UNL     1      33.964 -15.550 -24.039  0.00  0.00    +0.054 C 
ATOM     25  C   UNL     1      33.344 -17.566 -25.181  0.00  0.00    +0.004 C 
ATOM     26  C   UNL     1      33.208 -16.189 -25.008  0.00  0.00    +0.015 C 
BRANCH  21  27
ATOM     27  O   UNL     1      35.856 -18.327 -22.633  0.00  0.00    -0.479 OA
BRANCH  27  28
ATOM     28  C   UNL     1      35.754 -18.147 -21.225  0.00  0.00    +0.166 C 
ATOM     29  C   UNL     1      36.935 -18.821 -20.543  0.00  0.00    +0.044 C 
ATOM     30  C   UNL     1      34.559 -18.913 -20.679  0.00  0.00    +0.044 C 
ATOM     31  C   UNL     1      36.559 -20.302 -20.502  0.00  0.00    +0.004 C 
ATOM     32  C   UNL     1      35.037 -20.362 -20.621  0.00  0.00    +0.004 C 
ENDBRANCH  27  28
ENDBRANCH  21  27
ENDBRANCH  18  24
ENDBRANCH   3  19
TORSDOF 5
ENDMDL
MODEL 8
REMARK VINA RESULT:     -10.2      3.328     10.301
REMARK  Name = 447734
REMARK  5 active torsions:
REMARK  status: ('A' for Active; 'I' for Inactive)
REMARK    1  A    between atoms: C_3  and  C_19
REMARK    2  A    between atoms: C_9  and  C_13
REMARK    3  A    between atoms: N_18  and  C_24
REMARK    4  A    between atoms: C_21  and  O_27
REMARK    5  A    between atoms: O_27  and  C_28
REMARK                            x       y       z     vdW  Elec       q    Type
REMARK                         _______ _______ _______ _____ _____    ______ ____
ROOT
ATOM      1  C   UNL     1      32.369 -22.857 -16.834  0.00  0.00    +0.000 C 
ATOM      2  C   UNL     1      33.113 -23.354 -15.738  0.00  0.00    +0.000 C 
ATOM      3  C   UNL     1      34.444 -22.340 -17.994  0.00  0.00    +0.054 C 
ATOM      4  C   UNL     1      33.050 -22.353 -17.954  0.00  0.00    +0.005 C 
ATOM      5  C   UNL     1      34.516 -23.333 -15.794  0.00  0.00    +0.000 C 
ATOM      6  C   UNL     1      35.176 -22.829 -16.915  0.00  0.00    +0.005 C 
ATOM      7  C   UNL     1      32.432 -23.858 -14.618  0.00  0.00    +0.003 C 
ATOM      8  C   UNL     1      30.966 -22.878 -16.778  0.00  0.00    +0.000 C 
ATOM      9  C   UNL     1      31.037 -23.872 -14.579  0.00  0.00    +0.031 C 
ATOM     10  C   UNL     1      30.306 -23.383 -15.657  0.00  0.00    +0.003 C 
ENDROOT
BRANCH   9  13
ATOM     11  N   UNL     1      29.328 -25.339 -13.535  0.00  0.00    -0.343 N 
ATOM     12  N   UNL     1      30.681 -23.976 -12.205  0.00  0.00    -0.285 NA
ATOM     13  C   UNL     1      30.348 -24.397 -13.411  0.00  0.00    +0.117 C 
ATOM     14  H   UNL     1      28.875 -25.682 -12.731  0.00  0.00    +0.144 HD
ATOM     15  H   UNL     1      29.063 -25.664 -14.426  0.00  0.00    +0.144 HD
ATOM     16  H   UNL     1      30.216 -24.330 -11.413  0.00  0.00    +0.188 HD
ENDBRANCH   9  13
BRANCH   3  19
ATOM     17  O   UNL     1      35.712 -22.603 -19.926  0.00  0.00    -0.270 OA
ATOM     18  N   UNL     1      35.066 -20.425 -19.338  0.00  0.00    -0.280 N 
ATOM     19  C   UNL     1      35.135 -21.814 -19.160  0.00  0.00    +0.249 C 
ATOM     20  H   UNL     1      34.572 -19.930 -18.646  0.00  0.00    +0.155 HD
BRANCH  18  24
ATOM     21  C   UNL     1      35.306 -18.140 -22.226  0.00  0.00    +0.140 C 
ATOM     22  C   UNL     1      34.766 -18.910 -21.197  0.00  0.00    +0.052 C 
ATOM     23  C   UNL     1      36.686 -18.113 -22.426  0.00  0.00    +0.037 C 
ATOM     24  C   UNL     1      35.614 -19.641 -20.382  0.00  0.00    +0.054 C 
ATOM     25  C   UNL     1      37.526 -18.856 -21.597  0.00  0.00    +0.004 C 
ATOM     26  C   UNL     1      36.986 -19.626 -20.568  0.00  0.00    +0.015 C 
BRANCH  21  27
ATOM     27  O   UNL     1      34.487 -17.415 -23.036  0.00  0.00    -0.479 OA
BRANCH  27  28
ATOM     28  C   UNL     1      35.090 -16.388 -23.813  0.00  0.00    +0.166 C 
ATOM     29  C   UNL     1      34.714 -15.031 -23.237  0.00  0.00    +0.044 C 
ATOM     30  C   UNL     1      34.481 -16.350 -25.206  0.00  0.00    +0.044 C 
ATOM     31  C   UNL     1      33.304 -14.769 -23.765  0.00  0.00    +0.004 C 
ATOM     32  C   UNL     1      33.143 -15.639 -25.011  0.00  0.00    +0.004 C 
ENDBRANCH  27  28
ENDBRANCH  21  27
ENDBRANCH  18  24
ENDBRANCH   3  19
TORSDOF 5
ENDMDL
MODEL 9
REMARK VINA RESULT:      -9.7      1.640      3.703
REMARK  Name = 447734
REMARK  5 active torsions:
REMARK  status: ('A' for Active; 'I' for Inactive)
REMARK    1  A    between atoms: C_3  and  C_19
REMARK    2  A    between atoms: C_9  and  C_13
REMARK    3  A    between atoms: N_18  and  C_24
REMARK    4  A    between atoms: C_21  and  O_27
REMARK    5  A    between atoms: O_27  and  C_28
REMARK                            x       y       z     vdW  Elec       q    Type
REMARK                         _______ _______ _______ _____ _____    ______ ____
ROOT
ATOM      1  C   UNL     1      34.666 -19.739 -21.465  0.00  0.00    +0.000 C 
ATOM      2  C   UNL     1      35.780 -18.868 -21.434  0.00  0.00    +0.000 C 
ATOM      3  C   UNL     1      35.572 -20.950 -19.561  0.00  0.00    +0.054 C 
ATOM      4  C   UNL     1      34.577 -20.775 -20.522  0.00  0.00    +0.005 C 
ATOM      5  C   UNL     1      36.774 -19.058 -20.460  0.00  0.00    +0.000 C 
ATOM      6  C   UNL     1      36.669 -20.093 -19.530  0.00  0.00    +0.005 C 
ATOM      7  C   UNL     1      35.869 -17.831 -22.378  0.00  0.00    +0.003 C 
ATOM      8  C   UNL     1      33.672 -19.548 -22.440  0.00  0.00    +0.000 C 
ATOM      9  C   UNL     1      34.873 -17.655 -23.339  0.00  0.00    +0.031 C 
ATOM     10  C   UNL     1      33.776 -18.512 -23.370  0.00  0.00    +0.003 C 
ENDROOT
BRANCH   9  13
ATOM     11  N   UNL     1      35.483 -15.328 -23.951  0.00  0.00    -0.343 N 
ATOM     12  N   UNL     1      34.590 -16.773 -25.556  0.00  0.00    -0.285 NA
ATOM     13  C   UNL     1      34.980 -16.577 -24.309  0.00  0.00    +0.117 C 
ATOM     14  H   UNL     1      35.547 -14.612 -24.625  0.00  0.00    +0.144 HD
ATOM     15  H   UNL     1      35.775 -15.161 -23.026  0.00  0.00    +0.144 HD
ATOM     16  H   UNL     1      34.662 -16.045 -26.214  0.00  0.00    +0.188 HD
ENDBRANCH   9  13
BRANCH   3  19
ATOM     17  O   UNL     1      34.861 -23.066 -18.907  0.00  0.00    -0.270 OA
ATOM     18  N   UNL     1      36.094 -21.806 -17.358  0.00  0.00    -0.280 N 
ATOM     19  C   UNL     1      35.466 -22.028 -18.591  0.00  0.00    +0.249 C 
ATOM     20  H   UNL     1      36.535 -20.932 -17.253  0.00  0.00    +0.155 HD
BRANCH  18  24
ATOM     21  C   UNL     1      35.108 -24.134 -14.668  0.00  0.00    +0.140 C 
ATOM     22  C   UNL     1      35.026 -23.280 -15.767  0.00  0.00    +0.052 C 
ATOM     23  C   UNL     1      36.341 -24.371 -14.060  0.00  0.00    +0.037 C 
ATOM     24  C   UNL     1      36.178 -22.675 -16.242  0.00  0.00    +0.054 C 
ATOM     25  C   UNL     1      37.491 -23.753 -14.551  0.00  0.00    +0.004 C 
ATOM     26  C   UNL     1      37.409 -22.899 -15.650  0.00  0.00    +0.015 C 
BRANCH  21  27
ATOM     27  O   UNL     1      33.986 -24.736 -14.189  0.00  0.00    -0.479 OA
BRANCH  27  28
ATOM     28  C   UNL     1      33.047 -23.910 -13.511  0.00  0.00    +0.166 C 
ATOM     29  C   UNL     1      32.029 -24.785 -12.795  0.00  0.00    +0.044 C 
ATOM     30  C   UNL     1      32.197 -23.143 -14.512  0.00  0.00    +0.044 C 
ATOM     31  C   UNL     1      31.049 -25.207 -13.890  0.00  0.00    +0.004 C 
ATOM     32  C   UNL     1      31.181 -24.170 -15.005  0.00  0.00    +0.004 C 
ENDBRANCH  27  28
ENDBRANCH  21  27
ENDBRANCH  18  24
ENDBRANCH   3  19
TORSDOF 5
ENDMDL
