MODEL 1
REMARK VINA RESULT:     -12.4      0.000      0.000
REMARK  Name = 24882195
REMARK  2 active torsions:
REMARK  status: ('A' for Active; 'I' for Inactive)
REMARK    1  A    between atoms: C_5  and  N_15
REMARK    2  A    between atoms: N_15  and  C_21
REMARK                            x       y       z     vdW  Elec       q    Type
REMARK                         _______ _______ _______ _____ _____    ______ ____
ROOT
ATOM      1  C   UNL     1      34.678 -22.254 -17.697  0.00  0.00    +0.001 C 
ATOM      2  C   UNL     1      33.342 -22.071 -18.117  0.00  0.00    +0.000 C 
ATOM      3  C   UNL     1      35.456 -20.887 -19.575  0.00  0.00    +0.000 C 
ATOM      4  C   UNL     1      34.121 -20.704 -19.996  0.00  0.00    +0.000 C 
ATOM      5  C   UNL     1      33.895 -23.610 -15.834  0.00  0.00    +0.049 C 
ATOM      6  C   UNL     1      35.717 -21.660 -18.432  0.00  0.00    +0.000 C 
ATOM      7  C   UNL     1      34.938 -23.027 -16.554  0.00  0.00    +0.015 C 
ATOM      8  C   UNL     1      33.081 -21.298 -19.262  0.00  0.00    +0.000 C 
ATOM      9  C   UNL     1      32.303 -22.664 -17.382  0.00  0.00    +0.001 C 
ATOM     10  C   UNL     1      32.578 -23.429 -16.248  0.00  0.00    +0.015 C 
ATOM     11  C   UNL     1      36.495 -20.293 -20.311  0.00  0.00    +0.000 C 
ATOM     12  C   UNL     1      33.860 -19.931 -21.140  0.00  0.00    +0.000 C 
ATOM     13  C   UNL     1      36.220 -19.529 -21.445  0.00  0.00    +0.000 C 
ATOM     14  C   UNL     1      34.904 -19.348 -21.858  0.00  0.00    +0.000 C 
ENDROOT
BRANCH   5  15
ATOM     15  N   UNL     1      34.174 -24.383 -14.687  0.00  0.00    -0.299 N 
ATOM     16  H   UNL     1      33.422 -24.912 -14.336  0.00  0.00    +0.153 HD
BRANCH  15  21
ATOM     17  N   UNL     1      36.177 -25.564 -14.329  0.00  0.00    -0.106 N 
ATOM     18  N   UNL     1      37.830 -24.920 -12.706  0.00  0.00    -0.340 NA
ATOM     19  N   UNL     1      35.998 -26.543 -15.254  0.00  0.00    -0.139 NA
ATOM     20  N   UNL     1      37.984 -26.840 -14.181  0.00  0.00    -0.145 NA
ATOM     21  C   UNL     1      35.335 -24.492 -14.007  0.00  0.00    +0.138 C 
ATOM     22  C   UNL     1      35.728 -23.641 -13.047  0.00  0.00    +0.061 C 
ATOM     23  C   UNL     1      37.402 -25.766 -13.685  0.00  0.00    +0.174 C 
ATOM     24  C   UNL     1      37.048 -23.926 -12.407  0.00  0.00    +0.125 C 
ATOM     25  C   UNL     1      37.502 -22.978 -11.325  0.00  0.00    +0.068 C 
ATOM     26  C   UNL     1      37.103 -27.269 -15.119  0.00  0.00    +0.230 C 
ENDBRANCH  15  21
ENDBRANCH   5  15
TORSDOF 2
ENDMDL
MODEL 2
REMARK VINA RESULT:     -12.3      1.197      2.378
REMARK  Name = 24882195
REMARK  2 active torsions:
REMARK  status: ('A' for Active; 'I' for Inactive)
REMARK    1  A    between atoms: C_5  and  N_15
REMARK    2  A    between atoms: N_15  and  C_21
REMARK                            x       y       z     vdW  Elec       q    Type
REMARK                         _______ _______ _______ _____ _____    ______ ____
ROOT
ATOM      1  C   UNL     1      35.136 -22.416 -17.422  0.00  0.00    +0.001 C 
ATOM      2  C   UNL     1      33.753 -22.421 -17.708  0.00  0.00    +0.000 C 
ATOM      3  C   UNL     1      35.533 -20.975 -19.363  0.00  0.00    +0.000 C 
ATOM      4  C   UNL     1      34.150 -20.979 -19.650  0.00  0.00    +0.000 C 
ATOM      5  C   UNL     1      34.732 -23.848 -15.496  0.00  0.00    +0.049 C 
ATOM      6  C   UNL     1      36.008 -21.694 -18.254  0.00  0.00    +0.000 C 
ATOM      7  C   UNL     1      35.610 -23.136 -16.313  0.00  0.00    +0.015 C 
ATOM      8  C   UNL     1      33.277 -21.702 -18.818  0.00  0.00    +0.000 C 
ATOM      9  C   UNL     1      32.882 -23.143 -16.876  0.00  0.00    +0.001 C 
ATOM     10  C   UNL     1      33.369 -23.852 -15.777  0.00  0.00    +0.015 C 
ATOM     11  C   UNL     1      36.403 -20.253 -20.196  0.00  0.00    +0.000 C 
ATOM     12  C   UNL     1      33.675 -20.260 -20.759  0.00  0.00    +0.000 C 
ATOM     13  C   UNL     1      35.917 -19.544 -21.294  0.00  0.00    +0.000 C 
ATOM     14  C   UNL     1      34.554 -19.548 -21.575  0.00  0.00    +0.000 C 
ENDROOT
BRANCH   5  15
ATOM     15  N   UNL     1      35.225 -24.565 -14.385  0.00  0.00    -0.299 N 
ATOM     16  H   UNL     1      34.557 -25.086 -13.883  0.00  0.00    +0.153 HD
BRANCH  15  21
ATOM     17  N   UNL     1      36.756 -24.032 -12.680  0.00  0.00    -0.106 N 
ATOM     18  N   UNL     1      39.081 -24.643 -12.740  0.00  0.00    -0.340 NA
ATOM     19  N   UNL     1      35.905 -23.375 -11.848  0.00  0.00    -0.139 NA
ATOM     20  N   UNL     1      37.997 -23.415 -10.951  0.00  0.00    -0.145 NA
ATOM     21  C   UNL     1      36.491 -24.630 -13.919  0.00  0.00    +0.138 C 
ATOM     22  C   UNL     1      37.502 -25.228 -14.566  0.00  0.00    +0.061 C 
ATOM     23  C   UNL     1      38.032 -24.044 -12.108  0.00  0.00    +0.174 C 
ATOM     24  C   UNL     1      38.834 -25.197 -13.890  0.00  0.00    +0.125 C 
ATOM     25  C   UNL     1      39.980 -25.865 -14.607  0.00  0.00    +0.068 C 
ATOM     26  C   UNL     1      36.700 -23.034 -10.840  0.00  0.00    +0.230 C 
ENDBRANCH  15  21
ENDBRANCH   5  15
TORSDOF 2
ENDMDL
MODEL 3
REMARK VINA RESULT:     -12.0      6.573     10.564
REMARK  Name = 24882195
REMARK  2 active torsions:
REMARK  status: ('A' for Active; 'I' for Inactive)
REMARK    1  A    between atoms: C_5  and  N_15
REMARK    2  A    between atoms: N_15  and  C_21
REMARK                            x       y       z     vdW  Elec       q    Type
REMARK                         _______ _______ _______ _____ _____    ______ ____
ROOT
ATOM      1  C   UNL     1      34.661 -19.815 -20.627  0.00  0.00    +0.001 C 
ATOM      2  C   UNL     1      35.976 -20.135 -20.225  0.00  0.00    +0.000 C 
ATOM      3  C   UNL     1      33.774 -21.433 -19.016  0.00  0.00    +0.000 C 
ATOM      4  C   UNL     1      35.090 -21.754 -18.613  0.00  0.00    +0.000 C 
ATOM      5  C   UNL     1      35.552 -18.210 -22.225  0.00  0.00    +0.049 C 
ATOM      6  C   UNL     1      33.578 -20.469 -20.017  0.00  0.00    +0.000 C 
ATOM      7  C   UNL     1      34.465 -18.850 -21.629  0.00  0.00    +0.015 C 
ATOM      8  C   UNL     1      36.174 -21.101 -19.223  0.00  0.00    +0.000 C 
ATOM      9  C   UNL     1      37.060 -19.481 -20.835  0.00  0.00    +0.001 C 
ATOM     10  C   UNL     1      36.848 -18.525 -21.828  0.00  0.00    +0.015 C 
ATOM     11  C   UNL     1      32.692 -22.088 -18.406  0.00  0.00    +0.000 C 
ATOM     12  C   UNL     1      35.286 -22.719 -17.612  0.00  0.00    +0.000 C 
ATOM     13  C   UNL     1      32.903 -23.044 -17.412  0.00  0.00    +0.000 C 
ATOM     14  C   UNL     1      34.199 -23.359 -17.016  0.00  0.00    +0.000 C 
ENDROOT
BRANCH   5  15
ATOM     15  N   UNL     1      35.337 -17.242 -23.229  0.00  0.00    -0.299 N 
ATOM     16  H   UNL     1      35.733 -17.444 -24.107  0.00  0.00    +0.153 HD
BRANCH  15  21
ATOM     17  N   UNL     1      34.140 -15.542 -24.330  0.00  0.00    -0.106 N 
ATOM     18  N   UNL     1      33.203 -13.633 -23.209  0.00  0.00    -0.340 NA
ATOM     19  N   UNL     1      34.212 -16.036 -25.594  0.00  0.00    -0.139 NA
ATOM     20  N   UNL     1      33.053 -14.076 -25.589  0.00  0.00    -0.145 NA
ATOM     21  C   UNL     1      34.661 -16.076 -23.145  0.00  0.00    +0.138 C 
ATOM     22  C   UNL     1      34.460 -15.403 -22.002  0.00  0.00    +0.061 C 
ATOM     23  C   UNL     1      33.424 -14.341 -24.352  0.00  0.00    +0.174 C 
ATOM     24  C   UNL     1      33.687 -14.129 -22.108  0.00  0.00    +0.125 C 
ATOM     25  C   UNL     1      33.455 -13.361 -20.832  0.00  0.00    +0.068 C 
ATOM     26  C   UNL     1      33.549 -15.122 -26.296  0.00  0.00    +0.230 C 
ENDBRANCH  15  21
ENDBRANCH   5  15
TORSDOF 2
ENDMDL
MODEL 4
REMARK VINA RESULT:     -11.7      6.050     10.407
REMARK  Name = 24882195
REMARK  2 active torsions:
REMARK  status: ('A' for Active; 'I' for Inactive)
REMARK    1  A    between atoms: C_5  and  N_15
REMARK    2  A    between atoms: N_15  and  C_21
REMARK                            x       y       z     vdW  Elec       q    Type
REMARK                         _______ _______ _______ _____ _____    ______ ____
ROOT
ATOM      1  C   UNL     1      34.696 -19.839 -20.888  0.00  0.00    +0.001 C 
ATOM      2  C   UNL     1      36.003 -20.016 -20.382  0.00  0.00    +0.000 C 
ATOM      3  C   UNL     1      33.828 -21.364 -19.179  0.00  0.00    +0.000 C 
ATOM      4  C   UNL     1      35.134 -21.541 -18.672  0.00  0.00    +0.000 C 
ATOM      5  C   UNL     1      35.569 -18.326 -22.583  0.00  0.00    +0.049 C 
ATOM      6  C   UNL     1      33.626 -20.516 -20.280  0.00  0.00    +0.000 C 
ATOM      7  C   UNL     1      34.496 -18.991 -21.990  0.00  0.00    +0.015 C 
ATOM      8  C   UNL     1      36.205 -20.865 -19.280  0.00  0.00    +0.000 C 
ATOM      9  C   UNL     1      37.073 -19.339 -20.990  0.00  0.00    +0.001 C 
ATOM     10  C   UNL     1      36.856 -18.499 -22.084  0.00  0.00    +0.015 C 
ATOM     11  C   UNL     1      32.759 -22.042 -18.570  0.00  0.00    +0.000 C 
ATOM     12  C   UNL     1      35.336 -22.389 -17.571  0.00  0.00    +0.000 C 
ATOM     13  C   UNL     1      32.975 -22.881 -17.477  0.00  0.00    +0.000 C 
ATOM     14  C   UNL     1      34.262 -23.054 -16.978  0.00  0.00    +0.000 C 
ENDROOT
BRANCH   5  15
ATOM     15  N   UNL     1      35.349 -17.477 -23.688  0.00  0.00    -0.299 N 
ATOM     16  H   UNL     1      35.745 -17.773 -24.539  0.00  0.00    +0.153 HD
BRANCH  15  21
ATOM     17  N   UNL     1      34.465 -15.632 -22.525  0.00  0.00    -0.106 N 
ATOM     18  N   UNL     1      33.263 -13.841 -23.587  0.00  0.00    -0.340 NA
ATOM     19  N   UNL     1      34.864 -15.978 -21.273  0.00  0.00    -0.139 NA
ATOM     20  N   UNL     1      33.732 -14.003 -21.213  0.00  0.00    -0.145 NA
ATOM     21  C   UNL     1      34.668 -16.311 -23.733  0.00  0.00    +0.138 C 
ATOM     22  C   UNL     1      34.177 -15.769 -24.858  0.00  0.00    +0.061 C 
ATOM     23  C   UNL     1      33.775 -14.418 -22.463  0.00  0.00    +0.174 C 
ATOM     24  C   UNL     1      33.451 -14.472 -24.708  0.00  0.00    +0.125 C 
ATOM     25  C   UNL     1      32.893 -13.852 -25.964  0.00  0.00    +0.068 C 
ATOM     26  C   UNL     1      34.400 -14.973 -20.538  0.00  0.00    +0.230 C 
ENDBRANCH  15  21
ENDBRANCH   5  15
TORSDOF 2
ENDMDL
MODEL 5
REMARK VINA RESULT:     -11.7      1.149      2.090
REMARK  Name = 24882195
REMARK  2 active torsions:
REMARK  status: ('A' for Active; 'I' for Inactive)
REMARK    1  A    between atoms: C_5  and  N_15
REMARK    2  A    between atoms: N_15  and  C_21
REMARK                            x       y       z     vdW  Elec       q    Type
REMARK                         _______ _______ _______ _____ _____    ______ ____
ROOT
ATOM      1  C   UNL     1      34.893 -21.923 -18.012  0.00  0.00    +0.001 C 
ATOM      2  C   UNL     1      36.259 -21.570 -17.964  0.00  0.00    +0.000 C 
ATOM      3  C   UNL     1      34.632 -20.635 -20.079  0.00  0.00    +0.000 C 
ATOM      4  C   UNL     1      35.999 -20.281 -20.032  0.00  0.00    +0.000 C 
ATOM      5  C   UNL     1      35.162 -23.200 -15.957  0.00  0.00    +0.049 C 
ATOM      6  C   UNL     1      34.098 -21.450 -19.068  0.00  0.00    +0.000 C 
ATOM      7  C   UNL     1      34.359 -22.738 -17.001  0.00  0.00    +0.015 C 
ATOM      8  C   UNL     1      36.795 -20.754 -18.975  0.00  0.00    +0.000 C 
ATOM      9  C   UNL     1      37.055 -22.043 -16.907  0.00  0.00    +0.001 C 
ATOM     10  C   UNL     1      36.509 -22.853 -15.910  0.00  0.00    +0.015 C 
ATOM     11  C   UNL     1      33.838 -20.161 -21.136  0.00  0.00    +0.000 C 
ATOM     12  C   UNL     1      36.534 -19.466 -21.043  0.00  0.00    +0.000 C 
ATOM     13  C   UNL     1      34.384 -19.352 -22.132  0.00  0.00    +0.000 C 
ATOM     14  C   UNL     1      35.730 -19.005 -22.086  0.00  0.00    +0.000 C 
ENDROOT
BRANCH   5  15
ATOM     15  N   UNL     1      34.609 -24.019 -14.950  0.00  0.00    -0.299 N 
ATOM     16  H   UNL     1      33.659 -24.251 -15.062  0.00  0.00    +0.153 HD
BRANCH  15  21
ATOM     17  N   UNL     1      36.064 -25.623 -14.029  0.00  0.00    -0.106 N 
ATOM     18  N   UNL     1      36.584 -25.758 -11.685  0.00  0.00    -0.340 NA
ATOM     19  N   UNL     1      36.390 -26.276 -15.175  0.00  0.00    -0.139 NA
ATOM     20  N   UNL     1      37.465 -27.224 -13.406  0.00  0.00    -0.145 NA
ATOM     21  C   UNL     1      35.211 -24.526 -13.852  0.00  0.00    +0.138 C 
ATOM     22  C   UNL     1      35.041 -24.046 -12.611  0.00  0.00    +0.061 C 
ATOM     23  C   UNL     1      36.735 -26.221 -12.958  0.00  0.00    +0.174 C 
ATOM     24  C   UNL     1      35.792 -24.740 -11.522  0.00  0.00    +0.125 C 
ATOM     25  C   UNL     1      35.609 -24.212 -10.122  0.00  0.00    +0.068 C 
ATOM     26  C   UNL     1      37.225 -27.215 -14.741  0.00  0.00    +0.230 C 
ENDBRANCH  15  21
ENDBRANCH   5  15
TORSDOF 2
ENDMDL
MODEL 6
REMARK VINA RESULT:     -11.6      2.263      4.307
REMARK  Name = 24882195
REMARK  2 active torsions:
REMARK  status: ('A' for Active; 'I' for Inactive)
REMARK    1  A    between atoms: C_5  and  N_15
REMARK    2  A    between atoms: N_15  and  C_21
REMARK                            x       y       z     vdW  Elec       q    Type
REMARK                         _______ _______ _______ _____ _____    ______ ____
ROOT
ATOM      1  C   UNL     1      34.297 -21.261 -19.512  0.00  0.00    +0.001 C 
ATOM      2  C   UNL     1      35.638 -21.067 -19.113  0.00  0.00    +0.000 C 
ATOM      3  C   UNL     1      34.597 -19.631 -21.316  0.00  0.00    +0.000 C 
ATOM      4  C   UNL     1      35.938 -19.436 -20.918  0.00  0.00    +0.000 C 
ATOM      5  C   UNL     1      34.009 -22.879 -17.717  0.00  0.00    +0.049 C 
ATOM      6  C   UNL     1      33.795 -20.541 -20.608  0.00  0.00    +0.000 C 
ATOM      7  C   UNL     1      33.495 -22.170 -18.803  0.00  0.00    +0.015 C 
ATOM      8  C   UNL     1      36.441 -20.157 -19.821  0.00  0.00    +0.000 C 
ATOM      9  C   UNL     1      36.140 -21.787 -18.017  0.00  0.00    +0.001 C 
ATOM     10  C   UNL     1      35.330 -22.688 -17.323  0.00  0.00    +0.015 C 
ATOM     11  C   UNL     1      34.096 -18.910 -22.412  0.00  0.00    +0.000 C 
ATOM     12  C   UNL     1      36.741 -18.527 -21.626  0.00  0.00    +0.000 C 
ATOM     13  C   UNL     1      34.905 -18.010 -23.105  0.00  0.00    +0.000 C 
ATOM     14  C   UNL     1      36.226 -17.819 -22.713  0.00  0.00    +0.000 C 
ENDROOT
BRANCH   5  15
ATOM     15  N   UNL     1      33.189 -23.789 -17.016  0.00  0.00    -0.299 N 
ATOM     16  H   UNL     1      33.182 -24.710 -17.361  0.00  0.00    +0.153 HD
BRANCH  15  21
ATOM     17  N   UNL     1      32.971 -23.799 -14.673  0.00  0.00    -0.106 N 
ATOM     18  N   UNL     1      30.961 -23.154 -13.520  0.00  0.00    -0.340 NA
ATOM     19  N   UNL     1      34.219 -24.236 -14.360  0.00  0.00    -0.139 NA
ATOM     20  N   UNL     1      33.013 -23.893 -12.459  0.00  0.00    -0.145 NA
ATOM     21  C   UNL     1      32.411 -23.562 -15.935  0.00  0.00    +0.138 C 
ATOM     22  C   UNL     1      31.143 -23.127 -15.998  0.00  0.00    +0.061 C 
ATOM     23  C   UNL     1      32.251 -23.595 -13.492  0.00  0.00    +0.174 C 
ATOM     24  C   UNL     1      30.442 -22.935 -14.692  0.00  0.00    +0.125 C 
ATOM     25  C   UNL     1      29.017 -22.447 -14.748  0.00  0.00    +0.068 C 
ATOM     26  C   UNL     1      34.183 -24.271 -13.032  0.00  0.00    +0.230 C 
ENDBRANCH  15  21
ENDBRANCH   5  15
TORSDOF 2
ENDMDL
MODEL 7
REMARK VINA RESULT:     -11.6      1.824      2.825
REMARK  Name = 24882195
REMARK  2 active torsions:
REMARK  status: ('A' for Active; 'I' for Inactive)
REMARK    1  A    between atoms: C_5  and  N_15
REMARK    2  A    between atoms: N_15  and  C_21
REMARK                            x       y       z     vdW  Elec       q    Type
REMARK                         _______ _______ _______ _____ _____    ______ ____
ROOT
ATOM      1  C   UNL     1      35.609 -21.309 -18.756  0.00  0.00    +0.001 C 
ATOM      2  C   UNL     1      34.250 -21.445 -19.115  0.00  0.00    +0.000 C 
ATOM      3  C   UNL     1      35.964 -19.815 -20.665  0.00  0.00    +0.000 C 
ATOM      4  C   UNL     1      34.605 -19.951 -21.025  0.00  0.00    +0.000 C 
ATOM      5  C   UNL     1      35.246 -22.794 -16.862  0.00  0.00    +0.049 C 
ATOM      6  C   UNL     1      36.448 -20.497 -19.536  0.00  0.00    +0.000 C 
ATOM      7  C   UNL     1      36.092 -21.991 -17.627  0.00  0.00    +0.015 C 
ATOM      8  C   UNL     1      33.765 -20.764 -20.244  0.00  0.00    +0.000 C 
ATOM      9  C   UNL     1      33.411 -22.257 -18.334  0.00  0.00    +0.001 C 
ATOM     10  C   UNL     1      33.906 -22.927 -17.215  0.00  0.00    +0.015 C 
ATOM     11  C   UNL     1      36.803 -19.003 -21.446  0.00  0.00    +0.000 C 
ATOM     12  C   UNL     1      34.122 -19.270 -22.154  0.00  0.00    +0.000 C 
ATOM     13  C   UNL     1      36.308 -18.333 -22.564  0.00  0.00    +0.000 C 
ATOM     14  C   UNL     1      34.969 -18.466 -22.918  0.00  0.00    +0.000 C 
ENDROOT
BRANCH   5  15
ATOM     15  N   UNL     1      35.747 -23.471 -15.730  0.00  0.00    -0.299 N 
ATOM     16  H   UNL     1      36.682 -23.773 -15.793  0.00  0.00    +0.153 HD
BRANCH  15  21
ATOM     17  N   UNL     1      35.822 -23.563 -13.380  0.00  0.00    -0.106 N 
ATOM     18  N   UNL     1      33.984 -24.304 -12.018  0.00  0.00    -0.340 NA
ATOM     19  N   UNL     1      37.090 -23.108 -13.204  0.00  0.00    -0.139 NA
ATOM     20  N   UNL     1      36.138 -23.558 -11.186  0.00  0.00    -0.145 NA
ATOM     21  C   UNL     1      35.115 -23.761 -14.573  0.00  0.00    +0.138 C 
ATOM     22  C   UNL     1      33.857 -24.224 -14.497  0.00  0.00    +0.061 C 
ATOM     23  C   UNL     1      35.258 -23.832 -12.129  0.00  0.00    +0.174 C 
ATOM     24  C   UNL     1      33.328 -24.487 -13.125  0.00  0.00    +0.125 C 
ATOM     25  C   UNL     1      31.917 -25.009 -13.025  0.00  0.00    +0.068 C 
ATOM     26  C   UNL     1      37.219 -23.127 -11.882  0.00  0.00    +0.230 C 
ENDBRANCH  15  21
ENDBRANCH   5  15
TORSDOF 2
ENDMDL
MODEL 8
REMARK VINA RESULT:     -11.4      2.669      4.004
REMARK  Name = 24882195
REMARK  2 active torsions:
REMARK  status: ('A' for Active; 'I' for Inactive)
REMARK    1  A    between atoms: C_5  and  N_15
REMARK    2  A    between atoms: N_15  and  C_21
REMARK                            x       y       z     vdW  Elec       q    Type
REMARK                         _______ _______ _______ _____ _____    ______ ____
ROOT
ATOM      1  C   UNL     1      34.152 -21.322 -19.240  0.00  0.00    +0.001 C 
ATOM      2  C   UNL     1      35.506 -21.322 -18.843  0.00  0.00    +0.000 C 
ATOM      3  C   UNL     1      34.692 -19.806 -21.087  0.00  0.00    +0.000 C 
ATOM      4  C   UNL     1      36.047 -19.804 -20.690  0.00  0.00    +0.000 C 
ATOM      5  C   UNL     1      33.625 -22.829 -17.403  0.00  0.00    +0.049 C 
ATOM      6  C   UNL     1      33.762 -20.564 -20.357  0.00  0.00    +0.000 C 
ATOM      7  C   UNL     1      33.222 -22.080 -18.509  0.00  0.00    +0.015 C 
ATOM      8  C   UNL     1      36.437 -20.563 -19.573  0.00  0.00    +0.000 C 
ATOM      9  C   UNL     1      35.896 -22.080 -17.727  0.00  0.00    +0.001 C 
ATOM     10  C   UNL     1      34.960 -22.829 -17.011  0.00  0.00    +0.015 C 
ATOM     11  C   UNL     1      34.303 -19.047 -22.203  0.00  0.00    +0.000 C 
ATOM     12  C   UNL     1      36.977 -19.046 -21.421  0.00  0.00    +0.000 C 
ATOM     13  C   UNL     1      35.239 -18.299 -22.918  0.00  0.00    +0.000 C 
ATOM     14  C   UNL     1      36.574 -18.299 -22.527  0.00  0.00    +0.000 C 
ENDROOT
BRANCH   5  15
ATOM     15  N   UNL     1      32.678 -23.585 -16.680  0.00  0.00    -0.299 N 
ATOM     16  H   UNL     1      31.912 -23.920 -17.200  0.00  0.00    +0.153 HD
BRANCH  15  21
ATOM     17  N   UNL     1      31.476 -24.343 -14.804  0.00  0.00    -0.106 N 
ATOM     18  N   UNL     1      32.456 -24.647 -12.630  0.00  0.00    -0.340 NA
ATOM     19  N   UNL     1      30.261 -24.490 -15.394  0.00  0.00    -0.139 NA
ATOM     20  N   UNL     1      30.135 -25.068 -13.195  0.00  0.00    -0.145 NA
ATOM     21  C   UNL     1      32.683 -23.910 -15.369  0.00  0.00    +0.138 C 
ATOM     22  C   UNL     1      33.767 -23.845 -14.581  0.00  0.00    +0.061 C 
ATOM     23  C   UNL     1      31.375 -24.704 -13.457  0.00  0.00    +0.174 C 
ATOM     24  C   UNL     1      33.576 -24.246 -13.154  0.00  0.00    +0.125 C 
ATOM     25  C   UNL     1      34.785 -24.176 -12.257  0.00  0.00    +0.068 C 
ATOM     26  C   UNL     1      29.507 -24.924 -14.389  0.00  0.00    +0.230 C 
ENDBRANCH  15  21
ENDBRANCH   5  15
TORSDOF 2
ENDMDL
MODEL 9
REMARK VINA RESULT:     -11.3     10.031     13.936
REMARK  Name = 24882195
REMARK  2 active torsions:
REMARK  status: ('A' for Active; 'I' for Inactive)
REMARK    1  A    between atoms: C_5  and  N_15
REMARK    2  A    between atoms: N_15  and  C_21
REMARK                            x       y       z     vdW  Elec       q    Type
REMARK                         _______ _______ _______ _____ _____    ______ ____
ROOT
ATOM      1  C   UNL     1      34.312 -14.712 -23.307  0.00  0.00    +0.001 C 
ATOM      2  C   UNL     1      33.858 -15.295 -24.510  0.00  0.00    +0.000 C 
ATOM      3  C   UNL     1      34.845 -16.937 -22.431  0.00  0.00    +0.000 C 
ATOM      4  C   UNL     1      34.391 -17.520 -23.634  0.00  0.00    +0.000 C 
ATOM      5  C   UNL     1      33.778 -12.506 -24.186  0.00  0.00    +0.049 C 
ATOM      6  C   UNL     1      34.799 -15.541 -22.283  0.00  0.00    +0.000 C 
ATOM      7  C   UNL     1      34.264 -13.316 -23.160  0.00  0.00    +0.015 C 
ATOM      8  C   UNL     1      33.904 -16.691 -24.659  0.00  0.00    +0.000 C 
ATOM      9  C   UNL     1      33.371 -14.466 -25.535  0.00  0.00    +0.001 C 
ATOM     10  C   UNL     1      33.331 -13.080 -25.373  0.00  0.00    +0.015 C 
ATOM     11  C   UNL     1      35.331 -17.767 -21.407  0.00  0.00    +0.000 C 
ATOM     12  C   UNL     1      34.438 -18.916 -23.782  0.00  0.00    +0.000 C 
ATOM     13  C   UNL     1      35.371 -19.151 -21.569  0.00  0.00    +0.000 C 
ATOM     14  C   UNL     1      34.925 -19.725 -22.755  0.00  0.00    +0.000 C 
ENDROOT
BRANCH   5  15
ATOM     15  N   UNL     1      33.738 -11.106 -24.022  0.00  0.00    -0.299 N 
ATOM     16  H   UNL     1      34.183 -10.580 -24.725  0.00  0.00    +0.153 HD
BRANCH  15  21
ATOM     17  N   UNL     1      33.554  -9.048 -22.894  0.00  0.00    -0.106 N 
ATOM     18  N   UNL     1      32.112  -8.691 -21.003  0.00  0.00    -0.340 NA
ATOM     19  N   UNL     1      34.436  -8.334 -23.641  0.00  0.00    -0.139 NA
ATOM     20  N   UNL     1      33.556  -7.019 -22.004  0.00  0.00    -0.145 NA
ATOM     21  C   UNL     1      33.172 -10.390 -23.026  0.00  0.00    +0.138 C 
ATOM     22  C   UNL     1      32.273 -10.883 -22.161  0.00  0.00    +0.061 C 
ATOM     23  C   UNL     1      33.027  -8.221 -21.897  0.00  0.00    +0.174 C 
ATOM     24  C   UNL     1      31.758  -9.936 -21.126  0.00  0.00    +0.125 C 
ATOM     25  C   UNL     1      30.747 -10.478 -20.147  0.00  0.00    +0.068 C 
ATOM     26  C   UNL     1      34.394  -7.137 -23.064  0.00  0.00    +0.230 C 
ENDBRANCH  15  21
ENDBRANCH   5  15
TORSDOF 2
ENDMDL
