MODEL 1
REMARK VINA RESULT:     -12.2      0.000      0.000
REMARK  Name = 445579
REMARK  10 active torsions:
REMARK  status: ('A' for Active; 'I' for Inactive)
REMARK    1  A    between atoms: C_1  and  O_18
REMARK    2  A    between atoms: C_4  and  C_9
REMARK    3  A    between atoms: N_8  and  C_11
REMARK    4  A    between atoms: C_11  and  C_12
REMARK    5  A    between atoms: O_18  and  C_24
REMARK    6  A    between atoms: C_20  and  O_27
REMARK    7  A    between atoms: C_21  and  O_25
REMARK    8  A    between atoms: C_22  and  C_31
REMARK    9  A    between atoms: C_23  and  O_29
REMARK   10  A    between atoms: C_31  and  O_32
REMARK                            x       y       z     vdW  Elec       q    Type
REMARK                         _______ _______ _______ _____ _____    ______ ____
ROOT
ATOM      1  C   UNL     1      33.828 -23.968 -15.214  0.00  0.00    +0.142 C 
ATOM      2  C   UNL     1      33.967 -23.592 -16.546  0.00  0.00    +0.042 C 
ATOM      3  C   UNL     1      32.581 -23.939 -14.598  0.00  0.00    +0.037 C 
ATOM      4  C   UNL     1      32.847 -23.181 -17.270  0.00  0.00    +0.056 C 
ATOM      5  C   UNL     1      31.461 -23.530 -15.322  0.00  0.00    +0.003 C 
ATOM      6  C   UNL     1      31.594 -23.151 -16.657  0.00  0.00    +0.005 C 
ENDROOT
BRANCH   4   9
ATOM      7  O   UNL     1      33.407 -23.570 -19.526  0.00  0.00    -0.270 OA
ATOM      8  N   UNL     1      32.586 -21.487 -18.976  0.00  0.00    -0.297 N 
ATOM      9  C   UNL     1      32.986 -22.788 -18.663  0.00  0.00    +0.246 C 
ATOM     10  H   UNL     1      32.257 -20.906 -18.252  0.00  0.00    +0.150 HD
BRANCH   8  11
ATOM     11  C   UNL     1      32.633 -20.958 -20.321  0.00  0.00    +0.117 C 
BRANCH  11  12
ATOM     12  C   UNL     1      33.934 -20.267 -20.607  0.00  0.00    -0.003 C 
ATOM     13  C   UNL     1      33.949 -19.142 -21.425  0.00  0.00    -0.003 C 
ATOM     14  C   UNL     1      35.111 -20.757 -20.053  0.00  0.00    -0.003 C 
ATOM     15  C   UNL     1      35.158 -18.499 -21.692  0.00  0.00    -0.000 C 
ATOM     16  C   UNL     1      36.319 -20.113 -20.320  0.00  0.00    -0.000 C 
ATOM     17  C   UNL     1      36.343 -18.985 -21.139  0.00  0.00    -0.000 C 
ENDBRANCH  11  12
ENDBRANCH   8  11
ENDBRANCH   4   9
BRANCH   1  18
ATOM     18  O   UNL     1      34.927 -24.370 -14.504  0.00  0.00    -0.451 OA
BRANCH  18  24
ATOM     19  O   UNL     1      35.677 -23.150 -12.621  0.00  0.00    -0.316 OA
ATOM     20  C   UNL     1      37.532 -24.662 -12.127  0.00  0.00    +0.169 C 
ATOM     21  C   UNL     1      37.751 -24.871 -13.628  0.00  0.00    +0.173 C 
ATOM     22  C   UNL     1      36.068 -24.296 -11.849  0.00  0.00    +0.177 C 
ATOM     23  C   UNL     1      37.244 -23.660 -14.409  0.00  0.00    +0.210 C 
ATOM     24  C   UNL     1      35.795 -23.341 -14.033  0.00  0.00    +0.318 C 
BRANCH  21  25
ATOM     25  O   UNL     1      39.137 -25.059 -13.897  0.00  0.00    -0.379 OA
ATOM     26  H   UNL     1      39.273 -25.927 -14.307  0.00  0.00    +0.211 HD
ENDBRANCH  21  25
BRANCH  20  27
ATOM     27  O   UNL     1      38.370 -23.599 -11.666  0.00  0.00    -0.379 OA
ATOM     28  H   UNL     1      37.966 -22.747 -11.894  0.00  0.00    +0.211 HD
ENDBRANCH  20  27
BRANCH  23  29
ATOM     29  O   UNL     1      37.323 -23.906 -15.810  0.00  0.00    -0.377 OA
ATOM     30  H   UNL     1      37.263 -23.064 -16.290  0.00  0.00    +0.211 HD
ENDBRANCH  23  29
BRANCH  22  31
ATOM     31  C   UNL     1      35.822 -23.958 -10.383  0.00  0.00    +0.169 C 
BRANCH  31  32
ATOM     32  O   UNL     1      34.925 -24.913  -9.843  0.00  0.00    -0.379 OA
ATOM     33  H   UNL     1      35.342 -25.360  -9.091  0.00  0.00    +0.211 HD
ENDBRANCH  31  32
ENDBRANCH  22  31
ENDBRANCH  18  24
ENDBRANCH   1  18
TORSDOF 10
ENDMDL
MODEL 2
REMARK VINA RESULT:     -11.8      1.697      2.326
REMARK  Name = 445579
REMARK  10 active torsions:
REMARK  status: ('A' for Active; 'I' for Inactive)
REMARK    1  A    between atoms: C_1  and  O_18
REMARK    2  A    between atoms: C_4  and  C_9
REMARK    3  A    between atoms: N_8  and  C_11
REMARK    4  A    between atoms: C_11  and  C_12
REMARK    5  A    between atoms: O_18  and  C_24
REMARK    6  A    between atoms: C_20  and  O_27
REMARK    7  A    between atoms: C_21  and  O_25
REMARK    8  A    between atoms: C_22  and  C_31
REMARK    9  A    between atoms: C_23  and  O_29
REMARK   10  A    between atoms: C_31  and  O_32
REMARK                            x       y       z     vdW  Elec       q    Type
REMARK                         _______ _______ _______ _____ _____    ______ ____
ROOT
ATOM      1  C   UNL     1      32.894 -24.532 -14.217  0.00  0.00    +0.142 C 
ATOM      2  C   UNL     1      32.694 -23.785 -15.375  0.00  0.00    +0.042 C 
ATOM      3  C   UNL     1      31.809 -24.990 -13.476  0.00  0.00    +0.037 C 
ATOM      4  C   UNL     1      31.396 -23.493 -15.794  0.00  0.00    +0.056 C 
ATOM      5  C   UNL     1      30.511 -24.697 -13.897  0.00  0.00    +0.003 C 
ATOM      6  C   UNL     1      30.305 -23.949 -15.055  0.00  0.00    +0.005 C 
ENDROOT
BRANCH   4   9
ATOM      7  O   UNL     1      30.094 -22.172 -17.249  0.00  0.00    -0.270 OA
ATOM      8  N   UNL     1      32.281 -22.583 -17.853  0.00  0.00    -0.297 N 
ATOM      9  C   UNL     1      31.181 -22.713 -17.003  0.00  0.00    +0.246 C 
ATOM     10  H   UNL     1      33.123 -23.034 -17.610  0.00  0.00    +0.150 HD
BRANCH   8  11
ATOM     11  C   UNL     1      32.236 -21.815 -19.076  0.00  0.00    +0.117 C 
BRANCH  11  12
ATOM     12  C   UNL     1      33.598 -21.347 -19.498  0.00  0.00    -0.003 C 
ATOM     13  C   UNL     1      34.729 -21.918 -18.923  0.00  0.00    -0.003 C 
ATOM     14  C   UNL     1      33.718 -20.349 -20.458  0.00  0.00    -0.003 C 
ATOM     15  C   UNL     1      35.996 -21.483 -19.314  0.00  0.00    -0.000 C 
ATOM     16  C   UNL     1      34.984 -19.916 -20.848  0.00  0.00    -0.000 C 
ATOM     17  C   UNL     1      36.123 -20.482 -20.277  0.00  0.00    -0.000 C 
ENDBRANCH  11  12
ENDBRANCH   8  11
ENDBRANCH   4   9
BRANCH   1  18
ATOM     18  O   UNL     1      34.167 -24.818 -13.806  0.00  0.00    -0.451 OA
BRANCH  18  24
ATOM     19  O   UNL     1      35.999 -23.321 -13.807  0.00  0.00    -0.316 OA
ATOM     20  C   UNL     1      37.640 -25.010 -13.156  0.00  0.00    +0.169 C 
ATOM     21  C   UNL     1      36.895 -26.049 -14.000  0.00  0.00    +0.173 C 
ATOM     22  C   UNL     1      36.675 -23.914 -12.687  0.00  0.00    +0.177 C 
ATOM     23  C   UNL     1      36.127 -25.359 -15.127  0.00  0.00    +0.210 C 
ATOM     24  C   UNL     1      35.229 -24.252 -14.571  0.00  0.00    +0.318 C 
BRANCH  21  25
ATOM     25  O   UNL     1      37.819 -26.977 -14.559  0.00  0.00    -0.379 OA
ATOM     26  H   UNL     1      38.722 -26.728 -14.305  0.00  0.00    +0.211 HD
ENDBRANCH  21  25
BRANCH  20  27
ATOM     27  O   UNL     1      38.675 -24.412 -13.940  0.00  0.00    -0.379 OA
ATOM     28  H   UNL     1      38.449 -24.481 -14.881  0.00  0.00    +0.211 HD
ENDBRANCH  20  27
BRANCH  23  29
ATOM     29  O   UNL     1      35.328 -26.304 -15.832  0.00  0.00    -0.377 OA
ATOM     30  H   UNL     1      34.752 -25.838 -16.459  0.00  0.00    +0.211 HD
ENDBRANCH  23  29
BRANCH  22  31
ATOM     31  C   UNL     1      37.388 -22.791 -11.944  0.00  0.00    +0.169 C 
BRANCH  31  32
ATOM     32  O   UNL     1      38.659 -23.259 -11.529  0.00  0.00    -0.379 OA
ATOM     33  H   UNL     1      38.608 -23.561 -10.609  0.00  0.00    +0.211 HD
ENDBRANCH  31  32
ENDBRANCH  22  31
ENDBRANCH  18  24
ENDBRANCH   1  18
TORSDOF 10
ENDMDL
MODEL 3
REMARK VINA RESULT:     -11.7      1.159      2.523
REMARK  Name = 445579
REMARK  10 active torsions:
REMARK  status: ('A' for Active; 'I' for Inactive)
REMARK    1  A    between atoms: C_1  and  O_18
REMARK    2  A    between atoms: C_4  and  C_9
REMARK    3  A    between atoms: N_8  and  C_11
REMARK    4  A    between atoms: C_11  and  C_12
REMARK    5  A    between atoms: O_18  and  C_24
REMARK    6  A    between atoms: C_20  and  O_27
REMARK    7  A    between atoms: C_21  and  O_25
REMARK    8  A    between atoms: C_22  and  C_31
REMARK    9  A    between atoms: C_23  and  O_29
REMARK   10  A    between atoms: C_31  and  O_32
REMARK                            x       y       z     vdW  Elec       q    Type
REMARK                         _______ _______ _______ _____ _____    ______ ____
ROOT
ATOM      1  C   UNL     1      33.746 -23.302 -15.289  0.00  0.00    +0.142 C 
ATOM      2  C   UNL     1      33.918 -23.003 -16.637  0.00  0.00    +0.042 C 
ATOM      3  C   UNL     1      32.468 -23.440 -14.753  0.00  0.00    +0.037 C 
ATOM      4  C   UNL     1      32.801 -22.840 -17.458  0.00  0.00    +0.056 C 
ATOM      5  C   UNL     1      31.353 -23.277 -15.575  0.00  0.00    +0.003 C 
ATOM      6  C   UNL     1      31.519 -22.978 -16.927  0.00  0.00    +0.005 C 
ENDROOT
BRANCH   4   9
ATOM      7  O   UNL     1      33.414 -23.362 -19.673  0.00  0.00    -0.270 OA
ATOM      8  N   UNL     1      32.590 -21.248 -19.266  0.00  0.00    -0.297 N 
ATOM      9  C   UNL     1      32.976 -22.529 -18.868  0.00  0.00    +0.246 C 
ATOM     10  H   UNL     1      32.247 -20.624 -18.585  0.00  0.00    +0.150 HD
BRANCH   8  11
ATOM     11  C   UNL     1      32.672 -20.799 -20.638  0.00  0.00    +0.117 C 
BRANCH  11  12
ATOM     12  C   UNL     1      33.961 -20.085 -20.919  0.00  0.00    -0.003 C 
ATOM     13  C   UNL     1      35.127 -20.493 -20.280  0.00  0.00    -0.003 C 
ATOM     14  C   UNL     1      33.979 -19.022 -21.816  0.00  0.00    -0.003 C 
ATOM     15  C   UNL     1      36.326 -19.828 -20.541  0.00  0.00    -0.000 C 
ATOM     16  C   UNL     1      35.178 -18.360 -22.077  0.00  0.00    -0.000 C 
ATOM     17  C   UNL     1      36.351 -18.762 -21.440  0.00  0.00    -0.000 C 
ENDBRANCH  11  12
ENDBRANCH   8  11
ENDBRANCH   4   9
BRANCH   1  18
ATOM     18  O   UNL     1      34.840 -23.461 -14.483  0.00  0.00    -0.451 OA
BRANCH  18  24
ATOM     19  O   UNL     1      36.037 -25.494 -14.292  0.00  0.00    -0.316 OA
ATOM     20  C   UNL     1      37.592 -24.653 -12.604  0.00  0.00    +0.169 C 
ATOM     21  C   UNL     1      36.462 -23.824 -11.987  0.00  0.00    +0.173 C 
ATOM     22  C   UNL     1      37.325 -24.888 -14.097  0.00  0.00    +0.177 C 
ATOM     23  C   UNL     1      35.109 -24.466 -12.292  0.00  0.00    +0.210 C 
ATOM     24  C   UNL     1      34.952 -24.706 -13.795  0.00  0.00    +0.318 C 
BRANCH  21  25
ATOM     25  O   UNL     1      36.635 -23.738 -10.576  0.00  0.00    -0.379 OA
ATOM     26  H   UNL     1      36.293 -22.888 -10.258  0.00  0.00    +0.211 HD
ENDBRANCH  21  25
BRANCH  20  27
ATOM     27  O   UNL     1      37.672 -25.918 -11.943  0.00  0.00    -0.379 OA
ATOM     28  H   UNL     1      36.938 -26.482 -12.235  0.00  0.00    +0.211 HD
ENDBRANCH  20  27
BRANCH  23  29
ATOM     29  O   UNL     1      34.050 -23.629 -11.836  0.00  0.00    -0.377 OA
ATOM     30  H   UNL     1      34.377 -22.721 -11.734  0.00  0.00    +0.211 HD
ENDBRANCH  23  29
BRANCH  22  31
ATOM     31  C   UNL     1      38.358 -25.811 -14.733  0.00  0.00    +0.169 C 
BRANCH  31  32
ATOM     32  O   UNL     1      37.833 -27.126 -14.762  0.00  0.00    -0.379 OA
ATOM     33  H   UNL     1      38.560 -27.762 -14.847  0.00  0.00    +0.211 HD
ENDBRANCH  31  32
ENDBRANCH  22  31
ENDBRANCH  18  24
ENDBRANCH   1  18
TORSDOF 10
ENDMDL
MODEL 4
REMARK VINA RESULT:     -11.5      1.604      2.980
REMARK  Name = 445579
REMARK  10 active torsions:
REMARK  status: ('A' for Active; 'I' for Inactive)
REMARK    1  A    between atoms: C_1  and  O_18
REMARK    2  A    between atoms: C_4  and  C_9
REMARK    3  A    between atoms: N_8  and  C_11
REMARK    4  A    between atoms: C_11  and  C_12
REMARK    5  A    between atoms: O_18  and  C_24
REMARK    6  A    between atoms: C_20  and  O_27
REMARK    7  A    between atoms: C_21  and  O_25
REMARK    8  A    between atoms: C_22  and  C_31
REMARK    9  A    between atoms: C_23  and  O_29
REMARK   10  A    between atoms: C_31  and  O_32
REMARK                            x       y       z     vdW  Elec       q    Type
REMARK                         _______ _______ _______ _____ _____    ______ ____
ROOT
ATOM      1  C   UNL     1      32.561 -24.079 -13.887  0.00  0.00    +0.142 C 
ATOM      2  C   UNL     1      32.372 -23.361 -15.063  0.00  0.00    +0.042 C 
ATOM      3  C   UNL     1      31.560 -24.916 -13.402  0.00  0.00    +0.037 C 
ATOM      4  C   UNL     1      31.169 -23.480 -15.761  0.00  0.00    +0.056 C 
ATOM      5  C   UNL     1      30.359 -25.035 -14.100  0.00  0.00    +0.003 C 
ATOM      6  C   UNL     1      30.164 -24.317 -15.280  0.00  0.00    +0.005 C 
ENDROOT
BRANCH   4   9
ATOM      7  O   UNL     1      29.855 -22.291 -17.315  0.00  0.00    -0.270 OA
ATOM      8  N   UNL     1      32.103 -22.512 -17.772  0.00  0.00    -0.297 N 
ATOM      9  C   UNL     1      30.966 -22.732 -16.992  0.00  0.00    +0.246 C 
ATOM     10  H   UNL     1      32.964 -22.884 -17.468  0.00  0.00    +0.150 HD
BRANCH   8  11
ATOM     11  C   UNL     1      32.071 -21.759 -19.005  0.00  0.00    +0.117 C 
BRANCH  11  12
ATOM     12  C   UNL     1      33.445 -21.357 -19.455  0.00  0.00    -0.003 C 
ATOM     13  C   UNL     1      33.590 -20.368 -20.421  0.00  0.00    -0.003 C 
ATOM     14  C   UNL     1      34.560 -21.977 -18.901  0.00  0.00    -0.003 C 
ATOM     15  C   UNL     1      34.868 -19.994 -20.840  0.00  0.00    -0.000 C 
ATOM     16  C   UNL     1      35.836 -21.602 -19.319  0.00  0.00    -0.000 C 
ATOM     17  C   UNL     1      35.990 -20.611 -20.288  0.00  0.00    -0.000 C 
ENDBRANCH  11  12
ENDBRANCH   8  11
ENDBRANCH   4   9
BRANCH   1  18
ATOM     18  O   UNL     1      33.740 -23.962 -13.202  0.00  0.00    -0.451 OA
BRANCH  18  24
ATOM     19  O   UNL     1      35.459 -24.521 -14.728  0.00  0.00    -0.316 OA
ATOM     20  C   UNL     1      37.210 -23.338 -13.501  0.00  0.00    +0.169 C 
ATOM     21  C   UNL     1      36.551 -23.748 -12.180  0.00  0.00    +0.173 C 
ATOM     22  C   UNL     1      36.163 -23.273 -14.620  0.00  0.00    +0.177 C 
ATOM     23  C   UNL     1      35.749 -25.035 -12.369  0.00  0.00    +0.210 C 
ATOM     24  C   UNL     1      34.767 -24.894 -13.534  0.00  0.00    +0.318 C 
BRANCH  21  25
ATOM     25  O   UNL     1      37.546 -23.955 -11.182  0.00  0.00    -0.379 OA
ATOM     26  H   UNL     1      37.323 -24.742 -10.661  0.00  0.00    +0.211 HD
ENDBRANCH  21  25
BRANCH  20  27
ATOM     27  O   UNL     1      38.208 -24.298 -13.855  0.00  0.00    -0.379 OA
ATOM     28  H   UNL     1      37.787 -25.055 -14.291  0.00  0.00    +0.211 HD
ENDBRANCH  20  27
BRANCH  23  29
ATOM     29  O   UNL     1      35.028 -25.347 -11.181  0.00  0.00    -0.377 OA
ATOM     30  H   UNL     1      34.134 -24.974 -11.238  0.00  0.00    +0.211 HD
ENDBRANCH  23  29
BRANCH  22  31
ATOM     31  C   UNL     1      36.786 -22.987 -15.982  0.00  0.00    +0.169 C 
BRANCH  31  32
ATOM     32  O   UNL     1      37.033 -21.596 -16.083  0.00  0.00    -0.379 OA
ATOM     33  H   UNL     1      37.896 -21.391 -15.690  0.00  0.00    +0.211 HD
ENDBRANCH  31  32
ENDBRANCH  22  31
ENDBRANCH  18  24
ENDBRANCH   1  18
TORSDOF 10
ENDMDL
MODEL 5
REMARK VINA RESULT:     -11.3      2.319      3.843
REMARK  Name = 445579
REMARK  10 active torsions:
REMARK  status: ('A' for Active; 'I' for Inactive)
REMARK    1  A    between atoms: C_1  and  O_18
REMARK    2  A    between atoms: C_4  and  C_9
REMARK    3  A    between atoms: N_8  and  C_11
REMARK    4  A    between atoms: C_11  and  C_12
REMARK    5  A    between atoms: O_18  and  C_24
REMARK    6  A    between atoms: C_20  and  O_27
REMARK    7  A    between atoms: C_21  and  O_25
REMARK    8  A    between atoms: C_22  and  C_31
REMARK    9  A    between atoms: C_23  and  O_29
REMARK   10  A    between atoms: C_31  and  O_32
REMARK                            x       y       z     vdW  Elec       q    Type
REMARK                         _______ _______ _______ _____ _____    ______ ____
ROOT
ATOM      1  C   UNL     1      34.845 -22.441 -18.110  0.00  0.00    +0.142 C 
ATOM      2  C   UNL     1      35.527 -21.515 -18.894  0.00  0.00    +0.042 C 
ATOM      3  C   UNL     1      33.473 -22.618 -18.260  0.00  0.00    +0.037 C 
ATOM      4  C   UNL     1      34.830 -20.758 -19.836  0.00  0.00    +0.056 C 
ATOM      5  C   UNL     1      32.777 -21.862 -19.203  0.00  0.00    +0.003 C 
ATOM      6  C   UNL     1      33.455 -20.932 -19.990  0.00  0.00    +0.005 C 
ENDROOT
BRANCH   4   9
ATOM      7  O   UNL     1      36.701 -19.444 -20.408  0.00  0.00    -0.270 OA
ATOM      8  N   UNL     1      34.842 -19.297 -21.763  0.00  0.00    -0.297 N 
ATOM      9  C   UNL     1      35.538 -19.789 -20.658  0.00  0.00    +0.246 C 
ATOM     10  H   UNL     1      33.919 -19.605 -21.917  0.00  0.00    +0.150 HD
BRANCH   8  11
ATOM     11  C   UNL     1      35.420 -18.353 -22.693  0.00  0.00    +0.117 C 
BRANCH  11  12
ATOM     12  C   UNL     1      34.983 -16.945 -22.410  0.00  0.00    -0.003 C 
ATOM     13  C   UNL     1      34.867 -16.513 -21.093  0.00  0.00    -0.003 C 
ATOM     14  C   UNL     1      34.698 -16.087 -23.466  0.00  0.00    -0.003 C 
ATOM     15  C   UNL     1      34.460 -15.205 -20.830  0.00  0.00    -0.000 C 
ATOM     16  C   UNL     1      34.292 -14.779 -23.202  0.00  0.00    -0.000 C 
ATOM     17  C   UNL     1      34.173 -14.338 -21.885  0.00  0.00    -0.000 C 
ENDBRANCH  11  12
ENDBRANCH   8  11
ENDBRANCH   4   9
BRANCH   1  18
ATOM     18  O   UNL     1      35.529 -23.183 -17.186  0.00  0.00    -0.451 OA
BRANCH  18  24
ATOM     19  O   UNL     1      34.558 -22.638 -15.098  0.00  0.00    -0.316 OA
ATOM     20  C   UNL     1      35.249 -24.713 -14.007  0.00  0.00    +0.169 C 
ATOM     21  C   UNL     1      36.557 -24.687 -14.804  0.00  0.00    +0.173 C 
ATOM     22  C   UNL     1      34.144 -23.975 -14.775  0.00  0.00    +0.177 C 
ATOM     23  C   UNL     1      36.909 -23.251 -15.193  0.00  0.00    +0.210 C 
ATOM     24  C   UNL     1      35.734 -22.582 -15.909  0.00  0.00    +0.318 C 
BRANCH  21  25
ATOM     25  O   UNL     1      37.615 -25.236 -14.024  0.00  0.00    -0.379 OA
ATOM     26  H   UNL     1      38.463 -24.874 -14.326  0.00  0.00    +0.211 HD
ENDBRANCH  21  25
BRANCH  20  27
ATOM     27  O   UNL     1      35.446 -24.069 -12.746  0.00  0.00    -0.379 OA
ATOM     28  H   UNL     1      36.161 -23.418 -12.823  0.00  0.00    +0.211 HD
ENDBRANCH  20  27
BRANCH  23  29
ATOM     29  O   UNL     1      38.050 -23.236 -16.046  0.00  0.00    -0.377 OA
ATOM     30  H   UNL     1      38.030 -22.438 -16.599  0.00  0.00    +0.211 HD
ENDBRANCH  23  29
BRANCH  22  31
ATOM     31  C   UNL     1      32.853 -23.866 -13.972  0.00  0.00    +0.169 C 
BRANCH  31  32
ATOM     32  O   UNL     1      32.794 -24.949 -13.061  0.00  0.00    -0.379 OA
ATOM     33  H   UNL     1      32.060 -24.812 -12.443  0.00  0.00    +0.211 HD
ENDBRANCH  31  32
ENDBRANCH  22  31
ENDBRANCH  18  24
ENDBRANCH   1  18
TORSDOF 10
ENDMDL
MODEL 6
REMARK VINA RESULT:     -11.3      2.060      3.637
REMARK  Name = 445579
REMARK  10 active torsions:
REMARK  status: ('A' for Active; 'I' for Inactive)
REMARK    1  A    between atoms: C_1  and  O_18
REMARK    2  A    between atoms: C_4  and  C_9
REMARK    3  A    between atoms: N_8  and  C_11
REMARK    4  A    between atoms: C_11  and  C_12
REMARK    5  A    between atoms: O_18  and  C_24
REMARK    6  A    between atoms: C_20  and  O_27
REMARK    7  A    between atoms: C_21  and  O_25
REMARK    8  A    between atoms: C_22  and  C_31
REMARK    9  A    between atoms: C_23  and  O_29
REMARK   10  A    between atoms: C_31  and  O_32
REMARK                            x       y       z     vdW  Elec       q    Type
REMARK                         _______ _______ _______ _____ _____    ______ ____
ROOT
ATOM      1  C   UNL     1      34.706 -22.707 -16.876  0.00  0.00    +0.142 C 
ATOM      2  C   UNL     1      35.538 -22.020 -17.755  0.00  0.00    +0.042 C 
ATOM      3  C   UNL     1      33.396 -23.009 -17.234  0.00  0.00    +0.037 C 
ATOM      4  C   UNL     1      35.054 -21.631 -19.004  0.00  0.00    +0.056 C 
ATOM      5  C   UNL     1      32.913 -22.620 -18.483  0.00  0.00    +0.003 C 
ATOM      6  C   UNL     1      33.742 -21.931 -19.368  0.00  0.00    +0.005 C 
ENDROOT
BRANCH   4   9
ATOM      7  O   UNL     1      36.989 -21.392 -20.329  0.00  0.00    -0.270 OA
ATOM      8  N   UNL     1      35.460 -19.668 -20.358  0.00  0.00    -0.297 N 
ATOM      9  C   UNL     1      35.920 -20.913 -19.927  0.00  0.00    +0.246 C 
ATOM     10  H   UNL     1      34.602 -19.333 -20.007  0.00  0.00    +0.150 HD
BRANCH   8  11
ATOM     11  C   UNL     1      36.190 -18.848 -21.298  0.00  0.00    +0.117 C 
BRANCH  11  12
ATOM     12  C   UNL     1      35.330 -18.411 -22.448  0.00  0.00    -0.003 C 
ATOM     13  C   UNL     1      35.153 -17.055 -22.698  0.00  0.00    -0.003 C 
ATOM     14  C   UNL     1      34.719 -19.367 -23.253  0.00  0.00    -0.003 C 
ATOM     15  C   UNL     1      34.353 -16.649 -23.768  0.00  0.00    -0.000 C 
ATOM     16  C   UNL     1      33.921 -18.960 -24.322  0.00  0.00    -0.000 C 
ATOM     17  C   UNL     1      33.738 -17.602 -24.579  0.00  0.00    -0.000 C 
ENDBRANCH  11  12
ENDBRANCH   8  11
ENDBRANCH   4   9
BRANCH   1  18
ATOM     18  O   UNL     1      35.181 -23.089 -15.650  0.00  0.00    -0.451 OA
BRANCH  18  24
ATOM     19  O   UNL     1      36.007 -25.276 -15.284  0.00  0.00    -0.316 OA
ATOM     20  C   UNL     1      36.582 -24.884 -12.941  0.00  0.00    +0.169 C 
ATOM     21  C   UNL     1      35.346 -23.991 -12.795  0.00  0.00    +0.173 C 
ATOM     22  C   UNL     1      37.067 -24.887 -14.397  0.00  0.00    +0.177 C 
ATOM     23  C   UNL     1      34.281 -24.394 -13.814  0.00  0.00    +0.210 C 
ATOM     24  C   UNL     1      34.866 -24.415 -15.228  0.00  0.00    +0.318 C 
BRANCH  21  25
ATOM     25  O   UNL     1      34.810 -24.112 -11.481  0.00  0.00    -0.379 OA
ATOM     26  H   UNL     1      34.954 -25.014 -11.154  0.00  0.00    +0.211 HD
ENDBRANCH  21  25
BRANCH  20  27
ATOM     27  O   UNL     1      36.252 -26.222 -12.561  0.00  0.00    -0.379 OA
ATOM     28  H   UNL     1      36.964 -26.586 -12.012  0.00  0.00    +0.211 HD
ENDBRANCH  20  27
BRANCH  23  29
ATOM     29  O   UNL     1      33.187 -23.483 -13.772  0.00  0.00    -0.377 OA
ATOM     30  H   UNL     1      33.447 -22.645 -14.185  0.00  0.00    +0.211 HD
ENDBRANCH  23  29
BRANCH  22  31
ATOM     31  C   UNL     1      38.222 -25.854 -14.623  0.00  0.00    +0.169 C 
BRANCH  31  32
ATOM     32  O   UNL     1      37.691 -27.121 -14.970  0.00  0.00    -0.379 OA
ATOM     33  H   UNL     1      37.689 -27.696 -14.190  0.00  0.00    +0.211 HD
ENDBRANCH  31  32
ENDBRANCH  22  31
ENDBRANCH  18  24
ENDBRANCH   1  18
TORSDOF 10
ENDMDL
MODEL 7
REMARK VINA RESULT:     -11.3      2.574      4.090
REMARK  Name = 445579
REMARK  10 active torsions:
REMARK  status: ('A' for Active; 'I' for Inactive)
REMARK    1  A    between atoms: C_1  and  O_18
REMARK    2  A    between atoms: C_4  and  C_9
REMARK    3  A    between atoms: N_8  and  C_11
REMARK    4  A    between atoms: C_11  and  C_12
REMARK    5  A    between atoms: O_18  and  C_24
REMARK    6  A    between atoms: C_20  and  O_27
REMARK    7  A    between atoms: C_21  and  O_25
REMARK    8  A    between atoms: C_22  and  C_31
REMARK    9  A    between atoms: C_23  and  O_29
REMARK   10  A    between atoms: C_31  and  O_32
REMARK                            x       y       z     vdW  Elec       q    Type
REMARK                         _______ _______ _______ _____ _____    ______ ____
ROOT
ATOM      1  C   UNL     1      34.757 -22.323 -18.224  0.00  0.00    +0.142 C 
ATOM      2  C   UNL     1      35.477 -21.437 -19.020  0.00  0.00    +0.042 C 
ATOM      3  C   UNL     1      33.379 -22.444 -18.371  0.00  0.00    +0.037 C 
ATOM      4  C   UNL     1      34.812 -20.663 -19.971  0.00  0.00    +0.056 C 
ATOM      5  C   UNL     1      32.714 -21.671 -19.323  0.00  0.00    +0.003 C 
ATOM      6  C   UNL     1      33.430 -20.781 -20.123  0.00  0.00    +0.005 C 
ENDROOT
BRANCH   4   9
ATOM      7  O   UNL     1      36.663 -19.290 -20.463  0.00  0.00    -0.270 OA
ATOM      8  N   UNL     1      34.975 -19.402 -22.028  0.00  0.00    -0.297 N 
ATOM      9  C   UNL     1      35.559 -19.736 -20.805  0.00  0.00    +0.246 C 
ATOM     10  H   UNL     1      34.095 -19.785 -22.252  0.00  0.00    +0.150 HD
BRANCH   8  11
ATOM     11  C   UNL     1      35.608 -18.518 -22.981  0.00  0.00    +0.117 C 
BRANCH  11  12
ATOM     12  C   UNL     1      34.656 -18.071 -24.052  0.00  0.00    -0.003 C 
ATOM     13  C   UNL     1      34.004 -19.020 -24.832  0.00  0.00    -0.003 C 
ATOM     14  C   UNL     1      34.435 -16.713 -24.254  0.00  0.00    -0.003 C 
ATOM     15  C   UNL     1      33.119 -18.604 -25.828  0.00  0.00    -0.000 C 
ATOM     16  C   UNL     1      33.550 -16.299 -25.249  0.00  0.00    -0.000 C 
ATOM     17  C   UNL     1      32.893 -17.244 -26.036  0.00  0.00    -0.000 C 
ENDBRANCH  11  12
ENDBRANCH   8  11
ENDBRANCH   4   9
BRANCH   1  18
ATOM     18  O   UNL     1      35.410 -23.082 -17.291  0.00  0.00    -0.451 OA
BRANCH  18  24
ATOM     19  O   UNL     1      34.422 -22.588 -15.199  0.00  0.00    -0.316 OA
ATOM     20  C   UNL     1      35.163 -24.658 -14.133  0.00  0.00    +0.169 C 
ATOM     21  C   UNL     1      36.471 -24.590 -14.926  0.00  0.00    +0.173 C 
ATOM     22  C   UNL     1      34.041 -23.939 -14.893  0.00  0.00    +0.177 C 
ATOM     23  C   UNL     1      36.788 -23.142 -15.296  0.00  0.00    +0.210 C 
ATOM     24  C   UNL     1      35.598 -22.492 -16.006  0.00  0.00    +0.318 C 
BRANCH  21  25
ATOM     25  O   UNL     1      37.540 -25.123 -14.151  0.00  0.00    -0.379 OA
ATOM     26  H   UNL     1      38.031 -25.773 -14.678  0.00  0.00    +0.211 HD
ENDBRANCH  21  25
BRANCH  20  27
ATOM     27  O   UNL     1      35.341 -24.026 -12.863  0.00  0.00    -0.379 OA
ATOM     28  H   UNL     1      35.607 -23.103 -12.996  0.00  0.00    +0.211 HD
ENDBRANCH  20  27
BRANCH  23  29
ATOM     29  O   UNL     1      37.930 -23.087 -16.146  0.00  0.00    -0.377 OA
ATOM     30  H   UNL     1      38.404 -22.253 -15.998  0.00  0.00    +0.211 HD
ENDBRANCH  23  29
BRANCH  22  31
ATOM     31  C   UNL     1      32.746 -23.872 -14.092  0.00  0.00    +0.169 C 
BRANCH  31  32
ATOM     32  O   UNL     1      32.710 -24.971 -13.198  0.00  0.00    -0.379 OA
ATOM     33  H   UNL     1      33.303 -25.667 -13.517  0.00  0.00    +0.211 HD
ENDBRANCH  31  32
ENDBRANCH  22  31
ENDBRANCH  18  24
ENDBRANCH   1  18
TORSDOF 10
ENDMDL
MODEL 8
REMARK VINA RESULT:     -11.2      1.881      3.377
REMARK  Name = 445579
REMARK  10 active torsions:
REMARK  status: ('A' for Active; 'I' for Inactive)
REMARK    1  A    between atoms: C_1  and  O_18
REMARK    2  A    between atoms: C_4  and  C_9
REMARK    3  A    between atoms: N_8  and  C_11
REMARK    4  A    between atoms: C_11  and  C_12
REMARK    5  A    between atoms: O_18  and  C_24
REMARK    6  A    between atoms: C_20  and  O_27
REMARK    7  A    between atoms: C_21  and  O_25
REMARK    8  A    between atoms: C_22  and  C_31
REMARK    9  A    between atoms: C_23  and  O_29
REMARK   10  A    between atoms: C_31  and  O_32
REMARK                            x       y       z     vdW  Elec       q    Type
REMARK                         _______ _______ _______ _____ _____    ______ ____
ROOT
ATOM      1  C   UNL     1      35.689 -22.671 -15.608  0.00  0.00    +0.142 C 
ATOM      2  C   UNL     1      34.744 -22.517 -16.618  0.00  0.00    +0.042 C 
ATOM      3  C   UNL     1      37.032 -22.399 -15.850  0.00  0.00    +0.037 C 
ATOM      4  C   UNL     1      35.147 -22.086 -17.882  0.00  0.00    +0.056 C 
ATOM      5  C   UNL     1      37.434 -21.967 -17.114  0.00  0.00    +0.003 C 
ATOM      6  C   UNL     1      36.492 -21.811 -18.130  0.00  0.00    +0.005 C 
ENDROOT
BRANCH   4   9
ATOM      7  O   UNL     1      33.256 -22.745 -19.126  0.00  0.00    -0.270 OA
ATOM      8  N   UNL     1      34.282 -20.767 -19.716  0.00  0.00    -0.297 N 
ATOM      9  C   UNL     1      34.164 -21.922 -18.941  0.00  0.00    +0.246 C 
ATOM     10  H   UNL     1      35.022 -20.144 -19.526  0.00  0.00    +0.150 HD
BRANCH   8  11
ATOM     11  C   UNL     1      33.364 -20.445 -20.785  0.00  0.00    +0.117 C 
BRANCH  11  12
ATOM     12  C   UNL     1      33.882 -19.339 -21.657  0.00  0.00    -0.003 C 
ATOM     13  C   UNL     1      33.540 -19.309 -23.005  0.00  0.00    -0.003 C 
ATOM     14  C   UNL     1      34.698 -18.355 -21.110  0.00  0.00    -0.003 C 
ATOM     15  C   UNL     1      34.022 -18.281 -23.816  0.00  0.00    -0.000 C 
ATOM     16  C   UNL     1      35.178 -17.327 -21.921  0.00  0.00    -0.000 C 
ATOM     17  C   UNL     1      34.840 -17.290 -23.274  0.00  0.00    -0.000 C 
ENDBRANCH  11  12
ENDBRANCH   8  11
ENDBRANCH   4   9
BRANCH   1  18
ATOM     18  O   UNL     1      35.294 -23.094 -14.368  0.00  0.00    -0.451 OA
BRANCH  18  24
ATOM     19  O   UNL     1      36.221 -25.271 -14.439  0.00  0.00    -0.316 OA
ATOM     20  C   UNL     1      36.788 -25.326 -12.063  0.00  0.00    +0.169 C 
ATOM     21  C   UNL     1      35.513 -24.537 -11.748  0.00  0.00    +0.173 C 
ATOM     22  C   UNL     1      37.266 -25.017 -13.487  0.00  0.00    +0.177 C 
ATOM     23  C   UNL     1      34.463 -24.777 -12.832  0.00  0.00    +0.210 C 
ATOM     24  C   UNL     1      35.043 -24.491 -14.219  0.00  0.00    +0.318 C 
BRANCH  21  25
ATOM     25  O   UNL     1      34.989 -24.941 -10.487  0.00  0.00    -0.379 OA
ATOM     26  H   UNL     1      34.745 -24.156  -9.971  0.00  0.00    +0.211 HD
ENDBRANCH  21  25
BRANCH  20  27
ATOM     27  O   UNL     1      36.521 -26.726 -11.957  0.00  0.00    -0.379 OA
ATOM     28  H   UNL     1      36.308 -26.946 -11.037  0.00  0.00    +0.211 HD
ENDBRANCH  20  27
BRANCH  23  29
ATOM     29  O   UNL     1      33.329 -23.944 -12.615  0.00  0.00    -0.377 OA
ATOM     30  H   UNL     1      32.654 -24.136 -13.285  0.00  0.00    +0.211 HD
ENDBRANCH  23  29
BRANCH  22  31
ATOM     31  C   UNL     1      38.464 -25.867 -13.895  0.00  0.00    +0.169 C 
BRANCH  31  32
ATOM     32  O   UNL     1      37.997 -26.979 -14.638  0.00  0.00    -0.379 OA
ATOM     33  H   UNL     1      37.052 -27.111 -14.465  0.00  0.00    +0.211 HD
ENDBRANCH  31  32
ENDBRANCH  22  31
ENDBRANCH  18  24
ENDBRANCH   1  18
TORSDOF 10
ENDMDL
MODEL 9
REMARK VINA RESULT:     -10.8      4.759     10.952
REMARK  Name = 445579
REMARK  10 active torsions:
REMARK  status: ('A' for Active; 'I' for Inactive)
REMARK    1  A    between atoms: C_1  and  O_18
REMARK    2  A    between atoms: C_4  and  C_9
REMARK    3  A    between atoms: N_8  and  C_11
REMARK    4  A    between atoms: C_11  and  C_12
REMARK    5  A    between atoms: O_18  and  C_24
REMARK    6  A    between atoms: C_20  and  O_27
REMARK    7  A    between atoms: C_21  and  O_25
REMARK    8  A    between atoms: C_22  and  C_31
REMARK    9  A    between atoms: C_23  and  O_29
REMARK   10  A    between atoms: C_31  and  O_32
REMARK                            x       y       z     vdW  Elec       q    Type
REMARK                         _______ _______ _______ _____ _____    ______ ____
ROOT
ATOM      1  C   UNL     1      34.472 -18.882 -21.915  0.00  0.00    +0.142 C 
ATOM      2  C   UNL     1      33.693 -19.794 -21.210  0.00  0.00    +0.042 C 
ATOM      3  C   UNL     1      35.843 -18.802 -21.691  0.00  0.00    +0.037 C 
ATOM      4  C   UNL     1      34.291 -20.633 -20.270  0.00  0.00    +0.056 C 
ATOM      5  C   UNL     1      36.440 -19.642 -20.752  0.00  0.00    +0.003 C 
ATOM      6  C   UNL     1      35.665 -20.558 -20.041  0.00  0.00    +0.005 C 
ENDROOT
BRANCH   4   9
ATOM      7  O   UNL     1      32.335 -21.892 -19.888  0.00  0.00    -0.270 OA
ATOM      8  N   UNL     1      34.084 -22.168 -18.412  0.00  0.00    -0.297 N 
ATOM      9  C   UNL     1      33.481 -21.589 -19.530  0.00  0.00    +0.246 C 
ATOM     10  H   UNL     1      34.998 -21.892 -18.171  0.00  0.00    +0.150 HD
BRANCH   8  11
ATOM     11  C   UNL     1      33.421 -23.157 -17.592  0.00  0.00    +0.117 C 
BRANCH  11  12
ATOM     12  C   UNL     1      34.082 -23.313 -16.254  0.00  0.00    -0.003 C 
ATOM     13  C   UNL     1      35.399 -22.899 -16.085  0.00  0.00    -0.003 C 
ATOM     14  C   UNL     1      33.372 -23.869 -15.196  0.00  0.00    -0.003 C 
ATOM     15  C   UNL     1      36.014 -23.044 -14.841  0.00  0.00    -0.000 C 
ATOM     16  C   UNL     1      33.987 -24.013 -13.952  0.00  0.00    -0.000 C 
ATOM     17  C   UNL     1      35.307 -23.601 -13.775  0.00  0.00    -0.000 C 
ENDBRANCH  11  12
ENDBRANCH   8  11
ENDBRANCH   4   9
BRANCH   1  18
ATOM     18  O   UNL     1      33.885 -18.058 -22.837  0.00  0.00    -0.451 OA
BRANCH  18  24
ATOM     19  O   UNL     1      33.986 -18.476 -25.164  0.00  0.00    -0.316 OA
ATOM     20  C   UNL     1      32.732 -16.472 -25.783  0.00  0.00    +0.169 C 
ATOM     21  C   UNL     1      33.401 -15.708 -24.636  0.00  0.00    +0.173 C 
ATOM     22  C   UNL     1      32.675 -17.971 -25.461  0.00  0.00    +0.177 C 
ATOM     23  C   UNL     1      34.755 -16.334 -24.305  0.00  0.00    +0.210 C 
ATOM     24  C   UNL     1      34.608 -17.835 -24.047  0.00  0.00    +0.318 C 
BRANCH  21  25
ATOM     25  O   UNL     1      33.590 -14.345 -25.004  0.00  0.00    -0.379 OA
ATOM     26  H   UNL     1      34.358 -13.985 -24.532  0.00  0.00    +0.211 HD
ENDBRANCH  21  25
BRANCH  20  27
ATOM     27  O   UNL     1      33.483 -16.285 -26.985  0.00  0.00    -0.379 OA
ATOM     28  H   UNL     1      32.950 -16.562 -27.746  0.00  0.00    +0.211 HD
ENDBRANCH  20  27
BRANCH  23  29
ATOM     29  O   UNL     1      35.320 -15.712 -23.155  0.00  0.00    -0.377 OA
ATOM     30  H   UNL     1      34.626 -15.570 -22.491  0.00  0.00    +0.211 HD
ENDBRANCH  23  29
BRANCH  22  31
ATOM     31  C   UNL     1      32.127 -18.794 -26.622  0.00  0.00    +0.169 C 
BRANCH  31  32
ATOM     32  O   UNL     1      31.533 -17.914 -27.559  0.00  0.00    -0.379 OA
ATOM     33  H   UNL     1      30.601 -17.778 -27.330  0.00  0.00    +0.211 HD
ENDBRANCH  31  32
ENDBRANCH  22  31
ENDBRANCH  18  24
ENDBRANCH   1  18
TORSDOF 10
ENDMDL
