MODEL 1
REMARK VINA RESULT:     -13.9      0.000      0.000
REMARK  Name = 89670174
REMARK  4 active torsions:
REMARK  status: ('A' for Active; 'I' for Inactive)
REMARK    1  A    between atoms: C_3  and  C_13
REMARK    2  A    between atoms: C_9  and  O_26
REMARK    3  A    between atoms: C_18  and  C_25
REMARK    4  A    between atoms: O_26  and  C_30
REMARK                            x       y       z     vdW  Elec       q    Type
REMARK                         _______ _______ _______ _____ _____    ______ ____
ROOT
ATOM      1  O   UNL     1      34.339 -17.229 -26.018  0.00  0.00    -0.479 OA
ATOM      2  C   UNL     1      34.305 -16.587 -23.659  0.00  0.00    +0.072 C 
ATOM      3  C   UNL     1      33.621 -17.946 -23.660  0.00  0.00    +0.085 C 
ATOM      4  C   UNL     1      34.722 -17.660 -24.658  0.00  0.00    +0.174 C 
ATOM      5  C   UNL     1      33.822 -15.504 -24.552  0.00  0.00    +0.018 C 
ATOM      6  C   UNL     1      33.876 -15.929 -25.886  0.00  0.00    +0.135 C 
ATOM      7  C   UNL     1      33.361 -14.229 -24.262  0.00  0.00    +0.036 C 
ATOM      8  C   UNL     1      33.482 -15.133 -26.944  0.00  0.00    +0.040 C 
ATOM      9  C   UNL     1      32.960 -13.402 -25.317  0.00  0.00    +0.145 C 
ATOM     10  C   UNL     1      33.021 -13.851 -26.648  0.00  0.00    +0.041 C 
ENDROOT
BRANCH   3  13
ATOM     11  N   UNL     1      32.876 -19.547 -21.828  0.00  0.00    -0.318 N 
ATOM     12  N   UNL     1      35.062 -19.226 -22.074  0.00  0.00    -0.318 N 
ATOM     13  C   UNL     1      33.868 -18.908 -22.519  0.00  0.00    +0.148 C 
ATOM     14  C   UNL     1      33.471 -20.331 -20.873  0.00  0.00    +0.059 C 
ATOM     15  C   UNL     1      34.835 -20.115 -21.046  0.00  0.00    +0.059 C 
ATOM     16  C   UNL     1      32.948 -21.186 -19.901  0.00  0.00    +0.019 C 
ATOM     17  C   UNL     1      35.746 -20.781 -20.211  0.00  0.00    +0.016 C 
ATOM     18  C   UNL     1      33.870 -21.842 -19.078  0.00  0.00    +0.073 C 
ATOM     19  C   UNL     1      35.244 -21.644 -19.229  0.00  0.00    +0.005 C 
ATOM     20  H   UNL     1      31.909 -19.459 -21.987  0.00  0.00    +0.148 HD
ATOM     21  H   UNL     1      35.931 -18.902 -22.403  0.00  0.00    +0.148 HD
BRANCH  18  25
ATOM     22  F   UNL     1      33.308 -24.073 -18.428  0.00  0.00    -0.166 F 
ATOM     23  F   UNL     1      34.146 -22.786 -16.897  0.00  0.00    -0.166 F 
ATOM     24  F   UNL     1      32.115 -22.456 -17.597  0.00  0.00    -0.166 F 
ATOM     25  C   UNL     1      33.372 -22.771 -18.021  0.00  0.00    +0.419 C 
ENDBRANCH  18  25
ENDBRANCH   3  13
BRANCH   9  26
ATOM     26  O   UNL     1      32.497 -12.126 -25.048  0.00  0.00    -0.454 OA
BRANCH  26  30
ATOM     27  O   UNL     1      32.935  -7.068 -21.255  0.00  0.00    -0.275 OA
ATOM     28  N   UNL     1      34.132  -8.140 -22.896  0.00  0.00    -0.270 N 
ATOM     29  N   UNL     1      35.371  -9.156 -24.636  0.00  0.00    -0.229 NA
ATOM     30  C   UNL     1      33.419 -11.133 -24.913  0.00  0.00    +0.146 C 
ATOM     31  C   UNL     1      33.260 -10.122 -23.964  0.00  0.00    +0.045 C 
ATOM     32  C   UNL     1      32.114 -10.127 -22.998  0.00  0.00    +0.042 C 
ATOM     33  C   UNL     1      34.542 -11.143 -25.732  0.00  0.00    +0.058 C 
ATOM     34  C   UNL     1      34.259  -9.155 -23.863  0.00  0.00    +0.133 C 
ATOM     35  C   UNL     1      31.773  -8.712 -22.556  0.00  0.00    +0.090 C 
ATOM     36  C   UNL     1      32.996  -7.918 -22.143  0.00  0.00    +0.227 C 
ATOM     37  C   UNL     1      35.481 -10.144 -25.552  0.00  0.00    +0.103 C 
ATOM     38  H   UNL     1      34.905  -7.549 -22.746  0.00  0.00    +0.156 HD
ENDBRANCH  26  30
ENDBRANCH   9  26
TORSDOF 4
ENDMDL
MODEL 2
REMARK VINA RESULT:     -13.7      4.423      7.185
REMARK  Name = 89670174
REMARK  4 active torsions:
REMARK  status: ('A' for Active; 'I' for Inactive)
REMARK    1  A    between atoms: C_3  and  C_13
REMARK    2  A    between atoms: C_9  and  O_26
REMARK    3  A    between atoms: C_18  and  C_25
REMARK    4  A    between atoms: O_26  and  C_30
REMARK                            x       y       z     vdW  Elec       q    Type
REMARK                         _______ _______ _______ _____ _____    ______ ____
ROOT
ATOM      1  O   UNL     1      32.554 -21.821 -20.046  0.00  0.00    -0.479 OA
ATOM      2  C   UNL     1      34.888 -21.727 -19.325  0.00  0.00    +0.072 C 
ATOM      3  C   UNL     1      34.124 -21.839 -18.015  0.00  0.00    +0.085 C 
ATOM      4  C   UNL     1      33.588 -22.520 -19.256  0.00  0.00    +0.174 C 
ATOM      5  C   UNL     1      34.549 -20.661 -20.302  0.00  0.00    +0.018 C 
ATOM      6  C   UNL     1      33.205 -20.776 -20.682  0.00  0.00    +0.135 C 
ATOM      7  C   UNL     1      35.326 -19.649 -20.845  0.00  0.00    +0.036 C 
ATOM      8  C   UNL     1      32.603 -19.916 -21.579  0.00  0.00    +0.040 C 
ATOM      9  C   UNL     1      34.739 -18.767 -21.759  0.00  0.00    +0.145 C 
ATOM     10  C   UNL     1      33.388 -18.900 -22.123  0.00  0.00    +0.041 C 
ENDROOT
BRANCH   3  13
ATOM     11  N   UNL     1      36.002 -22.624 -16.488  0.00  0.00    -0.318 N 
ATOM     12  N   UNL     1      33.991 -23.518 -16.172  0.00  0.00    -0.318 N 
ATOM     13  C   UNL     1      34.694 -22.668 -16.886  0.00  0.00    +0.148 C 
ATOM     14  C   UNL     1      36.151 -23.504 -15.446  0.00  0.00    +0.059 C 
ATOM     15  C   UNL     1      34.883 -24.049 -15.268  0.00  0.00    +0.059 C 
ATOM     16  C   UNL     1      37.255 -23.859 -14.669  0.00  0.00    +0.019 C 
ATOM     17  C   UNL     1      34.685 -25.006 -14.259  0.00  0.00    +0.016 C 
ATOM     18  C   UNL     1      37.039 -24.814 -13.669  0.00  0.00    +0.073 C 
ATOM     19  C   UNL     1      35.778 -25.378 -13.467  0.00  0.00    +0.005 C 
ATOM     20  H   UNL     1      36.709 -22.062 -16.878  0.00  0.00    +0.148 HD
ATOM     21  H   UNL     1      33.034 -23.728 -16.262  0.00  0.00    +0.148 HD
BRANCH  18  25
ATOM     22  F   UNL     1      39.256 -25.694 -13.504  0.00  0.00    -0.166 F 
ATOM     23  F   UNL     1      38.668 -24.229 -12.018  0.00  0.00    -0.166 F 
ATOM     24  F   UNL     1      37.842 -26.239 -11.945  0.00  0.00    -0.166 F 
ATOM     25  C   UNL     1      38.180 -25.234 -12.803  0.00  0.00    +0.419 C 
ENDBRANCH  18  25
ENDBRANCH   3  13
BRANCH   9  26
ATOM     26  O   UNL     1      35.497 -17.749 -22.310  0.00  0.00    -0.454 OA
BRANCH  26  30
ATOM     27  O   UNL     1      32.722 -15.089 -27.349  0.00  0.00    -0.275 OA
ATOM     28  N   UNL     1      33.132 -14.646 -25.134  0.00  0.00    -0.270 N 
ATOM     29  N   UNL     1      33.596 -14.100 -22.879  0.00  0.00    -0.229 NA
ATOM     30  C   UNL     1      34.888 -16.549 -22.521  0.00  0.00    +0.146 C 
ATOM     31  C   UNL     1      34.344 -16.221 -23.764  0.00  0.00    +0.045 C 
ATOM     32  C   UNL     1      34.332 -17.202 -24.897  0.00  0.00    +0.042 C 
ATOM     33  C   UNL     1      34.801 -15.646 -21.467  0.00  0.00    +0.058 C 
ATOM     34  C   UNL     1      33.711 -14.987 -23.896  0.00  0.00    +0.133 C 
ATOM     35  C   UNL     1      34.325 -16.481 -26.235  0.00  0.00    +0.090 C 
ATOM     36  C   UNL     1      33.295 -15.371 -26.297  0.00  0.00    +0.227 C 
ATOM     37  C   UNL     1      34.148 -14.449 -21.696  0.00  0.00    +0.103 C 
ATOM     38  H   UNL     1      32.574 -13.835 -25.173  0.00  0.00    +0.156 HD
ENDBRANCH  26  30
ENDBRANCH   9  26
TORSDOF 4
ENDMDL
MODEL 3
REMARK VINA RESULT:     -13.6      5.828     11.919
REMARK  Name = 89670174
REMARK  4 active torsions:
REMARK  status: ('A' for Active; 'I' for Inactive)
REMARK    1  A    between atoms: C_3  and  C_13
REMARK    2  A    between atoms: C_9  and  O_26
REMARK    3  A    between atoms: C_18  and  C_25
REMARK    4  A    between atoms: O_26  and  C_30
REMARK                            x       y       z     vdW  Elec       q    Type
REMARK                         _______ _______ _______ _____ _____    ______ ____
ROOT
ATOM      1  O   UNL     1      36.966 -19.150 -21.248  0.00  0.00    -0.479 OA
ATOM      2  C   UNL     1      34.624 -18.935 -21.916  0.00  0.00    +0.072 C 
ATOM      3  C   UNL     1      35.064 -17.492 -21.718  0.00  0.00    +0.085 C 
ATOM      4  C   UNL     1      36.057 -18.516 -22.224  0.00  0.00    +0.174 C 
ATOM      5  C   UNL     1      34.820 -19.933 -20.833  0.00  0.00    +0.018 C 
ATOM      6  C   UNL     1      36.179 -20.016 -20.505  0.00  0.00    +0.135 C 
ATOM      7  C   UNL     1      33.906 -20.730 -20.160  0.00  0.00    +0.036 C 
ATOM      8  C   UNL     1      36.664 -20.861 -19.525  0.00  0.00    +0.040 C 
ATOM      9  C   UNL     1      34.373 -21.596 -19.166  0.00  0.00    +0.145 C 
ATOM     10  C   UNL     1      35.742 -21.661 -18.851  0.00  0.00    +0.041 C 
ENDROOT
BRANCH   3  13
ATOM     11  N   UNL     1      34.201 -16.638 -23.955  0.00  0.00    -0.318 N 
ATOM     12  N   UNL     1      34.375 -15.164 -22.300  0.00  0.00    -0.318 N 
ATOM     13  C   UNL     1      34.546 -16.419 -22.649  0.00  0.00    +0.148 C 
ATOM     14  C   UNL     1      33.779 -15.444 -24.482  0.00  0.00    +0.059 C 
ATOM     15  C   UNL     1      33.896 -14.540 -23.430  0.00  0.00    +0.059 C 
ATOM     16  C   UNL     1      33.319 -15.089 -25.751  0.00  0.00    +0.019 C 
ATOM     17  C   UNL     1      33.538 -13.198 -23.637  0.00  0.00    +0.016 C 
ATOM     18  C   UNL     1      32.967 -13.748 -25.940  0.00  0.00    +0.073 C 
ATOM     19  C   UNL     1      33.073 -12.819 -24.903  0.00  0.00    +0.005 C 
ATOM     20  H   UNL     1      34.248 -17.498 -24.430  0.00  0.00    +0.148 HD
ATOM     21  H   UNL     1      34.550 -14.757 -21.420  0.00  0.00    +0.148 HD
BRANCH  18  25
ATOM     22  F   UNL     1      31.878 -14.308 -27.994  0.00  0.00    -0.166 F 
ATOM     23  F   UNL     1      31.525 -12.319 -27.205  0.00  0.00    -0.166 F 
ATOM     24  F   UNL     1      33.457 -12.815 -28.069  0.00  0.00    -0.166 F 
ATOM     25  C   UNL     1      32.464 -13.307 -27.274  0.00  0.00    +0.419 C 
ENDBRANCH  18  25
ENDBRANCH   3  13
BRANCH   9  26
ATOM     26  O   UNL     1      33.477 -22.398 -18.482  0.00  0.00    -0.454 OA
BRANCH  26  30
ATOM     27  O   UNL     1      30.123 -24.416 -13.497  0.00  0.00    -0.275 OA
ATOM     28  N   UNL     1      32.306 -24.067 -14.118  0.00  0.00    -0.270 N 
ATOM     29  N   UNL     1      34.568 -23.651 -14.674  0.00  0.00    -0.229 NA
ATOM     30  C   UNL     1      33.814 -22.792 -17.222  0.00  0.00    +0.146 C 
ATOM     31  C   UNL     1      32.843 -23.205 -16.308  0.00  0.00    +0.045 C 
ATOM     32  C   UNL     1      31.399 -23.311 -16.694  0.00  0.00    +0.042 C 
ATOM     33  C   UNL     1      35.155 -22.793 -16.855  0.00  0.00    +0.058 C 
ATOM     34  C   UNL     1      33.266 -23.622 -15.047  0.00  0.00    +0.133 C 
ATOM     35  C   UNL     1      30.501 -23.124 -15.481  0.00  0.00    +0.090 C 
ATOM     36  C   UNL     1      30.941 -23.957 -14.294  0.00  0.00    +0.227 C 
ATOM     37  C   UNL     1      35.476 -23.231 -15.582  0.00  0.00    +0.103 C 
ATOM     38  H   UNL     1      32.630 -24.484 -13.287  0.00  0.00    +0.156 HD
ENDBRANCH  26  30
ENDBRANCH   9  26
TORSDOF 4
ENDMDL
MODEL 4
REMARK VINA RESULT:     -13.5      5.753     12.038
REMARK  Name = 89670174
REMARK  4 active torsions:
REMARK  status: ('A' for Active; 'I' for Inactive)
REMARK    1  A    between atoms: C_3  and  C_13
REMARK    2  A    between atoms: C_9  and  O_26
REMARK    3  A    between atoms: C_18  and  C_25
REMARK    4  A    between atoms: O_26  and  C_30
REMARK                            x       y       z     vdW  Elec       q    Type
REMARK                         _______ _______ _______ _____ _____    ______ ____
ROOT
ATOM      1  O   UNL     1      36.832 -19.564 -19.935  0.00  0.00    -0.479 OA
ATOM      2  C   UNL     1      34.843 -19.814 -21.335  0.00  0.00    +0.072 C 
ATOM      3  C   UNL     1      34.897 -18.318 -21.071  0.00  0.00    +0.085 C 
ATOM      4  C   UNL     1      36.184 -19.106 -21.181  0.00  0.00    +0.174 C 
ATOM      5  C   UNL     1      34.869 -20.776 -20.204  0.00  0.00    +0.018 C 
ATOM      6  C   UNL     1      36.035 -20.589 -19.449  0.00  0.00    +0.135 C 
ATOM      7  C   UNL     1      33.964 -21.757 -19.828  0.00  0.00    +0.036 C 
ATOM      8  C   UNL     1      36.331 -21.340 -18.328  0.00  0.00    +0.040 C 
ATOM      9  C   UNL     1      34.244 -22.533 -18.698  0.00  0.00    +0.145 C 
ATOM     10  C   UNL     1      35.418 -22.325 -17.954  0.00  0.00    +0.041 C 
ENDROOT
BRANCH   3  13
ATOM     11  N   UNL     1      34.137 -17.731 -23.428  0.00  0.00    -0.318 N 
ATOM     12  N   UNL     1      34.491 -16.045 -22.023  0.00  0.00    -0.318 N 
ATOM     13  C   UNL     1      34.509 -17.351 -22.168  0.00  0.00    +0.148 C 
ATOM     14  C   UNL     1      33.860 -16.594 -24.143  0.00  0.00    +0.059 C 
ATOM     15  C   UNL     1      34.087 -15.556 -23.245  0.00  0.00    +0.059 C 
ATOM     16  C   UNL     1      33.442 -16.391 -25.459  0.00  0.00    +0.019 C 
ATOM     17  C   UNL     1      33.891 -14.230 -23.666  0.00  0.00    +0.016 C 
ATOM     18  C   UNL     1      33.252 -15.065 -25.862  0.00  0.00    +0.073 C 
ATOM     19  C   UNL     1      33.472 -14.003 -24.983  0.00  0.00    +0.005 C 
ATOM     20  H   UNL     1      34.079 -18.655 -23.762  0.00  0.00    +0.148 HD
ATOM     21  H   UNL     1      34.715 -15.529 -21.215  0.00  0.00    +0.148 HD
BRANCH  18  25
ATOM     22  F   UNL     1      33.739 -14.135 -28.011  0.00  0.00    -0.166 F 
ATOM     23  F   UNL     1      32.488 -15.906 -27.967  0.00  0.00    -0.166 F 
ATOM     24  F   UNL     1      31.688 -13.998 -27.299  0.00  0.00    -0.166 F 
ATOM     25  C   UNL     1      32.803 -14.783 -27.257  0.00  0.00    +0.419 C 
ENDBRANCH  18  25
ENDBRANCH   3  13
BRANCH   9  26
ATOM     26  O   UNL     1      33.353 -23.516 -18.306  0.00  0.00    -0.454 OA
BRANCH  26  30
ATOM     27  O   UNL     1      34.513 -24.324 -12.127  0.00  0.00    -0.275 OA
ATOM     28  N   UNL     1      32.867 -23.524 -13.514  0.00  0.00    -0.270 N 
ATOM     29  N   UNL     1      31.104 -22.761 -14.895  0.00  0.00    -0.229 NA
ATOM     30  C   UNL     1      32.622 -23.294 -17.177  0.00  0.00    +0.146 C 
ATOM     31  C   UNL     1      33.145 -23.564 -15.911  0.00  0.00    +0.045 C 
ATOM     32  C   UNL     1      34.557 -24.030 -15.731  0.00  0.00    +0.042 C 
ATOM     33  C   UNL     1      31.337 -22.777 -17.300  0.00  0.00    +0.058 C 
ATOM     34  C   UNL     1      32.350 -23.284 -14.801  0.00  0.00    +0.133 C 
ATOM     35  C   UNL     1      34.696 -24.852 -14.459  0.00  0.00    +0.090 C 
ATOM     36  C   UNL     1      34.050 -24.188 -13.260  0.00  0.00    +0.227 C 
ATOM     37  C   UNL     1      30.629 -22.528 -16.138  0.00  0.00    +0.103 C 
ATOM     38  H   UNL     1      32.349 -23.197 -12.742  0.00  0.00    +0.156 HD
ENDBRANCH  26  30
ENDBRANCH   9  26
TORSDOF 4
ENDMDL
MODEL 5
REMARK VINA RESULT:     -13.3      4.123      6.862
REMARK  Name = 89670174
REMARK  4 active torsions:
REMARK  status: ('A' for Active; 'I' for Inactive)
REMARK    1  A    between atoms: C_3  and  C_13
REMARK    2  A    between atoms: C_9  and  O_26
REMARK    3  A    between atoms: C_18  and  C_25
REMARK    4  A    between atoms: O_26  and  C_30
REMARK                            x       y       z     vdW  Elec       q    Type
REMARK                         _______ _______ _______ _____ _____    ______ ____
ROOT
ATOM      1  O   UNL     1      32.474 -21.856 -19.996  0.00  0.00    -0.479 OA
ATOM      2  C   UNL     1      34.818 -21.741 -19.313  0.00  0.00    +0.072 C 
ATOM      3  C   UNL     1      34.074 -21.828 -17.989  0.00  0.00    +0.085 C 
ATOM      4  C   UNL     1      33.522 -22.536 -19.208  0.00  0.00    +0.174 C 
ATOM      5  C   UNL     1      34.462 -20.697 -20.306  0.00  0.00    +0.018 C 
ATOM      6  C   UNL     1      33.113 -20.823 -20.663  0.00  0.00    +0.135 C 
ATOM      7  C   UNL     1      35.228 -19.694 -20.881  0.00  0.00    +0.036 C 
ATOM      8  C   UNL     1      32.495 -19.983 -21.569  0.00  0.00    +0.040 C 
ATOM      9  C   UNL     1      34.625 -18.832 -21.804  0.00  0.00    +0.145 C 
ATOM     10  C   UNL     1      33.269 -18.976 -22.145  0.00  0.00    +0.041 C 
ENDROOT
BRANCH   3  13
ATOM     11  N   UNL     1      35.990 -22.633 -16.521  0.00  0.00    -0.318 N 
ATOM     12  N   UNL     1      33.960 -23.415 -16.065  0.00  0.00    -0.318 N 
ATOM     13  C   UNL     1      34.663 -22.633 -16.852  0.00  0.00    +0.148 C 
ATOM     14  C   UNL     1      36.153 -23.472 -15.448  0.00  0.00    +0.059 C 
ATOM     15  C   UNL     1      34.872 -23.947 -15.182  0.00  0.00    +0.059 C 
ATOM     16  C   UNL     1      37.277 -23.845 -14.710  0.00  0.00    +0.019 C 
ATOM     17  C   UNL     1      34.682 -24.848 -14.121  0.00  0.00    +0.016 C 
ATOM     18  C   UNL     1      37.070 -24.743 -13.658  0.00  0.00    +0.073 C 
ATOM     19  C   UNL     1      35.796 -25.236 -13.367  0.00  0.00    +0.005 C 
ATOM     20  H   UNL     1      36.701 -22.124 -16.972  0.00  0.00    +0.148 HD
ATOM     21  H   UNL     1      32.990 -23.584 -16.098  0.00  0.00    +0.148 HD
BRANCH  18  25
ATOM     22  F   UNL     1      37.955 -26.236 -12.012  0.00  0.00    -0.166 F 
ATOM     23  F   UNL     1      39.313 -25.569 -13.566  0.00  0.00    -0.166 F 
ATOM     24  F   UNL     1      38.688 -24.188 -12.008  0.00  0.00    -0.166 F 
ATOM     25  C   UNL     1      38.233 -25.178 -12.829  0.00  0.00    +0.419 C 
ENDBRANCH  18  25
ENDBRANCH   3  13
BRANCH   9  26
ATOM     26  O   UNL     1      35.372 -17.824 -22.387  0.00  0.00    -0.454 OA
BRANCH  26  30
ATOM     27  O   UNL     1      32.956 -12.005 -23.069  0.00  0.00    -0.275 OA
ATOM     28  N   UNL     1      33.399 -13.879 -24.320  0.00  0.00    -0.270 N 
ATOM     29  N   UNL     1      33.759 -15.808 -25.641  0.00  0.00    -0.229 NA
ATOM     30  C   UNL     1      34.821 -17.155 -23.438  0.00  0.00    +0.146 C 
ATOM     31  C   UNL     1      34.366 -15.842 -23.302  0.00  0.00    +0.045 C 
ATOM     32  C   UNL     1      34.535 -15.084 -22.021  0.00  0.00    +0.042 C 
ATOM     33  C   UNL     1      34.728 -17.796 -24.668  0.00  0.00    +0.058 C 
ATOM     34  C   UNL     1      33.840 -15.211 -24.428  0.00  0.00    +0.133 C 
ATOM     35  C   UNL     1      33.456 -14.023 -21.875  0.00  0.00    +0.090 C 
ATOM     36  C   UNL     1      33.279 -13.191 -23.129  0.00  0.00    +0.227 C 
ATOM     37  C   UNL     1      34.197 -17.084 -25.728  0.00  0.00    +0.103 C 
ATOM     38  H   UNL     1      33.159 -13.406 -25.150  0.00  0.00    +0.156 HD
ENDBRANCH  26  30
ENDBRANCH   9  26
TORSDOF 4
ENDMDL
MODEL 6
REMARK VINA RESULT:     -12.7      1.489      1.977
REMARK  Name = 89670174
REMARK  4 active torsions:
REMARK  status: ('A' for Active; 'I' for Inactive)
REMARK    1  A    between atoms: C_3  and  C_13
REMARK    2  A    between atoms: C_9  and  O_26
REMARK    3  A    between atoms: C_18  and  C_25
REMARK    4  A    between atoms: O_26  and  C_30
REMARK                            x       y       z     vdW  Elec       q    Type
REMARK                         _______ _______ _______ _____ _____    ______ ____
ROOT
ATOM      1  O   UNL     1      34.053 -17.378 -25.693  0.00  0.00    -0.479 OA
ATOM      2  C   UNL     1      34.492 -16.779 -23.364  0.00  0.00    +0.072 C 
ATOM      3  C   UNL     1      33.605 -18.008 -23.246  0.00  0.00    +0.085 C 
ATOM      4  C   UNL     1      34.568 -17.888 -24.407  0.00  0.00    +0.174 C 
ATOM      5  C   UNL     1      34.058 -15.616 -24.180  0.00  0.00    +0.018 C 
ATOM      6  C   UNL     1      33.833 -16.022 -25.502  0.00  0.00    +0.135 C 
ATOM      7  C   UNL     1      33.862 -14.289 -23.832  0.00  0.00    +0.036 C 
ATOM      8  C   UNL     1      33.414 -15.155 -26.492  0.00  0.00    +0.040 C 
ATOM      9  C   UNL     1      33.441 -13.390 -24.819  0.00  0.00    +0.145 C 
ATOM     10  C   UNL     1      33.219 -13.821 -26.138  0.00  0.00    +0.041 C 
ENDROOT
BRANCH   3  13
ATOM     11  N   UNL     1      32.885 -19.657 -21.446  0.00  0.00    -0.318 N 
ATOM     12  N   UNL     1      35.068 -19.380 -21.758  0.00  0.00    -0.318 N 
ATOM     13  C   UNL     1      33.867 -19.017 -22.149  0.00  0.00    +0.148 C 
ATOM     14  C   UNL     1      33.493 -20.490 -20.542  0.00  0.00    +0.059 C 
ATOM     15  C   UNL     1      34.854 -20.299 -20.756  0.00  0.00    +0.059 C 
ATOM     16  C   UNL     1      32.983 -21.367 -19.583  0.00  0.00    +0.019 C 
ATOM     17  C   UNL     1      35.778 -21.017 -19.978  0.00  0.00    +0.016 C 
ATOM     18  C   UNL     1      33.916 -22.073 -18.817  0.00  0.00    +0.073 C 
ATOM     19  C   UNL     1      35.289 -21.903 -19.010  0.00  0.00    +0.005 C 
ATOM     20  H   UNL     1      31.915 -19.541 -21.568  0.00  0.00    +0.148 HD
ATOM     21  H   UNL     1      35.933 -19.064 -22.107  0.00  0.00    +0.148 HD
BRANCH  18  25
ATOM     22  F   UNL     1      33.249 -24.298 -18.247  0.00  0.00    -0.166 F 
ATOM     23  F   UNL     1      34.283 -23.160 -16.717  0.00  0.00    -0.166 F 
ATOM     24  F   UNL     1      32.234 -22.658 -17.243  0.00  0.00    -0.166 F 
ATOM     25  C   UNL     1      33.433 -23.029 -17.777  0.00  0.00    +0.419 C 
ENDBRANCH  18  25
ENDBRANCH   3  13
BRANCH   9  26
ATOM     26  O   UNL     1      33.238 -12.061 -24.492  0.00  0.00    -0.454 OA
BRANCH  26  30
ATOM     27  O   UNL     1      31.192  -6.708 -21.784  0.00  0.00    -0.275 OA
ATOM     28  N   UNL     1      31.192  -8.974 -21.412  0.00  0.00    -0.270 N 
ATOM     29  N   UNL     1      31.231 -11.291 -20.937  0.00  0.00    -0.229 NA
ATOM     30  C   UNL     1      32.598 -11.788 -23.320  0.00  0.00    +0.146 C 
ATOM     31  C   UNL     1      32.252 -10.481 -22.972  0.00  0.00    +0.045 C 
ATOM     32  C   UNL     1      32.495  -9.332 -23.903  0.00  0.00    +0.042 C 
ATOM     33  C   UNL     1      32.277 -12.839 -22.469  0.00  0.00    +0.058 C 
ATOM     34  C   UNL     1      31.573 -10.281 -21.771  0.00  0.00    +0.133 C 
ATOM     35  C   UNL     1      32.669  -8.036 -23.128  0.00  0.00    +0.090 C 
ATOM     36  C   UNL     1      31.596  -7.834 -22.077  0.00  0.00    +0.227 C 
ATOM     37  C   UNL     1      31.596 -12.540 -21.303  0.00  0.00    +0.103 C 
ATOM     38  H   UNL     1      30.598  -8.866 -20.634  0.00  0.00    +0.156 HD
ENDBRANCH  26  30
ENDBRANCH   9  26
TORSDOF 4
ENDMDL
MODEL 7
REMARK VINA RESULT:     -12.7      6.091     11.837
REMARK  Name = 89670174
REMARK  4 active torsions:
REMARK  status: ('A' for Active; 'I' for Inactive)
REMARK    1  A    between atoms: C_3  and  C_13
REMARK    2  A    between atoms: C_9  and  O_26
REMARK    3  A    between atoms: C_18  and  C_25
REMARK    4  A    between atoms: O_26  and  C_30
REMARK                            x       y       z     vdW  Elec       q    Type
REMARK                         _______ _______ _______ _____ _____    ______ ____
ROOT
ATOM      1  O   UNL     1      36.835 -19.912 -19.374  0.00  0.00    -0.479 OA
ATOM      2  C   UNL     1      35.014 -20.736 -20.782  0.00  0.00    +0.072 C 
ATOM      3  C   UNL     1      34.823 -19.227 -20.813  0.00  0.00    +0.085 C 
ATOM      4  C   UNL     1      36.218 -19.805 -20.712  0.00  0.00    +0.174 C 
ATOM      5  C   UNL     1      35.102 -21.453 -19.484  0.00  0.00    +0.018 C 
ATOM      6  C   UNL     1      36.168 -20.942 -18.731  0.00  0.00    +0.135 C 
ATOM      7  C   UNL     1      34.329 -22.479 -18.962  0.00  0.00    +0.036 C 
ATOM      8  C   UNL     1      36.491 -21.413 -17.474  0.00  0.00    +0.040 C 
ATOM      9  C   UNL     1      34.639 -22.975 -17.691  0.00  0.00    +0.145 C 
ATOM     10  C   UNL     1      35.712 -22.445 -16.953  0.00  0.00    +0.041 C 
ENDROOT
BRANCH   3  13
ATOM     11  N   UNL     1      33.438 -19.079 -22.943  0.00  0.00    -0.318 N 
ATOM     12  N   UNL     1      34.841 -17.407 -22.522  0.00  0.00    -0.318 N 
ATOM     13  C   UNL     1      34.375 -18.558 -22.094  0.00  0.00    +0.148 C 
ATOM     14  C   UNL     1      33.290 -18.204 -23.989  0.00  0.00    +0.059 C 
ATOM     15  C   UNL     1      34.175 -17.169 -23.704  0.00  0.00    +0.059 C 
ATOM     16  C   UNL     1      32.481 -18.229 -25.127  0.00  0.00    +0.019 C 
ATOM     17  C   UNL     1      34.274 -16.086 -24.594  0.00  0.00    +0.016 C 
ATOM     18  C   UNL     1      32.593 -17.143 -26.002  0.00  0.00    +0.073 C 
ATOM     19  C   UNL     1      33.472 -16.090 -25.741  0.00  0.00    +0.005 C 
ATOM     20  H   UNL     1      32.957 -19.929 -22.826  0.00  0.00    +0.148 HD
ATOM     21  H   UNL     1      35.518 -16.837 -22.092  0.00  0.00    +0.148 HD
BRANCH  18  25
ATOM     22  F   UNL     1      32.274 -16.336 -28.231  0.00  0.00    -0.166 F 
ATOM     23  F   UNL     1      31.563 -18.339 -27.800  0.00  0.00    -0.166 F 
ATOM     24  F   UNL     1      30.502 -16.617 -27.002  0.00  0.00    -0.166 F 
ATOM     25  C   UNL     1      31.752 -17.111 -27.235  0.00  0.00    +0.419 C 
ENDBRANCH  18  25
ENDBRANCH   3  13
BRANCH   9  26
ATOM     26  O   UNL     1      33.879 -23.998 -17.152  0.00  0.00    -0.454 OA
BRANCH  26  30
ATOM     27  O   UNL     1      28.049 -22.448 -15.209  0.00  0.00    -0.275 OA
ATOM     28  N   UNL     1      30.105 -22.984 -14.337  0.00  0.00    -0.270 N 
ATOM     29  N   UNL     1      32.219 -23.452 -13.384  0.00  0.00    -0.229 NA
ATOM     30  C   UNL     1      33.323 -23.794 -15.925  0.00  0.00    +0.146 C 
ATOM     31  C   UNL     1      31.974 -23.460 -15.788  0.00  0.00    +0.045 C 
ATOM     32  C   UNL     1      31.061 -23.390 -16.973  0.00  0.00    +0.042 C 
ATOM     33  C   UNL     1      34.119 -23.938 -14.794  0.00  0.00    +0.058 C 
ATOM     34  C   UNL     1      31.468 -23.296 -14.500  0.00  0.00    +0.133 C 
ATOM     35  C   UNL     1      29.914 -22.425 -16.715  0.00  0.00    +0.090 C 
ATOM     36  C   UNL     1      29.253 -22.649 -15.370  0.00  0.00    +0.227 C 
ATOM     37  C   UNL     1      33.522 -23.761 -13.559  0.00  0.00    +0.103 C 
ATOM     38  H   UNL     1      29.734 -23.006 -13.425  0.00  0.00    +0.156 HD
ENDBRANCH  26  30
ENDBRANCH   9  26
TORSDOF 4
ENDMDL
MODEL 8
REMARK VINA RESULT:     -12.6      2.331      3.681
REMARK  Name = 89670174
REMARK  4 active torsions:
REMARK  status: ('A' for Active; 'I' for Inactive)
REMARK    1  A    between atoms: C_3  and  C_13
REMARK    2  A    between atoms: C_9  and  O_26
REMARK    3  A    between atoms: C_18  and  C_25
REMARK    4  A    between atoms: O_26  and  C_30
REMARK                            x       y       z     vdW  Elec       q    Type
REMARK                         _______ _______ _______ _____ _____    ______ ____
ROOT
ATOM      1  O   UNL     1      33.988 -19.440 -23.785  0.00  0.00    -0.479 OA
ATOM      2  C   UNL     1      34.821 -18.787 -21.581  0.00  0.00    +0.072 C 
ATOM      3  C   UNL     1      33.656 -19.708 -21.254  0.00  0.00    +0.085 C 
ATOM      4  C   UNL     1      34.485 -19.960 -22.495  0.00  0.00    +0.174 C 
ATOM      5  C   UNL     1      34.627 -17.625 -22.485  0.00  0.00    +0.018 C 
ATOM      6  C   UNL     1      34.160 -18.065 -23.730  0.00  0.00    +0.135 C 
ATOM      7  C   UNL     1      34.832 -16.270 -22.275  0.00  0.00    +0.036 C 
ATOM      8  C   UNL     1      33.884 -17.205 -24.775  0.00  0.00    +0.040 C 
ATOM      9  C   UNL     1      34.563 -15.379 -23.319  0.00  0.00    +0.145 C 
ATOM     10  C   UNL     1      34.092 -15.843 -24.559  0.00  0.00    +0.041 C 
ENDROOT
BRANCH   3  13
ATOM     11  N   UNL     1      34.913 -20.897 -19.388  0.00  0.00    -0.318 N 
ATOM     12  N   UNL     1      32.742 -21.331 -19.591  0.00  0.00    -0.318 N 
ATOM     13  C   UNL     1      33.756 -20.651 -20.075  0.00  0.00    +0.148 C 
ATOM     14  C   UNL     1      34.624 -21.796 -18.393  0.00  0.00    +0.059 C 
ATOM     15  C   UNL     1      33.264 -22.051 -18.540  0.00  0.00    +0.059 C 
ATOM     16  C   UNL     1      35.413 -22.391 -17.407  0.00  0.00    +0.019 C 
ATOM     17  C   UNL     1      32.636 -22.950 -17.661  0.00  0.00    +0.016 C 
ATOM     18  C   UNL     1      34.772 -23.283 -16.540  0.00  0.00    +0.073 C 
ATOM     19  C   UNL     1      33.408 -23.558 -16.664  0.00  0.00    +0.005 C 
ATOM     20  H   UNL     1      35.794 -20.501 -19.573  0.00  0.00    +0.148 HD
ATOM     21  H   UNL     1      31.810 -21.326 -19.909  0.00  0.00    +0.148 HD
BRANCH  18  25
ATOM     22  F   UNL     1      35.316 -23.445 -14.218  0.00  0.00    -0.166 F 
ATOM     23  F   UNL     1      35.324 -25.288 -15.360  0.00  0.00    -0.166 F 
ATOM     24  F   UNL     1      36.907 -23.826 -15.650  0.00  0.00    -0.166 F 
ATOM     25  C   UNL     1      35.561 -23.948 -15.463  0.00  0.00    +0.419 C 
ENDBRANCH  18  25
ENDBRANCH   3  13
BRANCH   9  26
ATOM     26  O   UNL     1      34.759 -14.022 -23.129  0.00  0.00    -0.454 OA
BRANCH  26  30
ATOM     27  O   UNL     1      32.045  -8.540 -24.787  0.00  0.00    -0.275 OA
ATOM     28  N   UNL     1      31.802 -10.222 -23.242  0.00  0.00    -0.270 N 
ATOM     29  N   UNL     1      31.553 -11.884 -21.578  0.00  0.00    -0.229 NA
ATOM     30  C   UNL     1      33.723 -13.297 -22.621  0.00  0.00    +0.146 C 
ATOM     31  C   UNL     1      33.325 -12.095 -23.209  0.00  0.00    +0.045 C 
ATOM     32  C   UNL     1      33.962 -11.589 -24.466  0.00  0.00    +0.042 C 
ATOM     33  C   UNL     1      33.049 -13.780 -21.505  0.00  0.00    +0.058 C 
ATOM     34  C   UNL     1      32.238 -11.423 -22.651  0.00  0.00    +0.133 C 
ATOM     35  C   UNL     1      33.873 -10.073 -24.545  0.00  0.00    +0.090 C 
ATOM     36  C   UNL     1      32.483  -9.552 -24.240  0.00  0.00    +0.227 C 
ATOM     37  C   UNL     1      31.979 -13.044 -21.030  0.00  0.00    +0.103 C 
ATOM     38  H   UNL     1      30.956  -9.833 -22.923  0.00  0.00    +0.156 HD
ENDBRANCH  26  30
ENDBRANCH   9  26
TORSDOF 4
ENDMDL
MODEL 9
REMARK VINA RESULT:     -12.4      5.409     11.082
REMARK  Name = 89670174
REMARK  4 active torsions:
REMARK  status: ('A' for Active; 'I' for Inactive)
REMARK    1  A    between atoms: C_3  and  C_13
REMARK    2  A    between atoms: C_9  and  O_26
REMARK    3  A    between atoms: C_18  and  C_25
REMARK    4  A    between atoms: O_26  and  C_30
REMARK                            x       y       z     vdW  Elec       q    Type
REMARK                         _______ _______ _______ _____ _____    ______ ____
ROOT
ATOM      1  O   UNL     1      33.275 -15.080 -26.005  0.00  0.00    -0.479 OA
ATOM      2  C   UNL     1      33.336 -14.299 -23.690  0.00  0.00    +0.072 C 
ATOM      3  C   UNL     1      33.967 -13.149 -24.461  0.00  0.00    +0.085 C 
ATOM      4  C   UNL     1      32.877 -13.978 -25.107  0.00  0.00    +0.174 C 
ATOM      5  C   UNL     1      33.862 -15.679 -23.840  0.00  0.00    +0.018 C 
ATOM      6  C   UNL     1      33.790 -16.070 -25.184  0.00  0.00    +0.135 C 
ATOM      7  C   UNL     1      34.372 -16.562 -22.900  0.00  0.00    +0.036 C 
ATOM      8  C   UNL     1      34.213 -17.307 -25.628  0.00  0.00    +0.040 C 
ATOM      9  C   UNL     1      34.805 -17.822 -23.326  0.00  0.00    +0.145 C 
ATOM     10  C   UNL     1      34.725 -18.192 -24.680  0.00  0.00    +0.041 C 
ENDROOT
BRANCH   3  13
ATOM     11  N   UNL     1      32.563 -11.334 -23.361  0.00  0.00    -0.318 N 
ATOM     12  N   UNL     1      34.484 -10.713 -24.292  0.00  0.00    -0.318 N 
ATOM     13  C   UNL     1      33.683 -11.724 -24.042  0.00  0.00    +0.148 C 
ATOM     14  C   UNL     1      32.649  -9.980 -23.157  0.00  0.00    +0.059 C 
ATOM     15  C   UNL     1      33.855  -9.616 -23.746  0.00  0.00    +0.059 C 
ATOM     16  C   UNL     1      31.798  -9.071 -22.525  0.00  0.00    +0.019 C 
ATOM     17  C   UNL     1      34.254  -8.269 -23.715  0.00  0.00    +0.016 C 
ATOM     18  C   UNL     1      32.211  -7.734 -22.503  0.00  0.00    +0.073 C 
ATOM     19  C   UNL     1      33.417  -7.339 -23.087  0.00  0.00    +0.005 C 
ATOM     20  H   UNL     1      31.828 -11.919 -23.069  0.00  0.00    +0.148 HD
ATOM     21  H   UNL     1      35.346 -10.734 -24.766  0.00  0.00    +0.148 HD
BRANCH  18  25
ATOM     22  F   UNL     1      30.153  -6.517 -22.474  0.00  0.00    -0.166 F 
ATOM     23  F   UNL     1      31.019  -7.028 -20.553  0.00  0.00    -0.166 F 
ATOM     24  F   UNL     1      31.938  -5.487 -21.780  0.00  0.00    -0.166 F 
ATOM     25  C   UNL     1      31.346  -6.714 -21.840  0.00  0.00    +0.419 C 
ENDBRANCH  18  25
ENDBRANCH   3  13
BRANCH   9  26
ATOM     26  O   UNL     1      35.319 -18.717 -22.404  0.00  0.00    -0.454 OA
BRANCH  26  30
ATOM     27  O   UNL     1      35.920 -22.535 -17.381  0.00  0.00    -0.275 OA
ATOM     28  N   UNL     1      34.286 -21.676 -18.747  0.00  0.00    -0.270 N 
ATOM     29  N   UNL     1      32.569 -20.886 -20.170  0.00  0.00    -0.229 NA
ATOM     30  C   UNL     1      34.434 -19.451 -21.673  0.00  0.00    +0.146 C 
ATOM     31  C   UNL     1      34.855 -20.216 -20.583  0.00  0.00    +0.045 C 
ATOM     32  C   UNL     1      36.279 -20.202 -20.120  0.00  0.00    +0.042 C 
ATOM     33  C   UNL     1      33.088 -19.419 -22.018  0.00  0.00    +0.058 C 
ATOM     34  C   UNL     1      33.888 -20.918 -19.865  0.00  0.00    +0.133 C 
ATOM     35  C   UNL     1      36.634 -21.508 -19.426  0.00  0.00    +0.090 C 
ATOM     36  C   UNL     1      35.599 -21.927 -18.402  0.00  0.00    +0.227 C 
ATOM     37  C   UNL     1      32.205 -20.145 -21.239  0.00  0.00    +0.103 C 
ATOM     38  H   UNL     1      33.581 -22.053 -18.173  0.00  0.00    +0.156 HD
ENDBRANCH  26  30
ENDBRANCH   9  26
TORSDOF 4
ENDMDL
