MODEL 1
REMARK VINA RESULT:     -12.6      0.000      0.000
REMARK  Name = 10267580
REMARK  2 active torsions:
REMARK  status: ('A' for Active; 'I' for Inactive)
REMARK    1  A    between atoms: N_1  and  C_21
REMARK    2  A    between atoms: C_7  and  C_14
REMARK                            x       y       z     vdW  Elec       q    Type
REMARK                         _______ _______ _______ _____ _____    ______ ____
ROOT
ATOM      1  N   UNL     1      32.327 -22.317 -18.590  0.00  0.00    -0.290 N 
ATOM      2  N   UNL     1      33.849 -23.145 -16.999  0.00  0.00    -0.327 NA
ATOM      3  N   UNL     1      33.073 -24.008 -14.888  0.00  0.00    -0.342 NA
ATOM      4  C   UNL     1      31.488 -23.173 -16.482  0.00  0.00    +0.143 C 
ATOM      5  C   UNL     1      32.565 -22.896 -17.319  0.00  0.00    +0.184 C 
ATOM      6  C   UNL     1      31.801 -23.746 -15.239  0.00  0.00    +0.133 C 
ATOM      7  C   UNL     1      34.027 -23.693 -15.786  0.00  0.00    +0.165 C 
ATOM      8  C   UNL     1      30.155 -22.902 -16.839  0.00  0.00    -0.011 C 
ATOM      9  C   UNL     1      30.749 -24.037 -14.374  0.00  0.00    +0.029 C 
ATOM     10  C   UNL     1      29.124 -23.204 -15.954  0.00  0.00    -0.004 C 
ATOM     11  C   UNL     1      29.422 -23.771 -14.721  0.00  0.00    +0.002 C 
ATOM     12  H   UNL     1      31.426 -22.455 -18.965  0.00  0.00    +0.154 HD
ENDROOT
BRANCH   7  14
ATOM     13  N   UNL     1      35.543 -25.056 -14.601  0.00  0.00    -0.398 NA
ATOM     14  C   UNL     1      35.386 -23.977 -15.403  0.00  0.00    +0.197 C 
ATOM     15  C   UNL     1      36.436 -23.181 -15.841  0.00  0.00    +0.098 C 
ATOM     16  C   UNL     1      36.808 -25.347 -14.223  0.00  0.00    +0.110 C 
ATOM     17  C   UNL     1      37.722 -23.513 -15.431  0.00  0.00    -0.016 C 
ATOM     18  C   UNL     1      37.920 -24.615 -14.607  0.00  0.00    +0.023 C 
ATOM     19  C   UNL     1      36.983 -26.537 -13.339  0.00  0.00    +0.066 C 
ENDBRANCH   7  14
BRANCH   1  21
ATOM     20  N   UNL     1      34.975 -20.076 -20.966  0.00  0.00    -0.242 NA
ATOM     21  C   UNL     1      33.198 -21.580 -19.371  0.00  0.00    +0.053 C 
ATOM     22  C   UNL     1      32.730 -20.549 -20.202  0.00  0.00    +0.035 C 
ATOM     23  C   UNL     1      34.578 -21.838 -19.360  0.00  0.00    +0.035 C 
ATOM     24  C   UNL     1      33.643 -19.840 -20.966  0.00  0.00    +0.100 C 
ATOM     25  C   UNL     1      35.408 -21.071 -20.161  0.00  0.00    +0.100 C 
ENDBRANCH   1  21
TORSDOF 2
ENDMDL
MODEL 2
REMARK VINA RESULT:     -12.5      1.326      5.740
REMARK  Name = 10267580
REMARK  2 active torsions:
REMARK  status: ('A' for Active; 'I' for Inactive)
REMARK    1  A    between atoms: N_1  and  C_21
REMARK    2  A    between atoms: C_7  and  C_14
REMARK                            x       y       z     vdW  Elec       q    Type
REMARK                         _______ _______ _______ _____ _____    ______ ____
ROOT
ATOM      1  N   UNL     1      34.232 -24.682 -14.281  0.00  0.00    -0.290 N 
ATOM      2  N   UNL     1      33.970 -23.437 -16.260  0.00  0.00    -0.327 NA
ATOM      3  N   UNL     1      31.775 -22.958 -17.130  0.00  0.00    -0.342 NA
ATOM      4  C   UNL     1      31.999 -24.230 -15.109  0.00  0.00    +0.143 C 
ATOM      5  C   UNL     1      33.377 -24.098 -15.248  0.00  0.00    +0.184 C 
ATOM      6  C   UNL     1      31.215 -23.624 -16.105  0.00  0.00    +0.133 C 
ATOM      7  C   UNL     1      33.122 -22.900 -17.152  0.00  0.00    +0.165 C 
ATOM      8  C   UNL     1      31.402 -24.926 -14.043  0.00  0.00    -0.011 C 
ATOM      9  C   UNL     1      29.831 -23.736 -16.000  0.00  0.00    +0.029 C 
ATOM     10  C   UNL     1      30.016 -25.022 -13.964  0.00  0.00    -0.004 C 
ATOM     11  C   UNL     1      29.231 -24.426 -14.943  0.00  0.00    +0.002 C 
ATOM     12  H   UNL     1      33.833 -24.846 -13.396  0.00  0.00    +0.154 HD
ENDROOT
BRANCH   7  14
ATOM     13  N   UNL     1      32.837 -21.540 -19.057  0.00  0.00    -0.398 NA
ATOM     14  C   UNL     1      33.714 -22.184 -18.252  0.00  0.00    +0.197 C 
ATOM     15  C   UNL     1      35.089 -22.175 -18.445  0.00  0.00    +0.098 C 
ATOM     16  C   UNL     1      33.363 -20.859 -20.100  0.00  0.00    +0.110 C 
ATOM     17  C   UNL     1      35.592 -21.463 -19.529  0.00  0.00    -0.016 C 
ATOM     18  C   UNL     1      34.719 -20.790 -20.376  0.00  0.00    +0.023 C 
ATOM     19  C   UNL     1      32.397 -20.148 -20.988  0.00  0.00    +0.066 C 
ENDBRANCH   7  14
BRANCH   1  21
ATOM     20  N   UNL     1      38.259 -25.813 -14.717  0.00  0.00    -0.242 NA
ATOM     21  C   UNL     1      35.556 -25.053 -14.424  0.00  0.00    +0.053 C 
ATOM     22  C   UNL     1      35.906 -26.262 -15.048  0.00  0.00    +0.035 C 
ATOM     23  C   UNL     1      36.595 -24.235 -13.952  0.00  0.00    +0.035 C 
ATOM     24  C   UNL     1      37.247 -26.589 -15.166  0.00  0.00    +0.100 C 
ATOM     25  C   UNL     1      37.905 -24.653 -14.119  0.00  0.00    +0.100 C 
ENDBRANCH   1  21
TORSDOF 2
ENDMDL
MODEL 3
REMARK VINA RESULT:     -12.1      1.282      1.816
REMARK  Name = 10267580
REMARK  2 active torsions:
REMARK  status: ('A' for Active; 'I' for Inactive)
REMARK    1  A    between atoms: N_1  and  C_21
REMARK    2  A    between atoms: C_7  and  C_14
REMARK                            x       y       z     vdW  Elec       q    Type
REMARK                         _______ _______ _______ _____ _____    ______ ____
ROOT
ATOM      1  N   UNL     1      33.062 -22.724 -17.866  0.00  0.00    -0.290 N 
ATOM      2  N   UNL     1      34.354 -23.814 -16.230  0.00  0.00    -0.327 NA
ATOM      3  N   UNL     1      33.327 -24.694 -14.237  0.00  0.00    -0.342 NA
ATOM      4  C   UNL     1      31.974 -23.590 -15.880  0.00  0.00    +0.143 C 
ATOM      5  C   UNL     1      33.136 -23.397 -16.621  0.00  0.00    +0.184 C 
ATOM      6  C   UNL     1      32.124 -24.265 -14.657  0.00  0.00    +0.133 C 
ATOM      7  C   UNL     1      34.376 -24.446 -15.045  0.00  0.00    +0.165 C 
ATOM      8  C   UNL     1      30.711 -23.144 -16.310  0.00  0.00    -0.011 C 
ATOM      9  C   UNL     1      30.983 -24.476 -13.887  0.00  0.00    +0.029 C 
ATOM     10  C   UNL     1      29.588 -23.370 -15.519  0.00  0.00    -0.004 C 
ATOM     11  C   UNL     1      29.725 -24.036 -14.308  0.00  0.00    +0.002 C 
ATOM     12  H   UNL     1      32.182 -22.734 -18.310  0.00  0.00    +0.154 HD
ENDROOT
BRANCH   7  14
ATOM     13  N   UNL     1      36.186 -24.215 -13.551  0.00  0.00    -0.398 NA
ATOM     14  C   UNL     1      35.661 -24.909 -14.588  0.00  0.00    +0.197 C 
ATOM     15  C   UNL     1      36.288 -25.992 -15.189  0.00  0.00    +0.098 C 
ATOM     16  C   UNL     1      37.393 -24.625 -13.100  0.00  0.00    +0.110 C 
ATOM     17  C   UNL     1      37.529 -26.384 -14.696  0.00  0.00    -0.016 C 
ATOM     18  C   UNL     1      38.097 -25.693 -13.632  0.00  0.00    +0.023 C 
ATOM     19  C   UNL     1      37.973 -23.861 -11.957  0.00  0.00    +0.066 C 
ENDBRANCH   7  14
BRANCH   1  21
ATOM     20  N   UNL     1      36.124 -20.686 -19.903  0.00  0.00    -0.242 NA
ATOM     21  C   UNL     1      34.068 -22.054 -18.536  0.00  0.00    +0.053 C 
ATOM     22  C   UNL     1      35.394 -22.088 -18.073  0.00  0.00    +0.035 C 
ATOM     23  C   UNL     1      33.800 -21.318 -19.701  0.00  0.00    +0.035 C 
ATOM     24  C   UNL     1      36.367 -21.399 -18.780  0.00  0.00    +0.100 C 
ATOM     25  C   UNL     1      34.844 -20.663 -20.335  0.00  0.00    +0.100 C 
ENDBRANCH   1  21
TORSDOF 2
ENDMDL
MODEL 4
REMARK VINA RESULT:     -12.1      1.517      6.827
REMARK  Name = 10267580
REMARK  2 active torsions:
REMARK  status: ('A' for Active; 'I' for Inactive)
REMARK    1  A    between atoms: N_1  and  C_21
REMARK    2  A    between atoms: C_7  and  C_14
REMARK                            x       y       z     vdW  Elec       q    Type
REMARK                         _______ _______ _______ _____ _____    ______ ____
ROOT
ATOM      1  N   UNL     1      35.505 -23.541 -16.361  0.00  0.00    -0.290 N 
ATOM      2  N   UNL     1      33.153 -23.507 -16.388  0.00  0.00    -0.327 NA
ATOM      3  N   UNL     1      31.960 -22.282 -18.085  0.00  0.00    -0.342 NA
ATOM      4  C   UNL     1      34.358 -22.292 -18.094  0.00  0.00    +0.143 C 
ATOM      5  C   UNL     1      34.300 -23.101 -16.964  0.00  0.00    +0.184 C 
ATOM      6  C   UNL     1      33.124 -21.895 -18.636  0.00  0.00    +0.133 C 
ATOM      7  C   UNL     1      32.037 -23.066 -16.992  0.00  0.00    +0.165 C 
ATOM      8  C   UNL     1      35.570 -21.880 -18.677  0.00  0.00    -0.011 C 
ATOM      9  C   UNL     1      33.143 -21.084 -19.768  0.00  0.00    +0.029 C 
ATOM     10  C   UNL     1      35.558 -21.069 -19.808  0.00  0.00    -0.004 C 
ATOM     11  C   UNL     1      34.343 -20.671 -20.353  0.00  0.00    +0.002 C 
ATOM     12  H   UNL     1      36.299 -23.554 -16.945  0.00  0.00    +0.154 HD
ENDROOT
BRANCH   7  14
ATOM     13  N   UNL     1      29.690 -22.863 -16.913  0.00  0.00    -0.398 NA
ATOM     14  C   UNL     1      30.786 -23.476 -16.409  0.00  0.00    +0.197 C 
ATOM     15  C   UNL     1      30.743 -24.433 -15.404  0.00  0.00    +0.098 C 
ATOM     16  C   UNL     1      28.499 -23.227 -16.384  0.00  0.00    +0.110 C 
ATOM     17  C   UNL     1      29.500 -24.780 -14.885  0.00  0.00    -0.016 C 
ATOM     18  C   UNL     1      28.352 -24.170 -15.380  0.00  0.00    +0.023 C 
ATOM     19  C   UNL     1      27.289 -22.553 -16.938  0.00  0.00    +0.066 C 
ENDBRANCH   7  14
BRANCH   1  21
ATOM     20  N   UNL     1      36.123 -24.795 -12.396  0.00  0.00    -0.242 NA
ATOM     21  C   UNL     1      35.708 -23.953 -15.057  0.00  0.00    +0.053 C 
ATOM     22  C   UNL     1      36.234 -25.224 -14.773  0.00  0.00    +0.035 C 
ATOM     23  C   UNL     1      35.395 -23.116 -13.975  0.00  0.00    +0.035 C 
ATOM     24  C   UNL     1      36.418 -25.590 -13.449  0.00  0.00    +0.100 C 
ATOM     25  C   UNL     1      35.617 -23.576 -12.687  0.00  0.00    +0.100 C 
ENDBRANCH   1  21
TORSDOF 2
ENDMDL
MODEL 5
REMARK VINA RESULT:     -11.7      1.909      6.143
REMARK  Name = 10267580
REMARK  2 active torsions:
REMARK  status: ('A' for Active; 'I' for Inactive)
REMARK    1  A    between atoms: N_1  and  C_21
REMARK    2  A    between atoms: C_7  and  C_14
REMARK                            x       y       z     vdW  Elec       q    Type
REMARK                         _______ _______ _______ _____ _____    ______ ____
ROOT
ATOM      1  N   UNL     1      32.620 -24.624 -13.858  0.00  0.00    -0.290 N 
ATOM      2  N   UNL     1      33.916 -23.531 -15.490  0.00  0.00    -0.327 NA
ATOM      3  N   UNL     1      36.225 -22.992 -15.069  0.00  0.00    -0.342 NA
ATOM      4  C   UNL     1      34.940 -24.106 -13.378  0.00  0.00    +0.143 C 
ATOM      5  C   UNL     1      33.861 -24.069 -14.257  0.00  0.00    +0.184 C 
ATOM      6  C   UNL     1      36.138 -23.537 -13.843  0.00  0.00    +0.133 C 
ATOM      7  C   UNL     1      35.111 -23.018 -15.825  0.00  0.00    +0.165 C 
ATOM      8  C   UNL     1      34.859 -24.673 -12.094  0.00  0.00    -0.011 C 
ATOM      9  C   UNL     1      37.238 -23.555 -12.990  0.00  0.00    +0.029 C 
ATOM     10  C   UNL     1      35.975 -24.676 -11.263  0.00  0.00    -0.004 C 
ATOM     11  C   UNL     1      37.166 -24.117 -11.712  0.00  0.00    +0.002 C 
ATOM     12  H   UNL     1      32.661 -25.303 -13.146  0.00  0.00    +0.154 HD
ENDROOT
BRANCH   7  14
ATOM     13  N   UNL     1      34.063 -22.420 -17.851  0.00  0.00    -0.398 NA
ATOM     14  C   UNL     1      35.213 -22.432 -17.137  0.00  0.00    +0.197 C 
ATOM     15  C   UNL     1      36.418 -21.926 -17.605  0.00  0.00    +0.098 C 
ATOM     16  C   UNL     1      34.127 -21.877 -19.088  0.00  0.00    +0.110 C 
ATOM     17  C   UNL     1      36.443 -21.376 -18.882  0.00  0.00    -0.016 C 
ATOM     18  C   UNL     1      35.280 -21.347 -19.643  0.00  0.00    +0.023 C 
ATOM     19  C   UNL     1      32.860 -21.862 -19.877  0.00  0.00    +0.066 C 
ENDBRANCH   7  14
BRANCH   1  21
ATOM     20  N   UNL     1      28.782 -23.734 -15.327  0.00  0.00    -0.242 NA
ATOM     21  C   UNL     1      31.358 -24.330 -14.341  0.00  0.00    +0.053 C 
ATOM     22  C   UNL     1      30.431 -25.351 -14.610  0.00  0.00    +0.035 C 
ATOM     23  C   UNL     1      30.962 -23.005 -14.578  0.00  0.00    +0.035 C 
ATOM     24  C   UNL     1      29.179 -25.005 -15.094  0.00  0.00    +0.100 C 
ATOM     25  C   UNL     1      29.686 -22.765 -15.063  0.00  0.00    +0.100 C 
ENDBRANCH   1  21
TORSDOF 2
ENDMDL
MODEL 6
REMARK VINA RESULT:     -11.2      1.707      5.194
REMARK  Name = 10267580
REMARK  2 active torsions:
REMARK  status: ('A' for Active; 'I' for Inactive)
REMARK    1  A    between atoms: N_1  and  C_21
REMARK    2  A    between atoms: C_7  and  C_14
REMARK                            x       y       z     vdW  Elec       q    Type
REMARK                         _______ _______ _______ _____ _____    ______ ____
ROOT
ATOM      1  N   UNL     1      31.992 -22.952 -16.505  0.00  0.00    -0.290 N 
ATOM      2  N   UNL     1      34.092 -23.336 -15.517  0.00  0.00    -0.327 NA
ATOM      3  N   UNL     1      36.122 -22.762 -16.680  0.00  0.00    -0.342 NA
ATOM      4  C   UNL     1      34.001 -22.354 -17.723  0.00  0.00    +0.143 C 
ATOM      5  C   UNL     1      33.405 -22.880 -16.581  0.00  0.00    +0.184 C 
ATOM      6  C   UNL     1      35.406 -22.314 -17.727  0.00  0.00    +0.133 C 
ATOM      7  C   UNL     1      35.427 -23.248 -15.633  0.00  0.00    +0.165 C 
ATOM      8  C   UNL     1      33.262 -21.884 -18.823  0.00  0.00    -0.011 C 
ATOM      9  C   UNL     1      36.038 -21.794 -18.853  0.00  0.00    +0.029 C 
ATOM     10  C   UNL     1      33.921 -21.370 -19.936  0.00  0.00    -0.004 C 
ATOM     11  C   UNL     1      35.310 -21.326 -19.950  0.00  0.00    +0.002 C 
ATOM     12  H   UNL     1      31.497 -22.329 -17.085  0.00  0.00    +0.154 HD
ENDROOT
BRANCH   7  14
ATOM     13  N   UNL     1      37.327 -24.401 -14.846  0.00  0.00    -0.398 NA
ATOM     14  C   UNL     1      36.202 -23.725 -14.517  0.00  0.00    +0.197 C 
ATOM     15  C   UNL     1      35.795 -23.492 -13.210  0.00  0.00    +0.098 C 
ATOM     16  C   UNL     1      38.076 -24.863 -13.819  0.00  0.00    +0.110 C 
ATOM     17  C   UNL     1      36.592 -23.982 -12.181  0.00  0.00    -0.016 C 
ATOM     18  C   UNL     1      37.755 -24.682 -12.483  0.00  0.00    +0.023 C 
ATOM     19  C   UNL     1      39.317 -25.608 -14.179  0.00  0.00    +0.066 C 
ENDBRANCH   7  14
BRANCH   1  21
ATOM     20  N   UNL     1      29.645 -25.500 -14.122  0.00  0.00    -0.242 NA
ATOM     21  C   UNL     1      31.220 -23.790 -15.722  0.00  0.00    +0.053 C 
ATOM     22  C   UNL     1      31.690 -24.262 -14.485  0.00  0.00    +0.035 C 
ATOM     23  C   UNL     1      29.942 -24.197 -16.136  0.00  0.00    +0.035 C 
ATOM     24  C   UNL     1      30.878 -25.099 -13.737  0.00  0.00    +0.100 C 
ATOM     25  C   UNL     1      29.208 -25.038 -15.314  0.00  0.00    +0.100 C 
ENDBRANCH   1  21
TORSDOF 2
ENDMDL
MODEL 7
REMARK VINA RESULT:     -11.2      1.844      6.209
REMARK  Name = 10267580
REMARK  2 active torsions:
REMARK  status: ('A' for Active; 'I' for Inactive)
REMARK    1  A    between atoms: N_1  and  C_21
REMARK    2  A    between atoms: C_7  and  C_14
REMARK                            x       y       z     vdW  Elec       q    Type
REMARK                         _______ _______ _______ _____ _____    ______ ____
ROOT
ATOM      1  N   UNL     1      32.160 -24.604 -14.271  0.00  0.00    -0.290 N 
ATOM      2  N   UNL     1      33.263 -23.492 -16.027  0.00  0.00    -0.327 NA
ATOM      3  N   UNL     1      35.589 -22.895 -15.836  0.00  0.00    -0.342 NA
ATOM      4  C   UNL     1      34.502 -24.028 -14.023  0.00  0.00    +0.143 C 
ATOM      5  C   UNL     1      33.343 -24.023 -14.792  0.00  0.00    +0.184 C 
ATOM      6  C   UNL     1      35.635 -23.435 -14.605  0.00  0.00    +0.133 C 
ATOM      7  C   UNL     1      34.406 -22.953 -16.480  0.00  0.00    +0.165 C 
ATOM      8  C   UNL     1      34.561 -24.589 -12.735  0.00  0.00    -0.011 C 
ATOM      9  C   UNL     1      36.814 -23.421 -13.865  0.00  0.00    +0.029 C 
ATOM     10  C   UNL     1      35.754 -24.560 -12.017  0.00  0.00    -0.004 C 
ATOM     11  C   UNL     1      36.880 -23.976 -12.583  0.00  0.00    +0.002 C 
ATOM     12  H   UNL     1      32.287 -25.277 -13.563  0.00  0.00    +0.154 HD
ENDROOT
BRANCH   7  14
ATOM     13  N   UNL     1      35.548 -21.897 -18.252  0.00  0.00    -0.398 NA
ATOM     14  C   UNL     1      34.365 -22.373 -17.797  0.00  0.00    +0.197 C 
ATOM     15  C   UNL     1      33.183 -22.322 -18.522  0.00  0.00    +0.098 C 
ATOM     16  C   UNL     1      35.542 -21.345 -19.486  0.00  0.00    +0.110 C 
ATOM     17  C   UNL     1      33.217 -21.747 -19.788  0.00  0.00    -0.016 C 
ATOM     18  C   UNL     1      34.414 -21.247 -20.286  0.00  0.00    +0.023 C 
ATOM     19  C   UNL     1      36.844 -20.819 -19.989  0.00  0.00    +0.066 C 
ENDBRANCH   7  14
BRANCH   1  21
ATOM     20  N   UNL     1      28.176 -23.816 -15.360  0.00  0.00    -0.242 NA
ATOM     21  C   UNL     1      30.851 -24.344 -14.629  0.00  0.00    +0.053 C 
ATOM     22  C   UNL     1      29.914 -25.384 -14.756  0.00  0.00    +0.035 C 
ATOM     23  C   UNL     1      30.412 -23.034 -14.878  0.00  0.00    +0.035 C 
ATOM     24  C   UNL     1      28.614 -25.072 -15.118  0.00  0.00    +0.100 C 
ATOM     25  C   UNL     1      29.089 -22.827 -15.234  0.00  0.00    +0.100 C 
ENDBRANCH   1  21
TORSDOF 2
ENDMDL
MODEL 8
REMARK VINA RESULT:      -9.8      8.641     12.797
REMARK  Name = 10267580
REMARK  2 active torsions:
REMARK  status: ('A' for Active; 'I' for Inactive)
REMARK    1  A    between atoms: N_1  and  C_21
REMARK    2  A    between atoms: C_7  and  C_14
REMARK                            x       y       z     vdW  Elec       q    Type
REMARK                         _______ _______ _______ _____ _____    ______ ____
ROOT
ATOM      1  N   UNL     1      32.500 -10.749 -23.566  0.00  0.00    -0.290 N 
ATOM      2  N   UNL     1      33.310 -12.893 -23.035  0.00  0.00    -0.327 NA
ATOM      3  N   UNL     1      33.640 -14.544 -24.758  0.00  0.00    -0.342 NA
ATOM      4  C   UNL     1      32.812 -12.370 -25.342  0.00  0.00    +0.143 C 
ATOM      5  C   UNL     1      32.886 -12.044 -23.991  0.00  0.00    +0.184 C 
ATOM      6  C   UNL     1      33.212 -13.672 -25.688  0.00  0.00    +0.133 C 
ATOM      7  C   UNL     1      33.666 -14.108 -23.484  0.00  0.00    +0.165 C 
ATOM      8  C   UNL     1      32.365 -11.466 -26.322  0.00  0.00    -0.011 C 
ATOM      9  C   UNL     1      33.151 -14.034 -27.031  0.00  0.00    +0.029 C 
ATOM     10  C   UNL     1      32.315 -11.856 -27.657  0.00  0.00    -0.004 C 
ATOM     11  C   UNL     1      32.708 -13.141 -28.011  0.00  0.00    +0.002 C 
ATOM     12  H   UNL     1      32.531 -10.043 -24.253  0.00  0.00    +0.154 HD
ENDROOT
BRANCH   7  14
ATOM     13  N   UNL     1      34.494 -16.257 -22.979  0.00  0.00    -0.398 NA
ATOM     14  C   UNL     1      34.126 -15.047 -22.494  0.00  0.00    +0.197 C 
ATOM     15  C   UNL     1      34.176 -14.707 -21.150  0.00  0.00    +0.098 C 
ATOM     16  C   UNL     1      34.929 -17.162 -22.073  0.00  0.00    +0.110 C 
ATOM     17  C   UNL     1      34.630 -15.665 -20.249  0.00  0.00    -0.016 C 
ATOM     18  C   UNL     1      35.015 -16.918 -20.712  0.00  0.00    +0.023 C 
ATOM     19  C   UNL     1      35.335 -18.496 -22.605  0.00  0.00    +0.066 C 
ENDBRANCH   7  14
BRANCH   1  21
ATOM     20  N   UNL     1      31.227  -9.539 -19.746  0.00  0.00    -0.242 NA
ATOM     21  C   UNL     1      32.082 -10.350 -22.310  0.00  0.00    +0.053 C 
ATOM     22  C   UNL     1      31.257 -11.174 -21.527  0.00  0.00    +0.035 C 
ATOM     23  C   UNL     1      32.467  -9.111 -21.776  0.00  0.00    +0.035 C 
ATOM     24  C   UNL     1      30.864 -10.729 -20.275  0.00  0.00    +0.100 C 
ATOM     25  C   UNL     1      32.021  -8.758 -20.513  0.00  0.00    +0.100 C 
ENDBRANCH   1  21
TORSDOF 2
ENDMDL
MODEL 9
REMARK VINA RESULT:      -9.7     11.692     14.533
REMARK  Name = 10267580
REMARK  2 active torsions:
REMARK  status: ('A' for Active; 'I' for Inactive)
REMARK    1  A    between atoms: N_1  and  C_21
REMARK    2  A    between atoms: C_7  and  C_14
REMARK                            x       y       z     vdW  Elec       q    Type
REMARK                         _______ _______ _______ _____ _____    ______ ____
ROOT
ATOM      1  N   UNL     1      32.227  -8.644 -23.641  0.00  0.00    -0.290 N 
ATOM      2  N   UNL     1      32.565 -10.962 -23.871  0.00  0.00    -0.327 NA
ATOM      3  N   UNL     1      32.221 -12.445 -22.005  0.00  0.00    -0.342 NA
ATOM      4  C   UNL     1      31.866 -10.090 -21.728  0.00  0.00    +0.143 C 
ATOM      5  C   UNL     1      32.221  -9.939 -23.066  0.00  0.00    +0.184 C 
ATOM      6  C   UNL     1      31.881 -11.402 -21.227  0.00  0.00    +0.133 C 
ATOM      7  C   UNL     1      32.544 -12.169 -23.284  0.00  0.00    +0.165 C 
ATOM      8  C   UNL     1      31.510  -9.006 -20.906  0.00  0.00    -0.011 C 
ATOM      9  C   UNL     1      31.533 -11.592 -19.893  0.00  0.00    +0.029 C 
ATOM     10  C   UNL     1      31.166  -9.226 -19.575  0.00  0.00    -0.004 C 
ATOM     11  C   UNL     1      31.178 -10.520 -19.069  0.00  0.00    +0.002 C 
ATOM     12  H   UNL     1      31.663  -7.972 -23.195  0.00  0.00    +0.154 HD
ENDROOT
BRANCH   7  14
ATOM     13  N   UNL     1      32.641 -13.142 -25.429  0.00  0.00    -0.398 NA
ATOM     14  C   UNL     1      32.907 -13.291 -24.110  0.00  0.00    +0.197 C 
ATOM     15  C   UNL     1      33.484 -14.429 -23.562  0.00  0.00    +0.098 C 
ATOM     16  C   UNL     1      32.969 -14.180 -26.231  0.00  0.00    +0.110 C 
ATOM     17  C   UNL     1      33.807 -15.475 -24.420  0.00  0.00    -0.016 C 
ATOM     18  C   UNL     1      33.548 -15.356 -25.780  0.00  0.00    +0.023 C 
ATOM     19  C   UNL     1      32.678 -14.018 -27.685  0.00  0.00    +0.066 C 
ENDBRANCH   7  14
BRANCH   1  21
ATOM     20  N   UNL     1      34.359  -7.308 -27.010  0.00  0.00    -0.242 NA
ATOM     21  C   UNL     1      32.929  -8.205 -24.748  0.00  0.00    +0.053 C 
ATOM     22  C   UNL     1      32.259  -7.729 -25.888  0.00  0.00    +0.035 C 
ATOM     23  C   UNL     1      34.332  -8.220 -24.772  0.00  0.00    +0.035 C 
ATOM     24  C   UNL     1      33.007  -7.300 -26.972  0.00  0.00    +0.100 C 
ATOM     25  C   UNL     1      34.988  -7.770 -25.906  0.00  0.00    +0.100 C 
ENDBRANCH   1  21
TORSDOF 2
ENDMDL
