MODEL 1
REMARK VINA RESULT:     -12.8      0.000      0.000
REMARK  Name = 54576693
REMARK  3 active torsions:
REMARK  status: ('A' for Active; 'I' for Inactive)
REMARK    1  A    between atoms: N_2  and  C_19
REMARK    2  A    between atoms: N_4  and  C_14
REMARK    3  A    between atoms: C_19  and  C_24
REMARK                            x       y       z     vdW  Elec       q    Type
REMARK                         _______ _______ _______ _____ _____    ______ ____
ROOT
ATOM      1  O   UNL     1      36.775 -21.459 -17.613  0.00  0.00    -0.252 OA
ATOM      2  N   UNL     1      33.271 -23.868 -15.010  0.00  0.00    +0.392 N 
ATOM      3  N   UNL     1      34.943 -22.764 -17.070  0.00  0.00    -0.268 N 
ATOM      4  N   UNL     1      35.110 -21.762 -19.202  0.00  0.00    -0.266 N 
ATOM      5  C   UNL     1      34.388 -22.981 -14.663  0.00  0.00    -0.055 C 
ATOM      6  C   UNL     1      32.687 -23.464 -16.295  0.00  0.00    -0.055 C 
ATOM      7  C   UNL     1      33.725 -23.507 -17.420  0.00  0.00    +0.072 C 
ATOM      8  C   UNL     1      35.473 -23.047 -15.735  0.00  0.00    +0.072 C 
ATOM      9  C   UNL     1      35.691 -21.943 -17.945  0.00  0.00    +0.308 C 
ATOM     10  H   UNL     1      33.624 -24.822 -15.097  0.00  0.00    -0.079 HD
ATOM     11  H   UNL     1      34.556 -22.503 -19.537  0.00  0.00    +0.156 HD
ENDROOT
BRANCH   4  14
ATOM     12 CL   UNL     1      32.520 -20.581 -20.344  0.00  0.00    -0.081 Cl
ATOM     13  N   UNL     1      36.699 -19.038 -21.118  0.00  0.00    -0.241 NA
ATOM     14  C   UNL     1      35.230 -20.632 -20.047  0.00  0.00    +0.082 C 
ATOM     15  C   UNL     1      34.125 -20.012 -20.623  0.00  0.00    +0.074 C 
ATOM     16  C   UNL     1      36.483 -20.110 -20.324  0.00  0.00    +0.114 C 
ATOM     17  C   UNL     1      34.307 -18.906 -21.447  0.00  0.00    +0.033 C 
ATOM     18  C   UNL     1      35.603 -18.462 -21.660  0.00  0.00    +0.100 C 
ENDBRANCH   4  14
BRANCH   2  19
ATOM     19  C   UNL     1      32.256 -23.852 -13.957  0.00  0.00    -0.050 C 
BRANCH  19  24
ATOM     20  F   UNL     1      25.969 -22.047 -15.691  0.00  0.00    -0.125 F 
ATOM     21  F   UNL     1      26.794 -22.406 -17.686  0.00  0.00    -0.125 F 
ATOM     22  O   UNL     1      28.208 -21.865 -15.998  0.00  0.00    -0.395 OA
ATOM     23  O   UNL     1      27.066 -23.991 -16.087  0.00  0.00    -0.395 OA
ATOM     24  C   UNL     1      30.862 -23.925 -14.522  0.00  0.00    -0.040 C 
ATOM     25  C   UNL     1      30.242 -22.764 -14.990  0.00  0.00    +0.034 C 
ATOM     26  C   UNL     1      30.197 -25.163 -14.574  0.00  0.00    -0.003 C 
ATOM     27  C   UNL     1      28.965 -22.881 -15.500  0.00  0.00    +0.181 C 
ATOM     28  C   UNL     1      28.313 -24.095 -15.551  0.00  0.00    +0.182 C 
ATOM     29  C   UNL     1      28.904 -25.255 -15.095  0.00  0.00    +0.040 C 
ATOM     30  C   UNL     1      27.019 -22.583 -16.360  0.00  0.00    +0.589 C 
ENDBRANCH  19  24
ENDBRANCH   2  19
TORSDOF 3
ENDMDL
MODEL 2
REMARK VINA RESULT:     -12.3      5.239      9.599
REMARK  Name = 54576693
REMARK  3 active torsions:
REMARK  status: ('A' for Active; 'I' for Inactive)
REMARK    1  A    between atoms: N_2  and  C_19
REMARK    2  A    between atoms: N_4  and  C_14
REMARK    3  A    between atoms: C_19  and  C_24
REMARK                            x       y       z     vdW  Elec       q    Type
REMARK                         _______ _______ _______ _____ _____    ______ ____
ROOT
ATOM      1  O   UNL     1      31.945 -22.421 -18.016  0.00  0.00    -0.252 OA
ATOM      2  N   UNL     1      34.648 -19.825 -21.305  0.00  0.00    +0.392 N 
ATOM      3  N   UNL     1      33.671 -21.743 -19.400  0.00  0.00    -0.268 N 
ATOM      4  N   UNL     1      34.104 -23.124 -17.535  0.00  0.00    -0.266 N 
ATOM      5  C   UNL     1      33.326 -19.653 -20.690  0.00  0.00    -0.055 C 
ATOM      6  C   UNL     1      35.571 -20.451 -20.350  0.00  0.00    -0.055 C 
ATOM      7  C   UNL     1      35.055 -21.816 -19.885  0.00  0.00    +0.072 C 
ATOM      8  C   UNL     1      32.754 -21.005 -20.271  0.00  0.00    +0.072 C 
ATOM      9  C   UNL     1      33.150 -22.429 -18.280  0.00  0.00    +0.308 C 
ATOM     10  H   UNL     1      34.555 -20.437 -22.117  0.00  0.00    -0.079 HD
ATOM     11  H   UNL     1      34.882 -23.465 -18.033  0.00  0.00    +0.156 HD
ENDROOT
BRANCH   4  14
ATOM     12 CL   UNL     1      36.747 -22.854 -16.002  0.00  0.00    -0.081 Cl
ATOM     13  N   UNL     1      32.764 -24.039 -14.221  0.00  0.00    -0.241 NA
ATOM     14  C   UNL     1      34.079 -23.393 -16.144  0.00  0.00    +0.082 C 
ATOM     15  C   UNL     1      35.215 -23.304 -15.347  0.00  0.00    +0.074 C 
ATOM     16  C   UNL     1      32.889 -23.762 -15.538  0.00  0.00    +0.114 C 
ATOM     17  C   UNL     1      35.127 -23.583 -13.987  0.00  0.00    +0.033 C 
ATOM     18  C   UNL     1      33.889 -23.942 -13.478  0.00  0.00    +0.100 C 
ENDBRANCH   4  14
BRANCH   2  19
ATOM     19  C   UNL     1      35.174 -18.539 -21.761  0.00  0.00    -0.050 C 
BRANCH  19  24
ATOM     20  F   UNL     1      31.863 -15.320 -26.706  0.00  0.00    -0.125 F 
ATOM     21  F   UNL     1      33.918 -14.965 -27.371  0.00  0.00    -0.125 F 
ATOM     22  O   UNL     1      33.530 -15.350 -25.170  0.00  0.00    -0.395 OA
ATOM     23  O   UNL     1      33.289 -17.078 -26.839  0.00  0.00    -0.395 OA
ATOM     24  C   UNL     1      34.670 -18.182 -23.134  0.00  0.00    -0.040 C 
ATOM     25  C   UNL     1      34.348 -16.856 -23.430  0.00  0.00    +0.034 C 
ATOM     26  C   UNL     1      34.530 -19.188 -24.106  0.00  0.00    -0.003 C 
ATOM     27  C   UNL     1      33.891 -16.577 -24.702  0.00  0.00    +0.181 C 
ATOM     28  C   UNL     1      33.753 -17.563 -25.655  0.00  0.00    +0.182 C 
ATOM     29  C   UNL     1      34.065 -18.880 -25.387  0.00  0.00    +0.040 C 
ATOM     30  C   UNL     1      33.154 -15.687 -26.514  0.00  0.00    +0.589 C 
ENDBRANCH  19  24
ENDBRANCH   2  19
TORSDOF 3
ENDMDL
MODEL 3
REMARK VINA RESULT:     -12.0      8.197     12.869
REMARK  Name = 54576693
REMARK  3 active torsions:
REMARK  status: ('A' for Active; 'I' for Inactive)
REMARK    1  A    between atoms: N_2  and  C_19
REMARK    2  A    between atoms: N_4  and  C_14
REMARK    3  A    between atoms: C_19  and  C_24
REMARK                            x       y       z     vdW  Elec       q    Type
REMARK                         _______ _______ _______ _____ _____    ______ ____
ROOT
ATOM      1  O   UNL     1      34.665 -19.642 -24.044  0.00  0.00    -0.252 OA
ATOM      2  N   UNL     1      33.610 -14.899 -25.165  0.00  0.00    +0.392 N 
ATOM      3  N   UNL     1      34.465 -17.340 -23.912  0.00  0.00    -0.268 N 
ATOM      4  N   UNL     1      34.627 -18.643 -21.950  0.00  0.00    -0.266 N 
ATOM      5  C   UNL     1      33.399 -16.189 -25.833  0.00  0.00    -0.055 C 
ATOM      6  C   UNL     1      33.495 -15.060 -23.710  0.00  0.00    -0.055 C 
ATOM      7  C   UNL     1      34.515 -16.070 -23.176  0.00  0.00    +0.072 C 
ATOM      8  C   UNL     1      34.441 -17.205 -25.369  0.00  0.00    +0.072 C 
ATOM      9  C   UNL     1      34.583 -18.629 -23.345  0.00  0.00    +0.308 C 
ATOM     10  H   UNL     1      34.549 -14.566 -25.383  0.00  0.00    -0.079 HD
ATOM     11  H   UNL     1      35.021 -17.851 -21.518  0.00  0.00    +0.156 HD
ENDROOT
BRANCH   4  14
ATOM     12 CL   UNL     1      36.739 -20.180 -20.342  0.00  0.00    -0.081 Cl
ATOM     13  N   UNL     1      32.277 -20.893 -20.209  0.00  0.00    -0.241 NA
ATOM     14  C   UNL     1      34.167 -19.668 -21.087  0.00  0.00    +0.082 C 
ATOM     15  C   UNL     1      35.032 -20.432 -20.309  0.00  0.00    +0.074 C 
ATOM     16  C   UNL     1      32.811 -19.937 -21.000  0.00  0.00    +0.114 C 
ATOM     17  C   UNL     1      34.520 -21.426 -19.482  0.00  0.00    +0.033 C 
ATOM     18  C   UNL     1      33.147 -21.615 -19.468  0.00  0.00    +0.100 C 
ENDBRANCH   4  14
BRANCH   2  19
ATOM     19  C   UNL     1      32.650 -13.907 -25.649  0.00  0.00    -0.050 C 
BRANCH  19  24
ATOM     20  F   UNL     1      33.793  -7.368 -24.338  0.00  0.00    -0.125 F 
ATOM     21  F   UNL     1      35.735  -8.188 -23.750  0.00  0.00    -0.125 F 
ATOM     22  O   UNL     1      33.913  -9.539 -23.695  0.00  0.00    -0.395 OA
ATOM     23  O   UNL     1      34.872  -8.756 -25.769  0.00  0.00    -0.395 OA
ATOM     24  C   UNL     1      33.254 -12.530 -25.717  0.00  0.00    -0.040 C 
ATOM     25  C   UNL     1      33.257 -11.718 -24.580  0.00  0.00    +0.034 C 
ATOM     26  C   UNL     1      33.812 -12.074 -26.924  0.00  0.00    -0.003 C 
ATOM     27  C   UNL     1      33.822 -10.464 -24.690  0.00  0.00    +0.181 C 
ATOM     28  C   UNL     1      34.369 -10.017 -25.874  0.00  0.00    +0.182 C 
ATOM     29  C   UNL     1      34.379 -10.800 -27.010  0.00  0.00    +0.040 C 
ATOM     30  C   UNL     1      34.575  -8.474 -24.394  0.00  0.00    +0.589 C 
ENDBRANCH  19  24
ENDBRANCH   2  19
TORSDOF 3
ENDMDL
MODEL 4
REMARK VINA RESULT:     -11.7      6.691     10.328
REMARK  Name = 54576693
REMARK  3 active torsions:
REMARK  status: ('A' for Active; 'I' for Inactive)
REMARK    1  A    between atoms: N_2  and  C_19
REMARK    2  A    between atoms: N_4  and  C_14
REMARK    3  A    between atoms: C_19  and  C_24
REMARK                            x       y       z     vdW  Elec       q    Type
REMARK                         _______ _______ _______ _____ _____    ______ ____
ROOT
ATOM      1  O   UNL     1      32.650 -12.755 -25.930  0.00  0.00    -0.252 OA
ATOM      2  N   UNL     1      34.378 -16.856 -23.682  0.00  0.00    +0.392 N 
ATOM      3  N   UNL     1      33.404 -14.226 -24.312  0.00  0.00    -0.268 N 
ATOM      4  N   UNL     1      33.549 -11.894 -23.971  0.00  0.00    -0.266 N 
ATOM      5  C   UNL     1      34.073 -16.491 -25.071  0.00  0.00    -0.055 C 
ATOM      6  C   UNL     1      34.887 -15.688 -22.953  0.00  0.00    -0.055 C 
ATOM      7  C   UNL     1      33.873 -14.540 -22.955  0.00  0.00    +0.072 C 
ATOM      8  C   UNL     1      33.017 -15.389 -25.112  0.00  0.00    +0.072 C 
ATOM      9  C   UNL     1      33.170 -12.931 -24.826  0.00  0.00    +0.308 C 
ATOM     10  H   UNL     1      33.519 -17.173 -23.230  0.00  0.00    -0.079 HD
ATOM     11  H   UNL     1      33.497 -12.083 -23.006  0.00  0.00    +0.156 HD
ENDROOT
BRANCH   4  14
ATOM     12 CL   UNL     1      32.170  -9.497 -22.644  0.00  0.00    -0.081 Cl
ATOM     13  N   UNL     1      35.521  -9.280 -25.672  0.00  0.00    -0.241 NA
ATOM     14  C   UNL     1      34.000 -10.602 -24.337  0.00  0.00    +0.082 C 
ATOM     15  C   UNL     1      33.450  -9.442 -23.801  0.00  0.00    +0.074 C 
ATOM     16  C   UNL     1      35.024 -10.467 -25.260  0.00  0.00    +0.114 C 
ATOM     17  C   UNL     1      33.934  -8.201 -24.201  0.00  0.00    +0.033 C 
ATOM     18  C   UNL     1      34.962  -8.174 -25.130  0.00  0.00    +0.100 C 
ENDBRANCH   4  14
BRANCH   2  19
ATOM     19  C   UNL     1      35.347 -17.951 -23.639  0.00  0.00    -0.050 C 
BRANCH  19  24
ATOM     20  F   UNL     1      32.270 -21.141 -18.526  0.00  0.00    -0.125 F 
ATOM     21  F   UNL     1      32.874 -22.879 -19.712  0.00  0.00    -0.125 F 
ATOM     22  O   UNL     1      32.595 -20.885 -20.755  0.00  0.00    -0.395 OA
ATOM     23  O   UNL     1      34.420 -21.293 -19.228  0.00  0.00    -0.395 OA
ATOM     24  C   UNL     1      35.133 -18.842 -22.445  0.00  0.00    -0.040 C 
ATOM     25  C   UNL     1      33.882 -19.426 -22.231  0.00  0.00    +0.034 C 
ATOM     26  C   UNL     1      36.196 -19.080 -21.556  0.00  0.00    -0.003 C 
ATOM     27  C   UNL     1      33.734 -20.235 -21.123  0.00  0.00    +0.181 C 
ATOM     28  C   UNL     1      34.776 -20.469 -20.252  0.00  0.00    +0.182 C 
ATOM     29  C   UNL     1      36.020 -19.904 -20.441  0.00  0.00    +0.040 C 
ATOM     30  C   UNL     1      33.048 -21.542 -19.562  0.00  0.00    +0.589 C 
ENDBRANCH  19  24
ENDBRANCH   2  19
TORSDOF 3
ENDMDL
MODEL 5
REMARK VINA RESULT:     -11.3      6.873     11.149
REMARK  Name = 54576693
REMARK  3 active torsions:
REMARK  status: ('A' for Active; 'I' for Inactive)
REMARK    1  A    between atoms: N_2  and  C_19
REMARK    2  A    between atoms: N_4  and  C_14
REMARK    3  A    between atoms: C_19  and  C_24
REMARK                            x       y       z     vdW  Elec       q    Type
REMARK                         _______ _______ _______ _____ _____    ______ ____
ROOT
ATOM      1  O   UNL     1      34.710 -19.400 -23.970  0.00  0.00    -0.252 OA
ATOM      2  N   UNL     1      33.818 -14.562 -24.788  0.00  0.00    +0.392 N 
ATOM      3  N   UNL     1      34.581 -17.107 -23.689  0.00  0.00    -0.268 N 
ATOM      4  N   UNL     1      34.676 -18.540 -21.815  0.00  0.00    -0.266 N 
ATOM      5  C   UNL     1      33.577 -15.799 -25.542  0.00  0.00    -0.055 C 
ATOM      6  C   UNL     1      33.680 -14.815 -23.348  0.00  0.00    -0.055 C 
ATOM      7  C   UNL     1      34.661 -15.889 -22.870  0.00  0.00    +0.072 C 
ATOM      8  C   UNL     1      34.580 -16.876 -25.134  0.00  0.00    +0.072 C 
ATOM      9  C   UNL     1      34.651 -18.433 -23.206  0.00  0.00    +0.308 C 
ATOM     10  H   UNL     1      34.771 -14.246 -24.973  0.00  0.00    -0.079 HD
ATOM     11  H   UNL     1      35.089 -17.791 -21.327  0.00  0.00    +0.156 HD
ENDROOT
BRANCH   4  14
ATOM     12 CL   UNL     1      36.711 -20.198 -20.229  0.00  0.00    -0.081 Cl
ATOM     13  N   UNL     1      32.237 -20.844 -20.280  0.00  0.00    -0.241 NA
ATOM     14  C   UNL     1      34.173 -19.604 -21.026  0.00  0.00    +0.082 C 
ATOM     15  C   UNL     1      35.001 -20.424 -20.266  0.00  0.00    +0.074 C 
ATOM     16  C   UNL     1      32.811 -19.854 -20.999  0.00  0.00    +0.114 C 
ATOM     17  C   UNL     1      34.447 -21.454 -19.513  0.00  0.00    +0.033 C 
ATOM     18  C   UNL     1      33.072 -21.620 -19.553  0.00  0.00    +0.100 C 
ENDBRANCH   4  14
BRANCH   2  19
ATOM     19  C   UNL     1      32.897 -13.511 -25.216  0.00  0.00    -0.050 C 
BRANCH  19  24
ATOM     20  F   UNL     1      29.983 -10.404 -19.958  0.00  0.00    -0.125 F 
ATOM     21  F   UNL     1      31.906 -10.911 -19.045  0.00  0.00    -0.125 F 
ATOM     22  O   UNL     1      31.157 -12.159 -20.784  0.00  0.00    -0.395 OA
ATOM     23  O   UNL     1      31.891  -9.875 -21.062  0.00  0.00    -0.395 OA
ATOM     24  C   UNL     1      32.643 -12.509 -24.122  0.00  0.00    -0.040 C 
ATOM     25  C   UNL     1      31.987 -12.909 -22.955  0.00  0.00    +0.034 C 
ATOM     26  C   UNL     1      33.070 -11.179 -24.284  0.00  0.00    -0.003 C 
ATOM     27  C   UNL     1      31.777 -11.955 -21.980  0.00  0.00    +0.181 C 
ATOM     28  C   UNL     1      32.196 -10.652 -22.138  0.00  0.00    +0.182 C 
ATOM     29  C   UNL     1      32.846 -10.233 -23.281  0.00  0.00    +0.040 C 
ATOM     30  C   UNL     1      31.239 -10.840 -20.224  0.00  0.00    +0.589 C 
ENDBRANCH  19  24
ENDBRANCH   2  19
TORSDOF 3
ENDMDL
MODEL 6
REMARK VINA RESULT:     -11.2      9.905     13.668
REMARK  Name = 54576693
REMARK  3 active torsions:
REMARK  status: ('A' for Active; 'I' for Inactive)
REMARK    1  A    between atoms: N_2  and  C_19
REMARK    2  A    between atoms: N_4  and  C_14
REMARK    3  A    between atoms: C_19  and  C_24
REMARK                            x       y       z     vdW  Elec       q    Type
REMARK                         _______ _______ _______ _____ _____    ______ ____
ROOT
ATOM      1  O   UNL     1      30.732  -8.606 -22.639  0.00  0.00    -0.252 OA
ATOM      2  N   UNL     1      33.564 -12.606 -23.557  0.00  0.00    +0.392 N 
ATOM      3  N   UNL     1      32.495  -9.950 -23.301  0.00  0.00    -0.268 N 
ATOM      4  N   UNL     1      32.216  -7.798 -24.230  0.00  0.00    -0.266 N 
ATOM      5  C   UNL     1      32.209 -12.399 -23.031  0.00  0.00    -0.055 C 
ATOM      6  C   UNL     1      33.874 -11.586 -24.567  0.00  0.00    -0.055 C 
ATOM      7  C   UNL     1      33.776 -10.173 -23.984  0.00  0.00    +0.072 C 
ATOM      8  C   UNL     1      32.093 -11.020 -22.386  0.00  0.00    +0.072 C 
ATOM      9  C   UNL     1      31.729  -8.763 -23.347  0.00  0.00    +0.308 C 
ATOM     10  H   UNL     1      34.231 -12.518 -22.789  0.00  0.00    -0.079 HD
ATOM     11  H   UNL     1      33.190  -7.789 -24.373  0.00  0.00    +0.156 HD
ENDROOT
BRANCH   4  14
ATOM     12 CL   UNL     1      31.581  -5.168 -22.784  0.00  0.00    -0.081 Cl
ATOM     13  N   UNL     1      30.334  -6.240 -26.995  0.00  0.00    -0.241 NA
ATOM     14  C   UNL     1      31.466  -6.830 -24.942  0.00  0.00    +0.082 C 
ATOM     15  C   UNL     1      31.118  -5.601 -24.389  0.00  0.00    +0.074 C 
ATOM     16  C   UNL     1      31.053  -7.097 -26.237  0.00  0.00    +0.114 C 
ATOM     17  C   UNL     1      30.378  -4.693 -25.138  0.00  0.00    +0.033 C 
ATOM     18  C   UNL     1      30.015  -5.057 -26.425  0.00  0.00    +0.100 C 
ENDBRANCH   4  14
BRANCH   2  19
ATOM     19  C   UNL     1      33.695 -13.948 -24.124  0.00  0.00    -0.050 C 
BRANCH  19  24
ATOM     20  F   UNL     1      34.972 -19.863 -21.097  0.00  0.00    -0.125 F 
ATOM     21  F   UNL     1      37.022 -19.124 -21.302  0.00  0.00    -0.125 F 
ATOM     22  O   UNL     1      35.437 -18.368 -22.737  0.00  0.00    -0.395 OA
ATOM     23  O   UNL     1      35.452 -17.760 -20.400  0.00  0.00    -0.395 OA
ATOM     24  C   UNL     1      34.160 -14.947 -23.098  0.00  0.00    -0.040 C 
ATOM     25  C   UNL     1      34.580 -16.215 -23.506  0.00  0.00    +0.034 C 
ATOM     26  C   UNL     1      34.169 -14.592 -21.737  0.00  0.00    -0.003 C 
ATOM     27  C   UNL     1      34.997 -17.096 -22.530  0.00  0.00    +0.181 C 
ATOM     28  C   UNL     1      35.006 -16.749 -21.196  0.00  0.00    +0.182 C 
ATOM     29  C   UNL     1      34.597 -15.503 -20.768  0.00  0.00    +0.040 C 
ATOM     30  C   UNL     1      35.716 -18.767 -21.387  0.00  0.00    +0.589 C 
ENDBRANCH  19  24
ENDBRANCH   2  19
TORSDOF 3
ENDMDL
MODEL 7
REMARK VINA RESULT:     -11.1      8.889     13.289
REMARK  Name = 54576693
REMARK  3 active torsions:
REMARK  status: ('A' for Active; 'I' for Inactive)
REMARK    1  A    between atoms: N_2  and  C_19
REMARK    2  A    between atoms: N_4  and  C_14
REMARK    3  A    between atoms: C_19  and  C_24
REMARK                            x       y       z     vdW  Elec       q    Type
REMARK                         _______ _______ _______ _____ _____    ______ ____
ROOT
ATOM      1  O   UNL     1      34.303 -18.542 -23.854  0.00  0.00    -0.252 OA
ATOM      2  N   UNL     1      33.610 -13.617 -23.506  0.00  0.00    +0.392 N 
ATOM      3  N   UNL     1      34.363 -16.360 -23.090  0.00  0.00    -0.268 N 
ATOM      4  N   UNL     1      34.645 -18.161 -21.591  0.00  0.00    -0.266 N 
ATOM      5  C   UNL     1      33.180 -14.656 -24.450  0.00  0.00    -0.055 C 
ATOM      6  C   UNL     1      33.671 -14.166 -22.145  0.00  0.00    -0.055 C 
ATOM      7  C   UNL     1      34.642 -15.348 -22.062  0.00  0.00    +0.072 C 
ATOM      8  C   UNL     1      34.162 -15.825 -24.438  0.00  0.00    +0.072 C 
ATOM      9  C   UNL     1      34.420 -17.760 -22.909  0.00  0.00    +0.308 C 
ATOM     10  H   UNL     1      34.542 -13.298 -23.771  0.00  0.00    -0.079 HD
ATOM     11  H   UNL     1      35.173 -17.547 -21.032  0.00  0.00    +0.156 HD
ENDROOT
BRANCH   4  14
ATOM     12 CL   UNL     1      36.776 -19.978 -20.339  0.00  0.00    -0.081 Cl
ATOM     13  N   UNL     1      32.323 -20.762 -20.380  0.00  0.00    -0.241 NA
ATOM     14  C   UNL     1      34.198 -19.353 -20.968  0.00  0.00    +0.082 C 
ATOM     15  C   UNL     1      35.073 -20.254 -20.368  0.00  0.00    +0.074 C 
ATOM     16  C   UNL     1      32.845 -19.652 -20.947  0.00  0.00    +0.114 C 
ATOM     17  C   UNL     1      34.573 -21.408 -19.775  0.00  0.00    +0.033 C 
ATOM     18  C   UNL     1      33.203 -21.613 -19.807  0.00  0.00    +0.100 C 
ENDBRANCH   4  14
BRANCH   2  19
ATOM     19  C   UNL     1      32.704 -12.470 -23.556  0.00  0.00    -0.050 C 
BRANCH  19  24
ATOM     20  F   UNL     1      33.113  -7.005 -27.525  0.00  0.00    -0.125 F 
ATOM     21  F   UNL     1      33.969  -6.172 -25.691  0.00  0.00    -0.125 F 
ATOM     22  O   UNL     1      32.552  -7.936 -25.535  0.00  0.00    -0.395 OA
ATOM     23  O   UNL     1      34.767  -8.144 -26.474  0.00  0.00    -0.395 OA
ATOM     24  C   UNL     1      33.288 -11.329 -24.345  0.00  0.00    -0.040 C 
ATOM     25  C   UNL     1      32.545 -10.160 -24.526  0.00  0.00    +0.034 C 
ATOM     26  C   UNL     1      34.578 -11.450 -24.892  0.00  0.00    -0.003 C 
ATOM     27  C   UNL     1      33.123  -9.141 -25.256  0.00  0.00    +0.181 C 
ATOM     28  C   UNL     1      34.387  -9.260 -25.792  0.00  0.00    +0.182 C 
ATOM     29  C   UNL     1      35.140 -10.404 -25.627  0.00  0.00    +0.040 C 
ATOM     30  C   UNL     1      33.602  -7.326 -26.302  0.00  0.00    +0.589 C 
ENDBRANCH  19  24
ENDBRANCH   2  19
TORSDOF 3
ENDMDL
MODEL 8
REMARK VINA RESULT:     -11.0      9.938     13.716
REMARK  Name = 54576693
REMARK  3 active torsions:
REMARK  status: ('A' for Active; 'I' for Inactive)
REMARK    1  A    between atoms: N_2  and  C_19
REMARK    2  A    between atoms: N_4  and  C_14
REMARK    3  A    between atoms: C_19  and  C_24
REMARK                            x       y       z     vdW  Elec       q    Type
REMARK                         _______ _______ _______ _____ _____    ______ ____
ROOT
ATOM      1  O   UNL     1      30.539  -8.548 -22.574  0.00  0.00    -0.252 OA
ATOM      2  N   UNL     1      33.535 -12.427 -23.491  0.00  0.00    +0.392 N 
ATOM      3  N   UNL     1      32.375  -9.814 -23.189  0.00  0.00    -0.268 N 
ATOM      4  N   UNL     1      32.083  -7.634 -24.046  0.00  0.00    -0.266 N 
ATOM      5  C   UNL     1      32.147 -12.279 -23.034  0.00  0.00    -0.055 C 
ATOM      6  C   UNL     1      33.869 -11.358 -24.441  0.00  0.00    -0.055 C 
ATOM      7  C   UNL     1      33.697  -9.973 -23.809  0.00  0.00    +0.072 C 
ATOM      8  C   UNL     1      31.955 -10.932 -22.342  0.00  0.00    +0.072 C 
ATOM      9  C   UNL     1      31.577  -8.648 -23.231  0.00  0.00    +0.308 C 
ATOM     10  H   UNL     1      34.155 -12.353 -22.684  0.00  0.00    -0.079 HD
ATOM     11  H   UNL     1      33.062  -7.592 -24.134  0.00  0.00    +0.156 HD
ENDROOT
BRANCH   4  14
ATOM     12 CL   UNL     1      31.585  -8.151 -27.028  0.00  0.00    -0.081 Cl
ATOM     13  N   UNL     1      30.172  -4.544 -24.696  0.00  0.00    -0.241 NA
ATOM     14  C   UNL     1      31.344  -6.658 -24.759  0.00  0.00    +0.082 C 
ATOM     15  C   UNL     1      31.057  -6.784 -26.115  0.00  0.00    +0.074 C 
ATOM     16  C   UNL     1      30.882  -5.529 -24.102  0.00  0.00    +0.114 C 
ATOM     17  C   UNL     1      30.329  -5.791 -26.761  0.00  0.00    +0.033 C 
ATOM     18  C   UNL     1      29.913  -4.702 -26.013  0.00  0.00    +0.100 C 
ENDBRANCH   4  14
BRANCH   2  19
ATOM     19  C   UNL     1      33.737 -13.739 -24.103  0.00  0.00    -0.050 C 
BRANCH  19  24
ATOM     20  F   UNL     1      34.916 -19.738 -21.202  0.00  0.00    -0.125 F 
ATOM     21  F   UNL     1      36.974 -19.007 -21.348  0.00  0.00    -0.125 F 
ATOM     22  O   UNL     1      35.423 -18.205 -22.794  0.00  0.00    -0.395 OA
ATOM     23  O   UNL     1      35.394 -17.656 -20.443  0.00  0.00    -0.395 OA
ATOM     24  C   UNL     1      34.174 -14.767 -23.094  0.00  0.00    -0.040 C 
ATOM     25  C   UNL     1      34.594 -16.027 -23.525  0.00  0.00    +0.034 C 
ATOM     26  C   UNL     1      34.158 -14.447 -21.725  0.00  0.00    -0.003 C 
ATOM     27  C   UNL     1      34.987 -16.936 -22.563  0.00  0.00    +0.181 C 
ATOM     28  C   UNL     1      34.970 -16.622 -21.221  0.00  0.00    +0.182 C 
ATOM     29  C   UNL     1      34.561 -15.384 -20.770  0.00  0.00    +0.040 C 
ATOM     30  C   UNL     1      35.672 -18.640 -21.449  0.00  0.00    +0.589 C 
ENDBRANCH  19  24
ENDBRANCH   2  19
TORSDOF 3
ENDMDL
MODEL 9
REMARK VINA RESULT:     -10.9      7.861     12.270
REMARK  Name = 54576693
REMARK  3 active torsions:
REMARK  status: ('A' for Active; 'I' for Inactive)
REMARK    1  A    between atoms: N_2  and  C_19
REMARK    2  A    between atoms: N_4  and  C_14
REMARK    3  A    between atoms: C_19  and  C_24
REMARK                            x       y       z     vdW  Elec       q    Type
REMARK                         _______ _______ _______ _____ _____    ______ ____
ROOT
ATOM      1  O   UNL     1      35.092 -19.798 -23.887  0.00  0.00    -0.252 OA
ATOM      2  N   UNL     1      33.643 -15.132 -24.885  0.00  0.00    +0.392 N 
ATOM      3  N   UNL     1      34.829 -17.502 -23.771  0.00  0.00    -0.268 N 
ATOM      4  N   UNL     1      35.432 -18.736 -21.851  0.00  0.00    -0.266 N 
ATOM      5  C   UNL     1      33.355 -16.449 -25.467  0.00  0.00    -0.055 C 
ATOM      6  C   UNL     1      33.827 -15.251 -23.433  0.00  0.00    -0.055 C 
ATOM      7  C   UNL     1      34.974 -16.208 -23.091  0.00  0.00    +0.072 C 
ATOM      8  C   UNL     1      34.509 -17.413 -25.197  0.00  0.00    +0.072 C 
ATOM      9  C   UNL     1      35.110 -18.767 -23.209  0.00  0.00    +0.308 C 
ATOM     10  H   UNL     1      34.505 -14.774 -25.295  0.00  0.00    -0.079 HD
ATOM     11  H   UNL     1      35.872 -17.917 -21.526  0.00  0.00    +0.156 HD
ENDROOT
BRANCH   4  14
ATOM     12 CL   UNL     1      32.544 -19.715 -21.522  0.00  0.00    -0.081 Cl
ATOM     13  N   UNL     1      36.127 -21.214 -19.207  0.00  0.00    -0.241 NA
ATOM     14  C   UNL     1      35.195 -19.749 -20.889  0.00  0.00    +0.082 C 
ATOM     15  C   UNL     1      33.927 -20.270 -20.652  0.00  0.00    +0.074 C 
ATOM     16  C   UNL     1      36.252 -20.251 -20.146  0.00  0.00    +0.114 C 
ATOM     17  C   UNL     1      33.759 -21.263 -19.692  0.00  0.00    +0.033 C 
ATOM     18  C   UNL     1      34.880 -21.697 -19.004  0.00  0.00    +0.100 C 
ENDBRANCH   4  14
BRANCH   2  19
ATOM     19  C   UNL     1      32.566 -14.190 -25.190  0.00  0.00    -0.050 C 
BRANCH  19  24
ATOM     20  F   UNL     1      35.825  -8.393 -23.939  0.00  0.00    -0.125 F 
ATOM     21  F   UNL     1      34.106  -7.600 -25.038  0.00  0.00    -0.125 F 
ATOM     22  O   UNL     1      34.739  -9.748 -25.397  0.00  0.00    -0.395 OA
ATOM     23  O   UNL     1      33.740  -9.032 -23.319  0.00  0.00    -0.395 OA
ATOM     24  C   UNL     1      32.860 -12.813 -24.658  0.00  0.00    -0.040 C 
ATOM     25  C   UNL     1      33.706 -11.961 -25.372  0.00  0.00    +0.034 C 
ATOM     26  C   UNL     1      32.278 -12.396 -23.448  0.00  0.00    -0.003 C 
ATOM     27  C   UNL     1      33.946 -10.708 -24.846  0.00  0.00    +0.181 C 
ATOM     28  C   UNL     1      33.375 -10.299 -23.660  0.00  0.00    +0.182 C 
ATOM     29  C   UNL     1      32.536 -11.122 -22.937  0.00  0.00    +0.040 C 
ATOM     30  C   UNL     1      34.596  -8.704 -24.422  0.00  0.00    +0.589 C 
ENDBRANCH  19  24
ENDBRANCH   2  19
TORSDOF 3
ENDMDL
