MODEL 1
REMARK VINA RESULT:     -12.3      0.000      0.000
REMARK  Name = 5288527
REMARK  4 active torsions:
REMARK  status: ('A' for Active; 'I' for Inactive)
REMARK    1  A    between atoms: N_1  and  C_18
REMARK    2  A    between atoms: C_4  and  C_11
REMARK    3  A    between atoms: C_19  and  S_24
REMARK    4  A    between atoms: S_24  and  N_27
REMARK                            x       y       z     vdW  Elec       q    Type
REMARK                         _______ _______ _______ _____ _____    ______ ____
ROOT
ATOM      1  N   UNL     1      32.313 -24.559 -13.178  0.00  0.00    -0.247 N 
ATOM      2  N   UNL     1      34.074 -23.713 -14.477  0.00  0.00    -0.336 NA
ATOM      3  N   UNL     1      34.507 -24.850 -12.397  0.00  0.00    -0.170 NA
ATOM      4  C   UNL     1      35.404 -23.547 -14.615  0.00  0.00    +0.161 C 
ATOM      5  C   UNL     1      33.700 -24.364 -13.360  0.00  0.00    +0.149 C 
ATOM      6  C   UNL     1      36.337 -23.994 -13.705  0.00  0.00    +0.056 C 
ATOM      7  C   UNL     1      35.824 -24.647 -12.603  0.00  0.00    +0.114 C 
ATOM      8  H   UNL     1      32.086 -25.039 -12.349  0.00  0.00    +0.165 HD
ENDROOT
BRANCH   4  11
ATOM      9  N   UNL     1      35.005 -22.660 -16.915  0.00  0.00    -0.246 N 
ATOM     10  N   UNL     1      36.963 -21.682 -17.375  0.00  0.00    -0.227 NA
ATOM     11  C   UNL     1      35.801 -22.847 -15.814  0.00  0.00    +0.107 C 
ATOM     12  C   UNL     1      35.760 -21.944 -17.841  0.00  0.00    +0.139 C 
ATOM     13  C   UNL     1      36.995 -22.238 -16.121  0.00  0.00    +0.118 C 
ATOM     14  C   UNL     1      33.695 -23.072 -17.142  0.00  0.00    +0.071 C 
ATOM     15  C   UNL     1      35.131 -21.628 -19.081  0.00  0.00    +0.035 C 
ATOM     16  C   UNL     1      33.110 -22.771 -18.313  0.00  0.00    +0.017 C 
ATOM     17  C   UNL     1      33.864 -22.024 -19.308  0.00  0.00    +0.004 C 
ENDBRANCH   4  11
BRANCH   1  18
ATOM     18  C   UNL     1      31.192 -24.203 -13.950  0.00  0.00    +0.058 C 
ATOM     19  C   UNL     1      28.967 -23.494 -15.482  0.00  0.00    +0.122 C 
ATOM     20  C   UNL     1      30.274 -25.178 -14.345  0.00  0.00    +0.017 C 
ATOM     21  C   UNL     1      30.993 -22.872 -14.323  0.00  0.00    +0.017 C 
ATOM     22  C   UNL     1      29.164 -24.825 -15.111  0.00  0.00    +0.021 C 
ATOM     23  C   UNL     1      29.883 -22.518 -15.088  0.00  0.00    +0.021 C 
BRANCH  19  24
ATOM     24  S   UNL     1      27.577 -23.051 -16.441  0.00  0.00    +0.057 S 
ATOM     25  O   UNL     1      26.433 -22.908 -15.551  0.00  0.00    -0.153 OA
ATOM     26  O   UNL     1      27.952 -21.952 -17.319  0.00  0.00    -0.153 OA
BRANCH  24  27
ATOM     27  N   UNL     1      27.369 -24.460 -17.385  0.00  0.00    -0.203 NA
ATOM     28  H   UNL     1      26.530 -24.365 -17.957  0.00  0.00    +0.144 HD
ATOM     29  H   UNL     1      27.273 -25.270 -16.771  0.00  0.00    +0.144 HD
ENDBRANCH  24  27
ENDBRANCH  19  24
ENDBRANCH   1  18
TORSDOF 4
ENDMDL
MODEL 2
REMARK VINA RESULT:     -11.5      4.382      6.843
REMARK  Name = 5288527
REMARK  4 active torsions:
REMARK  status: ('A' for Active; 'I' for Inactive)
REMARK    1  A    between atoms: N_1  and  C_18
REMARK    2  A    between atoms: C_4  and  C_11
REMARK    3  A    between atoms: C_19  and  S_24
REMARK    4  A    between atoms: S_24  and  N_27
REMARK                            x       y       z     vdW  Elec       q    Type
REMARK                         _______ _______ _______ _____ _____    ______ ____
ROOT
ATOM      1  N   UNL     1      32.339 -22.053 -18.558  0.00  0.00    -0.247 N 
ATOM      2  N   UNL     1      34.047 -22.820 -17.145  0.00  0.00    -0.336 NA
ATOM      3  N   UNL     1      31.748 -23.421 -16.746  0.00  0.00    -0.170 NA
ATOM      4  C   UNL     1      34.381 -23.545 -16.059  0.00  0.00    +0.161 C 
ATOM      5  C   UNL     1      32.731 -22.801 -17.427  0.00  0.00    +0.149 C 
ATOM      6  C   UNL     1      33.475 -24.226 -15.277  0.00  0.00    +0.056 C 
ATOM      7  C   UNL     1      32.157 -24.127 -15.672  0.00  0.00    +0.114 C 
ATOM      8  H   UNL     1      31.369 -22.067 -18.727  0.00  0.00    +0.165 HD
ENDROOT
BRANCH   4  11
ATOM      9  N   UNL     1      36.444 -24.567 -15.090  0.00  0.00    -0.246 N 
ATOM     10  N   UNL     1      37.993 -23.032 -15.590  0.00  0.00    -0.227 NA
ATOM     11  C   UNL     1      35.793 -23.562 -15.760  0.00  0.00    +0.107 C 
ATOM     12  C   UNL     1      37.784 -24.197 -15.012  0.00  0.00    +0.139 C 
ATOM     13  C   UNL     1      36.765 -22.635 -16.055  0.00  0.00    +0.118 C 
ATOM     14  C   UNL     1      35.939 -25.752 -14.562  0.00  0.00    +0.071 C 
ATOM     15  C   UNL     1      38.666 -25.100 -14.349  0.00  0.00    +0.035 C 
ATOM     16  C   UNL     1      36.776 -26.597 -13.939  0.00  0.00    +0.017 C 
ATOM     17  C   UNL     1      38.184 -26.248 -13.835  0.00  0.00    +0.004 C 
ENDBRANCH   4  11
BRANCH   1  18
ATOM     18  C   UNL     1      33.064 -21.290 -19.493  0.00  0.00    +0.058 C 
ATOM     19  C   UNL     1      34.500 -19.776 -21.349  0.00  0.00    +0.122 C 
ATOM     20  C   UNL     1      34.453 -21.408 -19.569  0.00  0.00    +0.017 C 
ATOM     21  C   UNL     1      32.395 -20.412 -20.350  0.00  0.00    +0.017 C 
ATOM     22  C   UNL     1      35.170 -20.652 -20.495  0.00  0.00    +0.021 C 
ATOM     23  C   UNL     1      33.112 -19.656 -21.276  0.00  0.00    +0.021 C 
BRANCH  19  24
ATOM     24  S   UNL     1      35.398 -18.828 -22.509  0.00  0.00    +0.057 S 
ATOM     25  O   UNL     1      36.786 -18.765 -22.073  0.00  0.00    -0.153 OA
ATOM     26  O   UNL     1      35.080 -19.310 -23.845  0.00  0.00    -0.153 OA
BRANCH  24  27
ATOM     27  N   UNL     1      34.683 -17.290 -22.296  0.00  0.00    -0.203 NA
ATOM     28  H   UNL     1      34.918 -16.695 -23.089  0.00  0.00    +0.144 HD
ATOM     29  H   UNL     1      35.034 -16.868 -21.436  0.00  0.00    +0.144 HD
ENDBRANCH  24  27
ENDBRANCH  19  24
ENDBRANCH   1  18
TORSDOF 4
ENDMDL
MODEL 3
REMARK VINA RESULT:     -11.0      4.937      6.895
REMARK  Name = 5288527
REMARK  4 active torsions:
REMARK  status: ('A' for Active; 'I' for Inactive)
REMARK    1  A    between atoms: N_1  and  C_18
REMARK    2  A    between atoms: C_4  and  C_11
REMARK    3  A    between atoms: C_19  and  S_24
REMARK    4  A    between atoms: S_24  and  N_27
REMARK                            x       y       z     vdW  Elec       q    Type
REMARK                         _______ _______ _______ _____ _____    ______ ____
ROOT
ATOM      1  N   UNL     1      34.339 -24.909 -13.118  0.00  0.00    -0.247 N 
ATOM      2  N   UNL     1      33.464 -23.861 -15.025  0.00  0.00    -0.336 NA
ATOM      3  N   UNL     1      32.076 -24.294 -13.103  0.00  0.00    -0.170 NA
ATOM      4  C   UNL     1      32.389 -23.310 -15.625  0.00  0.00    +0.161 C 
ATOM      5  C   UNL     1      33.238 -24.326 -13.782  0.00  0.00    +0.149 C 
ATOM      6  C   UNL     1      31.144 -23.215 -15.043  0.00  0.00    +0.056 C 
ATOM      7  C   UNL     1      31.045 -23.729 -13.767  0.00  0.00    +0.114 C 
ATOM      8  H   UNL     1      34.129 -25.236 -12.213  0.00  0.00    +0.165 HD
ENDROOT
BRANCH   4  11
ATOM      9  N   UNL     1      33.864 -22.456 -17.450  0.00  0.00    -0.246 N 
ATOM     10  N   UNL     1      32.396 -22.112 -19.102  0.00  0.00    -0.227 NA
ATOM     11  C   UNL     1      32.635 -22.813 -16.958  0.00  0.00    +0.107 C 
ATOM     12  C   UNL     1      33.666 -22.034 -18.762  0.00  0.00    +0.139 C 
ATOM     13  C   UNL     1      31.753 -22.594 -17.990  0.00  0.00    +0.118 C 
ATOM     14  C   UNL     1      35.109 -22.479 -16.827  0.00  0.00    +0.071 C 
ATOM     15  C   UNL     1      34.818 -21.609 -19.486  0.00  0.00    +0.035 C 
ATOM     16  C   UNL     1      36.189 -22.076 -17.515  0.00  0.00    +0.017 C 
ATOM     17  C   UNL     1      36.026 -21.628 -18.889  0.00  0.00    +0.004 C 
ENDBRANCH   4  11
BRANCH   1  18
ATOM     18  C   UNL     1      35.679 -25.116 -13.496  0.00  0.00    +0.058 C 
ATOM     19  C   UNL     1      38.337 -25.527 -14.248  0.00  0.00    +0.122 C 
ATOM     20  C   UNL     1      36.716 -24.592 -12.720  0.00  0.00    +0.017 C 
ATOM     21  C   UNL     1      35.977 -25.847 -14.649  0.00  0.00    +0.017 C 
ATOM     22  C   UNL     1      38.043 -24.797 -13.096  0.00  0.00    +0.021 C 
ATOM     23  C   UNL     1      37.304 -26.052 -15.024  0.00  0.00    +0.021 C 
BRANCH  19  24
ATOM     24  S   UNL     1      39.999 -25.783 -14.718  0.00  0.00    +0.057 S 
ATOM     25  O   UNL     1      40.774 -24.618 -14.317  0.00  0.00    -0.153 OA
ATOM     26  O   UNL     1      40.406 -27.109 -14.277  0.00  0.00    -0.153 OA
BRANCH  24  27
ATOM     27  N   UNL     1      39.858 -25.792 -16.422  0.00  0.00    -0.203 NA
ATOM     28  H   UNL     1      39.129 -25.138 -16.705  0.00  0.00    +0.144 HD
ATOM     29  H   UNL     1      39.615 -26.731 -16.738  0.00  0.00    +0.144 HD
ENDBRANCH  24  27
ENDBRANCH  19  24
ENDBRANCH   1  18
TORSDOF 4
ENDMDL
MODEL 4
REMARK VINA RESULT:     -10.4     10.646     13.965
REMARK  Name = 5288527
REMARK  4 active torsions:
REMARK  status: ('A' for Active; 'I' for Inactive)
REMARK    1  A    between atoms: N_1  and  C_18
REMARK    2  A    between atoms: C_4  and  C_11
REMARK    3  A    between atoms: C_19  and  S_24
REMARK    4  A    between atoms: S_24  and  N_27
REMARK                            x       y       z     vdW  Elec       q    Type
REMARK                         _______ _______ _______ _____ _____    ______ ____
ROOT
ATOM      1  N   UNL     1      33.343 -16.709 -26.126  0.00  0.00    -0.247 N 
ATOM      2  N   UNL     1      33.156 -14.438 -25.566  0.00  0.00    -0.336 NA
ATOM      3  N   UNL     1      32.391 -15.253 -27.700  0.00  0.00    -0.170 NA
ATOM      4  C   UNL     1      32.761 -13.205 -25.941  0.00  0.00    +0.161 C 
ATOM      5  C   UNL     1      32.944 -15.402 -26.482  0.00  0.00    +0.149 C 
ATOM      6  C   UNL     1      32.183 -12.917 -27.157  0.00  0.00    +0.056 C 
ATOM      7  C   UNL     1      32.020 -13.992 -28.007  0.00  0.00    +0.114 C 
ATOM      8  H   UNL     1      33.169 -17.380 -26.825  0.00  0.00    +0.165 HD
ENDROOT
BRANCH   4  11
ATOM      9  N   UNL     1      33.810 -11.089 -25.132  0.00  0.00    -0.246 N 
ATOM     10  N   UNL     1      32.954 -10.912 -23.073  0.00  0.00    -0.227 NA
ATOM     11  C   UNL     1      32.992 -12.175 -24.956  0.00  0.00    +0.107 C 
ATOM     12  C   UNL     1      33.754 -10.347 -23.954  0.00  0.00    +0.139 C 
ATOM     13  C   UNL     1      32.479 -12.042 -23.687  0.00  0.00    +0.118 C 
ATOM     14  C   UNL     1      34.579 -10.726 -26.234  0.00  0.00    +0.071 C 
ATOM     15  C   UNL     1      34.535  -9.156 -23.902  0.00  0.00    +0.035 C 
ATOM     16  C   UNL     1      35.312  -9.603 -26.177  0.00  0.00    +0.017 C 
ATOM     17  C   UNL     1      35.282  -8.800 -24.965  0.00  0.00    +0.004 C 
ENDBRANCH   4  11
BRANCH   1  18
ATOM     18  C   UNL     1      33.941 -17.240 -24.968  0.00  0.00    +0.058 C 
ATOM     19  C   UNL     1      35.127 -18.294 -22.670  0.00  0.00    +0.122 C 
ATOM     20  C   UNL     1      34.003 -18.623 -24.783  0.00  0.00    +0.017 C 
ATOM     21  C   UNL     1      34.475 -16.386 -24.001  0.00  0.00    +0.017 C 
ATOM     22  C   UNL     1      34.595 -19.149 -23.636  0.00  0.00    +0.021 C 
ATOM     23  C   UNL     1      35.067 -16.912 -22.853  0.00  0.00    +0.021 C 
BRANCH  19  24
ATOM     24  S   UNL     1      35.868 -18.952 -21.233  0.00  0.00    +0.057 S 
ATOM     25  O   UNL     1      35.713 -17.987 -20.153  0.00  0.00    -0.153 OA
ATOM     26  O   UNL     1      35.400 -20.318 -21.054  0.00  0.00    -0.153 OA
BRANCH  24  27
ATOM     27  N   UNL     1      37.511 -18.993 -21.703  0.00  0.00    -0.203 NA
ATOM     28  H   UNL     1      37.582 -19.340 -22.659  0.00  0.00    +0.144 HD
ATOM     29  H   UNL     1      38.028 -19.611 -21.076  0.00  0.00    +0.144 HD
ENDBRANCH  24  27
ENDBRANCH  19  24
ENDBRANCH   1  18
TORSDOF 4
ENDMDL
MODEL 5
REMARK VINA RESULT:     -10.1      1.366      1.966
REMARK  Name = 5288527
REMARK  4 active torsions:
REMARK  status: ('A' for Active; 'I' for Inactive)
REMARK    1  A    between atoms: N_1  and  C_18
REMARK    2  A    between atoms: C_4  and  C_11
REMARK    3  A    between atoms: C_19  and  S_24
REMARK    4  A    between atoms: S_24  and  N_27
REMARK                            x       y       z     vdW  Elec       q    Type
REMARK                         _______ _______ _______ _____ _____    ______ ____
ROOT
ATOM      1  N   UNL     1      33.192 -24.455 -14.353  0.00  0.00    -0.247 N 
ATOM      2  N   UNL     1      34.513 -23.314 -15.920  0.00  0.00    -0.336 NA
ATOM      3  N   UNL     1      35.518 -24.452 -14.049  0.00  0.00    -0.170 NA
ATOM      4  C   UNL     1      35.752 -22.952 -16.311  0.00  0.00    +0.161 C 
ATOM      5  C   UNL     1      34.471 -24.054 -14.796  0.00  0.00    +0.149 C 
ATOM      6  C   UNL     1      36.904 -23.292 -15.638  0.00  0.00    +0.056 C 
ATOM      7  C   UNL     1      36.725 -24.052 -14.501  0.00  0.00    +0.114 C 
ATOM      8  H   UNL     1      33.208 -24.993 -13.529  0.00  0.00    +0.165 HD
ENDROOT
BRANCH   4  11
ATOM      9  N   UNL     1      34.713 -21.894 -18.321  0.00  0.00    -0.246 N 
ATOM     10  N   UNL     1      36.468 -20.866 -19.254  0.00  0.00    -0.227 NA
ATOM     11  C   UNL     1      35.792 -22.158 -17.516  0.00  0.00    +0.107 C 
ATOM     12  C   UNL     1      35.177 -21.101 -19.368  0.00  0.00    +0.139 C 
ATOM     13  C   UNL     1      36.854 -21.517 -18.110  0.00  0.00    +0.118 C 
ATOM     14  C   UNL     1      33.388 -22.298 -18.187  0.00  0.00    +0.071 C 
ATOM     15  C   UNL     1      34.220 -20.696 -20.344  0.00  0.00    +0.035 C 
ATOM     16  C   UNL     1      32.493 -21.912 -19.111  0.00  0.00    +0.017 C 
ATOM     17  C   UNL     1      32.936 -21.084 -20.222  0.00  0.00    +0.004 C 
ENDBRANCH   4  11
BRANCH   1  18
ATOM     18  C   UNL     1      31.897 -24.237 -14.860  0.00  0.00    +0.058 C 
ATOM     19  C   UNL     1      29.327 -23.806 -15.865  0.00  0.00    +0.122 C 
ATOM     20  C   UNL     1      31.617 -23.084 -15.597  0.00  0.00    +0.017 C 
ATOM     21  C   UNL     1      30.887 -25.174 -14.628  0.00  0.00    +0.017 C 
ATOM     22  C   UNL     1      30.334 -22.869 -16.098  0.00  0.00    +0.021 C 
ATOM     23  C   UNL     1      29.604 -24.959 -15.129  0.00  0.00    +0.021 C 
BRANCH  19  24
ATOM     24  S   UNL     1      27.720 -23.537 -16.492  0.00  0.00    +0.057 S 
ATOM     25  O   UNL     1      27.478 -24.496 -17.560  0.00  0.00    -0.153 OA
ATOM     26  O   UNL     1      26.794 -23.453 -15.372  0.00  0.00    -0.153 OA
BRANCH  24  27
ATOM     27  N   UNL     1      27.894 -21.981 -17.177  0.00  0.00    -0.203 NA
ATOM     28  H   UNL     1      27.146 -21.376 -16.838  0.00  0.00    +0.144 HD
ATOM     29  H   UNL     1      27.843 -22.050 -18.194  0.00  0.00    +0.144 HD
ENDBRANCH  24  27
ENDBRANCH  19  24
ENDBRANCH   1  18
TORSDOF 4
ENDMDL
MODEL 6
REMARK VINA RESULT:     -10.0      3.943      7.248
REMARK  Name = 5288527
REMARK  4 active torsions:
REMARK  status: ('A' for Active; 'I' for Inactive)
REMARK    1  A    between atoms: N_1  and  C_18
REMARK    2  A    between atoms: C_4  and  C_11
REMARK    3  A    between atoms: C_19  and  S_24
REMARK    4  A    between atoms: S_24  and  N_27
REMARK                            x       y       z     vdW  Elec       q    Type
REMARK                         _______ _______ _______ _____ _____    ______ ____
ROOT
ATOM      1  N   UNL     1      36.507 -21.716 -18.192  0.00  0.00    -0.247 N 
ATOM      2  N   UNL     1      34.518 -22.503 -17.228  0.00  0.00    -0.336 NA
ATOM      3  N   UNL     1      36.659 -23.037 -16.259  0.00  0.00    -0.170 NA
ATOM      4  C   UNL     1      33.940 -23.217 -16.242  0.00  0.00    +0.161 C 
ATOM      5  C   UNL     1      35.863 -22.455 -17.176  0.00  0.00    +0.149 C 
ATOM      6  C   UNL     1      34.637 -23.860 -15.244  0.00  0.00    +0.056 C 
ATOM      7  C   UNL     1      36.010 -23.735 -15.303  0.00  0.00    +0.114 C 
ATOM      8  H   UNL     1      37.489 -21.709 -18.115  0.00  0.00    +0.165 HD
ENDROOT
BRANCH   4  11
ATOM      9  N   UNL     1      31.694 -23.895 -15.386  0.00  0.00    -0.246 N 
ATOM     10  N   UNL     1      30.332 -23.003 -16.920  0.00  0.00    -0.227 NA
ATOM     11  C   UNL     1      32.499 -23.266 -16.302  0.00  0.00    +0.107 C 
ATOM     12  C   UNL     1      30.380 -23.707 -15.808  0.00  0.00    +0.139 C 
ATOM     13  C   UNL     1      31.639 -22.727 -17.230  0.00  0.00    +0.118 C 
ATOM     14  C   UNL     1      32.042 -24.603 -14.239  0.00  0.00    +0.071 C 
ATOM     15  C   UNL     1      29.354 -24.280 -15.001  0.00  0.00    +0.035 C 
ATOM     16  C   UNL     1      31.070 -25.140 -13.485  0.00  0.00    +0.017 C 
ATOM     17  C   UNL     1      29.683 -24.967 -13.890  0.00  0.00    +0.004 C 
ENDBRANCH   4  11
BRANCH   1  18
ATOM     18  C   UNL     1      36.021 -20.987 -19.293  0.00  0.00    +0.058 C 
ATOM     19  C   UNL     1      35.056 -19.540 -21.479  0.00  0.00    +0.122 C 
ATOM     20  C   UNL     1      36.855 -20.087 -19.961  0.00  0.00    +0.017 C 
ATOM     21  C   UNL     1      34.703 -21.161 -19.722  0.00  0.00    +0.017 C 
ATOM     22  C   UNL     1      36.373 -19.365 -21.052  0.00  0.00    +0.021 C 
ATOM     23  C   UNL     1      34.222 -20.439 -20.813  0.00  0.00    +0.021 C 
BRANCH  19  24
ATOM     24  S   UNL     1      34.452 -18.636 -22.844  0.00  0.00    +0.057 S 
ATOM     25  O   UNL     1      35.361 -18.834 -23.964  0.00  0.00    -0.153 OA
ATOM     26  O   UNL     1      33.035 -18.928 -23.003  0.00  0.00    -0.153 OA
BRANCH  24  27
ATOM     27  N   UNL     1      34.621 -17.033 -22.274  0.00  0.00    -0.203 NA
ATOM     28  H   UNL     1      35.522 -16.660 -22.572  0.00  0.00    +0.144 HD
ATOM     29  H   UNL     1      34.569 -17.028 -21.255  0.00  0.00    +0.144 HD
ENDBRANCH  24  27
ENDBRANCH  19  24
ENDBRANCH   1  18
TORSDOF 4
ENDMDL
MODEL 7
REMARK VINA RESULT:      -9.8      5.094      7.097
REMARK  Name = 5288527
REMARK  4 active torsions:
REMARK  status: ('A' for Active; 'I' for Inactive)
REMARK    1  A    between atoms: N_1  and  C_18
REMARK    2  A    between atoms: C_4  and  C_11
REMARK    3  A    between atoms: C_19  and  S_24
REMARK    4  A    between atoms: S_24  and  N_27
REMARK                            x       y       z     vdW  Elec       q    Type
REMARK                         _______ _______ _______ _____ _____    ______ ____
ROOT
ATOM      1  N   UNL     1      33.986 -24.476 -15.421  0.00  0.00    -0.247 N 
ATOM      2  N   UNL     1      34.134 -23.043 -17.272  0.00  0.00    -0.336 NA
ATOM      3  N   UNL     1      32.004 -23.547 -16.265  0.00  0.00    -0.170 NA
ATOM      4  C   UNL     1      33.484 -22.260 -18.156  0.00  0.00    +0.161 C 
ATOM      5  C   UNL     1      33.343 -23.648 -16.366  0.00  0.00    +0.149 C 
ATOM      6  C   UNL     1      32.120 -22.071 -18.162  0.00  0.00    +0.056 C 
ATOM      7  C   UNL     1      31.422 -22.747 -17.183  0.00  0.00    +0.114 C 
ATOM      8  H   UNL     1      33.369 -24.897 -14.779  0.00  0.00    +0.165 HD
ENDROOT
BRANCH   4  11
ATOM      9  N   UNL     1      33.895 -20.833 -20.164  0.00  0.00    -0.246 N 
ATOM     10  N   UNL     1      36.127 -20.877 -20.307  0.00  0.00    -0.227 NA
ATOM     11  C   UNL     1      34.336 -21.614 -19.126  0.00  0.00    +0.107 C 
ATOM     12  C   UNL     1      35.026 -20.406 -20.855  0.00  0.00    +0.139 C 
ATOM     13  C   UNL     1      35.706 -21.624 -19.236  0.00  0.00    +0.118 C 
ATOM     14  C   UNL     1      32.595 -20.487 -20.523  0.00  0.00    +0.071 C 
ATOM     15  C   UNL     1      34.812 -19.570 -21.990  0.00  0.00    +0.035 C 
ATOM     16  C   UNL     1      32.403 -19.700 -21.593  0.00  0.00    +0.017 C 
ATOM     17  C   UNL     1      33.558 -19.232 -22.344  0.00  0.00    +0.004 C 
ENDBRANCH   4  11
BRANCH   1  18
ATOM     18  C   UNL     1      35.336 -24.818 -15.215  0.00  0.00    +0.058 C 
ATOM     19  C   UNL     1      38.014 -25.497 -14.809  0.00  0.00    +0.122 C 
ATOM     20  C   UNL     1      36.277 -23.823 -14.942  0.00  0.00    +0.017 C 
ATOM     21  C   UNL     1      35.738 -26.153 -15.284  0.00  0.00    +0.017 C 
ATOM     22  C   UNL     1      37.614 -24.162 -14.739  0.00  0.00    +0.021 C 
ATOM     23  C   UNL     1      37.075 -26.492 -15.081  0.00  0.00    +0.021 C 
BRANCH  19  24
ATOM     24  S   UNL     1      39.688 -25.922 -14.555  0.00  0.00    +0.057 S 
ATOM     25  O   UNL     1      40.323 -24.853 -13.796  0.00  0.00    -0.153 OA
ATOM     26  O   UNL     1      39.749 -27.291 -14.065  0.00  0.00    -0.153 OA
BRANCH  24  27
ATOM     27  N   UNL     1      40.280 -25.886 -16.158  0.00  0.00    -0.203 NA
ATOM     28  H   UNL     1      39.727 -26.516 -16.738  0.00  0.00    +0.144 HD
ATOM     29  H   UNL     1      41.256 -26.184 -16.167  0.00  0.00    +0.144 HD
ENDBRANCH  24  27
ENDBRANCH  19  24
ENDBRANCH   1  18
TORSDOF 4
ENDMDL
MODEL 8
REMARK VINA RESULT:      -9.7     11.109     14.471
REMARK  Name = 5288527
REMARK  4 active torsions:
REMARK  status: ('A' for Active; 'I' for Inactive)
REMARK    1  A    between atoms: N_1  and  C_18
REMARK    2  A    between atoms: C_4  and  C_11
REMARK    3  A    between atoms: C_19  and  S_24
REMARK    4  A    between atoms: S_24  and  N_27
REMARK                            x       y       z     vdW  Elec       q    Type
REMARK                         _______ _______ _______ _____ _____    ______ ____
ROOT
ATOM      1  N   UNL     1      32.449 -14.467 -27.576  0.00  0.00    -0.247 N 
ATOM      2  N   UNL     1      33.091 -15.957 -25.882  0.00  0.00    -0.336 NA
ATOM      3  N   UNL     1      31.866 -16.727 -27.808  0.00  0.00    -0.170 NA
ATOM      4  C   UNL     1      33.091 -17.225 -25.426  0.00  0.00    +0.161 C 
ATOM      5  C   UNL     1      32.470 -15.782 -27.063  0.00  0.00    +0.149 C 
ATOM      6  C   UNL     1      32.510 -18.284 -26.088  0.00  0.00    +0.056 C 
ATOM      7  C   UNL     1      31.905 -17.972 -27.289  0.00  0.00    +0.114 C 
ATOM      8  H   UNL     1      31.985 -14.386 -28.441  0.00  0.00    +0.165 HD
ENDROOT
BRANCH   4  11
ATOM      9  N   UNL     1      33.977 -16.417 -23.236  0.00  0.00    -0.246 N 
ATOM     10  N   UNL     1      34.844 -18.291 -22.374  0.00  0.00    -0.227 NA
ATOM     11  C   UNL     1      33.758 -17.408 -24.159  0.00  0.00    +0.107 C 
ATOM     12  C   UNL     1      34.644 -17.006 -22.164  0.00  0.00    +0.139 C 
ATOM     13  C   UNL     1      34.298 -18.545 -23.606  0.00  0.00    +0.118 C 
ATOM     14  C   UNL     1      33.635 -15.069 -23.284  0.00  0.00    +0.071 C 
ATOM     15  C   UNL     1      34.982 -16.159 -21.068  0.00  0.00    +0.035 C 
ATOM     16  C   UNL     1      33.958 -14.277 -22.248  0.00  0.00    +0.017 C 
ATOM     17  C   UNL     1      34.655 -14.853 -21.108  0.00  0.00    +0.004 C 
ENDBRANCH   4  11
BRANCH   1  18
ATOM     18  C   UNL     1      32.963 -13.248 -27.095  0.00  0.00    +0.058 C 
ATOM     19  C   UNL     1      33.982 -10.831 -26.138  0.00  0.00    +0.122 C 
ATOM     20  C   UNL     1      33.957 -12.576 -27.809  0.00  0.00    +0.017 C 
ATOM     21  C   UNL     1      32.480 -12.708 -25.901  0.00  0.00    +0.017 C 
ATOM     22  C   UNL     1      34.466 -11.369 -27.331  0.00  0.00    +0.021 C 
ATOM     23  C   UNL     1      32.989 -11.501 -25.423  0.00  0.00    +0.021 C 
BRANCH  19  24
ATOM     24  S   UNL     1      34.620  -9.320 -25.539  0.00  0.00    +0.057 S 
ATOM     25  O   UNL     1      35.376  -8.684 -26.609  0.00  0.00    -0.153 OA
ATOM     26  O   UNL     1      33.544  -8.591 -24.882  0.00  0.00    -0.153 OA
BRANCH  24  27
ATOM     27  N   UNL     1      35.711  -9.876 -24.347  0.00  0.00    -0.203 NA
ATOM     28  H   UNL     1      35.189 -10.266 -23.564  0.00  0.00    +0.144 HD
ATOM     29  H   UNL     1      36.284  -9.097 -24.021  0.00  0.00    +0.144 HD
ENDBRANCH  24  27
ENDBRANCH  19  24
ENDBRANCH   1  18
TORSDOF 4
ENDMDL
MODEL 9
REMARK VINA RESULT:      -9.6     11.291     14.253
REMARK  Name = 5288527
REMARK  4 active torsions:
REMARK  status: ('A' for Active; 'I' for Inactive)
REMARK    1  A    between atoms: N_1  and  C_18
REMARK    2  A    between atoms: C_4  and  C_11
REMARK    3  A    between atoms: C_19  and  S_24
REMARK    4  A    between atoms: S_24  and  N_27
REMARK                            x       y       z     vdW  Elec       q    Type
REMARK                         _______ _______ _______ _____ _____    ______ ____
ROOT
ATOM      1  N   UNL     1      32.562 -10.991 -24.843  0.00  0.00    -0.247 N 
ATOM      2  N   UNL     1      33.325 -12.960 -23.821  0.00  0.00    -0.336 NA
ATOM      3  N   UNL     1      32.967 -12.861 -26.201  0.00  0.00    -0.170 NA
ATOM      4  C   UNL     1      33.711 -14.242 -23.974  0.00  0.00    +0.161 C 
ATOM      5  C   UNL     1      32.972 -12.337 -24.961  0.00  0.00    +0.149 C 
ATOM      6  C   UNL     1      33.752 -14.897 -25.185  0.00  0.00    +0.056 C 
ATOM      7  C   UNL     1      33.365 -14.148 -26.278  0.00  0.00    +0.114 C 
ATOM      8  H   UNL     1      32.313 -10.576 -25.701  0.00  0.00    +0.165 HD
ENDROOT
BRANCH   4  11
ATOM      9  N   UNL     1      34.511 -16.208 -22.658  0.00  0.00    -0.246 N 
ATOM     10  N   UNL     1      34.538 -15.386 -20.578  0.00  0.00    -0.227 NA
ATOM     11  C   UNL     1      34.088 -14.906 -22.749  0.00  0.00    +0.107 C 
ATOM     12  C   UNL     1      34.773 -16.453 -21.312  0.00  0.00    +0.139 C 
ATOM     13  C   UNL     1      34.115 -14.426 -21.461  0.00  0.00    +0.118 C 
ATOM     14  C   UNL     1      34.673 -17.160 -23.661  0.00  0.00    +0.071 C 
ATOM     15  C   UNL     1      35.232 -17.759 -20.971  0.00  0.00    +0.035 C 
ATOM     16  C   UNL     1      35.105 -18.387 -23.331  0.00  0.00    +0.017 C 
ATOM     17  C   UNL     1      35.390 -18.686 -21.936  0.00  0.00    +0.004 C 
ENDBRANCH   4  11
BRANCH   1  18
ATOM     18  C   UNL     1      32.440 -10.126 -23.740  0.00  0.00    +0.058 C 
ATOM     19  C   UNL     1      32.198  -8.409 -21.551  0.00  0.00    +0.122 C 
ATOM     20  C   UNL     1      33.292  -9.026 -23.614  0.00  0.00    +0.017 C 
ATOM     21  C   UNL     1      31.467 -10.364 -22.767  0.00  0.00    +0.017 C 
ATOM     22  C   UNL     1      33.171  -8.169 -22.521  0.00  0.00    +0.021 C 
ATOM     23  C   UNL     1      31.346  -9.507 -21.674  0.00  0.00    +0.021 C 
BRANCH  19  24
ATOM     24  S   UNL     1      32.046  -7.337 -20.181  0.00  0.00    +0.057 S 
ATOM     25  O   UNL     1      31.454  -6.088 -20.640  0.00  0.00    -0.153 OA
ATOM     26  O   UNL     1      31.430  -8.069 -19.085  0.00  0.00    -0.153 OA
BRANCH  24  27
ATOM     27  N   UNL     1      33.689  -7.060 -19.800  0.00  0.00    -0.203 NA
ATOM     28  H   UNL     1      34.209  -7.933 -19.886  0.00  0.00    +0.144 HD
ATOM     29  H   UNL     1      33.762  -6.712 -18.843  0.00  0.00    +0.144 HD
ENDBRANCH  24  27
ENDBRANCH  19  24
ENDBRANCH   1  18
TORSDOF 4
ENDMDL
