MODEL 1
REMARK VINA RESULT:     -13.0      0.000      0.000
REMARK  Name = 11740318
REMARK  5 active torsions:
REMARK  status: ('A' for Active; 'I' for Inactive)
REMARK    1  A    between atoms: N_1  and  C_20
REMARK    2  A    between atoms: C_2  and  O_8
REMARK    3  A    between atoms: O_8  and  C_9
REMARK    4  A    between atoms: C_14  and  N_15
REMARK    5  A    between atoms: C_20  and  C_23
REMARK                            x       y       z     vdW  Elec       q    Type
REMARK                         _______ _______ _______ _____ _____    ______ ____
ROOT
ATOM      1  N   UNL     1      33.615 -23.410 -14.366  0.00  0.00    +0.392 N 
ATOM      2  C   UNL     1      33.538 -22.916 -16.791  0.00  0.00    +0.145 C 
ATOM      3  C   UNL     1      34.314 -23.576 -15.646  0.00  0.00    -0.032 C 
ATOM      4  C   UNL     1      32.112 -23.453 -16.871  0.00  0.00    +0.039 C 
ATOM      5  C   UNL     1      31.425 -23.347 -15.516  0.00  0.00    -0.019 C 
ATOM      6  C   UNL     1      32.268 -23.993 -14.415  0.00  0.00    -0.077 C 
ATOM      7  H   UNL     1      33.518 -22.410 -14.189  0.00  0.00    -0.079 HD
ENDROOT
BRANCH   2   8
ATOM      8  O   UNL     1      34.191 -23.178 -18.028  0.00  0.00    -0.481 OA
BRANCH   8   9
ATOM      9  C   UNL     1      34.277 -22.136 -18.912  0.00  0.00    +0.138 C 
ATOM     10  C   UNL     1      33.116 -21.567 -19.423  0.00  0.00    +0.038 C 
ATOM     11  C   UNL     1      35.526 -21.654 -19.290  0.00  0.00    +0.038 C 
ATOM     12  C   UNL     1      33.203 -20.505 -20.324  0.00  0.00    +0.018 C 
ATOM     13  C   UNL     1      35.614 -20.592 -20.190  0.00  0.00    +0.018 C 
ATOM     14  C   UNL     1      34.452 -20.018 -20.706  0.00  0.00    +0.057 C 
BRANCH  14  15
ATOM     15  N   UNL     1      34.540 -18.964 -21.598  0.00  0.00    -0.246 N 
ATOM     16  N   UNL     1      34.967 -16.923 -22.387  0.00  0.00    -0.224 NA
ATOM     17  C   UNL     1      34.180 -18.981 -22.921  0.00  0.00    +0.092 C 
ATOM     18  C   UNL     1      35.008 -17.702 -21.329  0.00  0.00    +0.172 C 
ATOM     19  C   UNL     1      34.453 -17.715 -23.384  0.00  0.00    +0.117 C 
ENDBRANCH  14  15
ENDBRANCH   8   9
ENDBRANCH   2   8
BRANCH   1  20
ATOM     20  C   UNL     1      34.392 -24.004 -13.278  0.00  0.00    -0.050 C 
BRANCH  20  23
ATOM     21  O   UNL     1      39.263 -24.737 -13.611  0.00  0.00    -0.435 OA
ATOM     22  O   UNL     1      38.996 -26.609 -15.104  0.00  0.00    -0.435 OA
ATOM     23  C   UNL     1      35.609 -24.728 -13.789  0.00  0.00    -0.040 C 
ATOM     24  C   UNL     1      36.871 -24.304 -13.388  0.00  0.00    +0.034 C 
ATOM     25  C   UNL     1      35.443 -25.815 -14.656  0.00  0.00    -0.003 C 
ATOM     26  C   UNL     1      37.955 -24.999 -13.882  0.00  0.00    +0.176 C 
ATOM     27  C   UNL     1      36.558 -26.501 -15.141  0.00  0.00    +0.040 C 
ATOM     28  C   UNL     1      37.803 -26.068 -14.735  0.00  0.00    +0.176 C 
ATOM     29  C   UNL     1      39.917 -25.762 -14.387  0.00  0.00    +0.429 C 
ENDBRANCH  20  23
ENDBRANCH   1  20
TORSDOF 5
ENDMDL
MODEL 2
REMARK VINA RESULT:     -12.8      0.733      1.724
REMARK  Name = 11740318
REMARK  5 active torsions:
REMARK  status: ('A' for Active; 'I' for Inactive)
REMARK    1  A    between atoms: N_1  and  C_20
REMARK    2  A    between atoms: C_2  and  O_8
REMARK    3  A    between atoms: O_8  and  C_9
REMARK    4  A    between atoms: C_14  and  N_15
REMARK    5  A    between atoms: C_20  and  C_23
REMARK                            x       y       z     vdW  Elec       q    Type
REMARK                         _______ _______ _______ _____ _____    ______ ____
ROOT
ATOM      1  N   UNL     1      33.313 -23.762 -14.189  0.00  0.00    +0.392 N 
ATOM      2  C   UNL     1      33.270 -23.055 -16.561  0.00  0.00    +0.145 C 
ATOM      3  C   UNL     1      33.860 -24.019 -15.527  0.00  0.00    -0.032 C 
ATOM      4  C   UNL     1      31.746 -23.121 -16.570  0.00  0.00    +0.039 C 
ATOM      5  C   UNL     1      31.195 -22.931 -15.163  0.00  0.00    -0.019 C 
ATOM      6  C   UNL     1      31.851 -23.899 -14.176  0.00  0.00    -0.077 C 
ATOM      7  H   UNL     1      33.541 -22.800 -13.937  0.00  0.00    -0.079 HD
ENDROOT
BRANCH   2   8
ATOM      8  O   UNL     1      33.746 -23.393 -17.860  0.00  0.00    -0.481 OA
BRANCH   8   9
ATOM      9  C   UNL     1      33.938 -22.357 -18.734  0.00  0.00    +0.138 C 
ATOM     10  C   UNL     1      35.228 -21.918 -19.009  0.00  0.00    +0.038 C 
ATOM     11  C   UNL     1      32.841 -21.753 -19.340  0.00  0.00    +0.038 C 
ATOM     12  C   UNL     1      35.425 -20.861 -19.901  0.00  0.00    +0.018 C 
ATOM     13  C   UNL     1      33.037 -20.698 -20.231  0.00  0.00    +0.018 C 
ATOM     14  C   UNL     1      34.329 -20.253 -20.511  0.00  0.00    +0.057 C 
BRANCH  14  15
ATOM     15  N   UNL     1      34.523 -19.207 -21.395  0.00  0.00    -0.246 N 
ATOM     16  N   UNL     1      34.260 -17.911 -23.190  0.00  0.00    -0.224 NA
ATOM     17  C   UNL     1      35.422 -18.180 -21.263  0.00  0.00    +0.092 C 
ATOM     18  C   UNL     1      33.849 -18.996 -22.573  0.00  0.00    +0.172 C 
ATOM     19  C   UNL     1      35.240 -17.397 -22.378  0.00  0.00    +0.117 C 
ENDBRANCH  14  15
ENDBRANCH   8   9
ENDBRANCH   2   8
BRANCH   1  20
ATOM     20  C   UNL     1      33.921 -24.659 -13.207  0.00  0.00    -0.050 C 
BRANCH  20  23
ATOM     21  O   UNL     1      38.227 -26.618 -14.621  0.00  0.00    -0.435 OA
ATOM     22  O   UNL     1      39.498 -24.812 -13.657  0.00  0.00    -0.435 OA
ATOM     23  C   UNL     1      35.423 -24.668 -13.310  0.00  0.00    -0.040 C 
ATOM     24  C   UNL     1      36.054 -25.721 -13.962  0.00  0.00    +0.034 C 
ATOM     25  C   UNL     1      36.152 -23.614 -12.746  0.00  0.00    -0.003 C 
ATOM     26  C   UNL     1      37.432 -25.685 -14.031  0.00  0.00    +0.176 C 
ATOM     27  C   UNL     1      37.546 -23.601 -12.830  0.00  0.00    +0.040 C 
ATOM     28  C   UNL     1      38.157 -24.653 -13.480  0.00  0.00    +0.176 C 
ATOM     29  C   UNL     1      39.534 -26.057 -14.382  0.00  0.00    +0.429 C 
ENDBRANCH  20  23
ENDBRANCH   1  20
TORSDOF 5
ENDMDL
MODEL 3
REMARK VINA RESULT:     -12.1      4.541      8.825
REMARK  Name = 11740318
REMARK  5 active torsions:
REMARK  status: ('A' for Active; 'I' for Inactive)
REMARK    1  A    between atoms: N_1  and  C_20
REMARK    2  A    between atoms: C_2  and  O_8
REMARK    3  A    between atoms: O_8  and  C_9
REMARK    4  A    between atoms: C_14  and  N_15
REMARK    5  A    between atoms: C_20  and  C_23
REMARK                            x       y       z     vdW  Elec       q    Type
REMARK                         _______ _______ _______ _____ _____    ______ ____
ROOT
ATOM      1  N   UNL     1      34.639 -18.789 -22.686  0.00  0.00    +0.392 N 
ATOM      2  C   UNL     1      34.214 -16.636 -23.831  0.00  0.00    +0.145 C 
ATOM      3  C   UNL     1      35.036 -17.378 -22.773  0.00  0.00    -0.032 C 
ATOM      4  C   UNL     1      34.321 -17.320 -25.191  0.00  0.00    +0.039 C 
ATOM      5  C   UNL     1      33.982 -18.800 -25.072  0.00  0.00    -0.019 C 
ATOM      6  C   UNL     1      34.812 -19.471 -23.975  0.00  0.00    -0.077 C 
ATOM      7  H   UNL     1      33.649 -18.822 -22.443  0.00  0.00    -0.079 HD
ENDROOT
BRANCH   2   8
ATOM      8  O   UNL     1      34.688 -15.300 -23.958  0.00  0.00    -0.481 OA
BRANCH   8   9
ATOM      9  C   UNL     1      33.953 -14.324 -23.340  0.00  0.00    +0.138 C 
ATOM     10  C   UNL     1      33.400 -13.295 -24.094  0.00  0.00    +0.038 C 
ATOM     11  C   UNL     1      33.766 -14.371 -21.962  0.00  0.00    +0.038 C 
ATOM     12  C   UNL     1      32.651 -12.301 -23.464  0.00  0.00    +0.018 C 
ATOM     13  C   UNL     1      33.017 -13.377 -21.332  0.00  0.00    +0.018 C 
ATOM     14  C   UNL     1      32.459 -12.342 -22.083  0.00  0.00    +0.057 C 
BRANCH  14  15
ATOM     15  N   UNL     1      31.716 -11.357 -21.458  0.00  0.00    -0.246 N 
ATOM     16  N   UNL     1      30.690  -9.406 -21.127  0.00  0.00    -0.224 NA
ATOM     17  C   UNL     1      31.132 -11.435 -20.220  0.00  0.00    +0.092 C 
ATOM     18  C   UNL     1      31.419 -10.115 -21.961  0.00  0.00    +0.172 C 
ATOM     19  C   UNL     1      30.508 -10.224 -20.040  0.00  0.00    +0.117 C 
ENDBRANCH  14  15
ENDBRANCH   8   9
ENDBRANCH   2   8
BRANCH   1  20
ATOM     20  C   UNL     1      35.400 -19.471 -21.639  0.00  0.00    -0.050 C 
BRANCH  20  23
ATOM     21  O   UNL     1      34.574 -22.852 -18.137  0.00  0.00    -0.435 OA
ATOM     22  O   UNL     1      32.192 -22.489 -18.187  0.00  0.00    -0.435 OA
ATOM     23  C   UNL     1      34.507 -20.266 -20.724  0.00  0.00    -0.040 C 
ATOM     24  C   UNL     1      35.074 -21.198 -19.861  0.00  0.00    +0.034 C 
ATOM     25  C   UNL     1      33.125 -20.048 -20.761  0.00  0.00    -0.003 C 
ATOM     26  C   UNL     1      34.215 -21.901 -19.042  0.00  0.00    +0.176 C 
ATOM     27  C   UNL     1      32.278 -20.773 -19.920  0.00  0.00    +0.040 C 
ATOM     28  C   UNL     1      32.855 -21.695 -19.071  0.00  0.00    +0.176 C 
ATOM     29  C   UNL     1      33.288 -23.219 -17.598  0.00  0.00    +0.429 C 
ENDBRANCH  20  23
ENDBRANCH   1  20
TORSDOF 5
ENDMDL
MODEL 4
REMARK VINA RESULT:     -11.3      5.252      9.808
REMARK  Name = 11740318
REMARK  5 active torsions:
REMARK  status: ('A' for Active; 'I' for Inactive)
REMARK    1  A    between atoms: N_1  and  C_20
REMARK    2  A    between atoms: C_2  and  O_8
REMARK    3  A    between atoms: O_8  and  C_9
REMARK    4  A    between atoms: C_14  and  N_15
REMARK    5  A    between atoms: C_20  and  C_23
REMARK                            x       y       z     vdW  Elec       q    Type
REMARK                         _______ _______ _______ _____ _____    ______ ____
ROOT
ATOM      1  N   UNL     1      34.121 -17.845 -23.549  0.00  0.00    +0.392 N 
ATOM      2  C   UNL     1      33.432 -15.786 -24.739  0.00  0.00    +0.145 C 
ATOM      3  C   UNL     1      34.519 -16.479 -23.912  0.00  0.00    -0.032 C 
ATOM      4  C   UNL     1      33.080 -16.602 -25.980  0.00  0.00    +0.039 C 
ATOM      5  C   UNL     1      32.745 -18.037 -25.597  0.00  0.00    -0.019 C 
ATOM      6  C   UNL     1      33.854 -18.657 -24.744  0.00  0.00    -0.077 C 
ATOM      7  H   UNL     1      33.257 -17.787 -23.009  0.00  0.00    -0.079 HD
ENDROOT
BRANCH   2   8
ATOM      8  O   UNL     1      33.888 -14.504 -25.155  0.00  0.00    -0.481 OA
BRANCH   8   9
ATOM      9  C   UNL     1      33.399 -13.424 -24.469  0.00  0.00    +0.138 C 
ATOM     10  C   UNL     1      33.501 -12.152 -25.023  0.00  0.00    +0.038 C 
ATOM     11  C   UNL     1      32.805 -13.609 -23.225  0.00  0.00    +0.038 C 
ATOM     12  C   UNL     1      33.003 -11.051 -24.324  0.00  0.00    +0.018 C 
ATOM     13  C   UNL     1      32.308 -12.509 -22.527  0.00  0.00    +0.018 C 
ATOM     14  C   UNL     1      32.407 -11.230 -23.076  0.00  0.00    +0.057 C 
BRANCH  14  15
ATOM     15  N   UNL     1      31.912 -10.140 -22.384  0.00  0.00    -0.246 N 
ATOM     16  N   UNL     1      31.173  -8.905 -20.681  0.00  0.00    -0.224 NA
ATOM     17  C   UNL     1      31.617  -8.906 -22.904  0.00  0.00    +0.092 C 
ATOM     18  C   UNL     1      31.627 -10.085 -21.042  0.00  0.00    +0.172 C 
ATOM     19  C   UNL     1      31.165  -8.166 -21.838  0.00  0.00    +0.117 C 
ENDBRANCH  14  15
ENDBRANCH   8   9
ENDBRANCH   2   8
BRANCH   1  20
ATOM     20  C   UNL     1      35.149 -18.474 -22.720  0.00  0.00    -0.050 C 
BRANCH  20  23
ATOM     21  O   UNL     1      35.452 -21.784 -19.069  0.00  0.00    -0.435 OA
ATOM     22  O   UNL     1      33.057 -21.933 -18.850  0.00  0.00    -0.435 OA
ATOM     23  C   UNL     1      34.552 -19.395 -21.689  0.00  0.00    -0.040 C 
ATOM     24  C   UNL     1      35.395 -20.145 -20.877  0.00  0.00    +0.034 C 
ATOM     25  C   UNL     1      33.159 -19.474 -21.570  0.00  0.00    -0.003 C 
ATOM     26  C   UNL     1      34.801 -20.974 -19.948  0.00  0.00    +0.176 C 
ATOM     27  C   UNL     1      32.584 -20.320 -20.620  0.00  0.00    +0.040 C 
ATOM     28  C   UNL     1      33.433 -21.059 -19.823  0.00  0.00    +0.176 C 
ATOM     29  C   UNL     1      34.341 -22.388 -18.376  0.00  0.00    +0.429 C 
ENDBRANCH  20  23
ENDBRANCH   1  20
TORSDOF 5
ENDMDL
MODEL 5
REMARK VINA RESULT:     -11.2      5.900     10.766
REMARK  Name = 11740318
REMARK  5 active torsions:
REMARK  status: ('A' for Active; 'I' for Inactive)
REMARK    1  A    between atoms: N_1  and  C_20
REMARK    2  A    between atoms: C_2  and  O_8
REMARK    3  A    between atoms: O_8  and  C_9
REMARK    4  A    between atoms: C_14  and  N_15
REMARK    5  A    between atoms: C_20  and  C_23
REMARK                            x       y       z     vdW  Elec       q    Type
REMARK                         _______ _______ _______ _____ _____    ______ ____
ROOT
ATOM      1  N   UNL     1      33.734 -17.450 -24.781  0.00  0.00    +0.392 N 
ATOM      2  C   UNL     1      32.382 -16.099 -26.355  0.00  0.00    +0.145 C 
ATOM      3  C   UNL     1      33.755 -16.313 -25.710  0.00  0.00    -0.032 C 
ATOM      4  C   UNL     1      31.898 -17.366 -27.052  0.00  0.00    +0.039 C 
ATOM      5  C   UNL     1      31.955 -18.554 -26.101  0.00  0.00    -0.019 C 
ATOM      6  C   UNL     1      33.340 -18.689 -25.466  0.00  0.00    -0.077 C 
ATOM      7  H   UNL     1      33.038 -17.255 -24.062  0.00  0.00    -0.079 HD
ENDROOT
BRANCH   2   8
ATOM      8  O   UNL     1      32.461 -15.054 -27.318  0.00  0.00    -0.481 OA
BRANCH   8   9
ATOM      9  C   UNL     1      32.931 -13.845 -26.879  0.00  0.00    +0.138 C 
ATOM     10  C   UNL     1      33.639 -13.023 -27.749  0.00  0.00    +0.038 C 
ATOM     11  C   UNL     1      32.697 -13.450 -25.566  0.00  0.00    +0.038 C 
ATOM     12  C   UNL     1      34.118 -11.791 -27.301  0.00  0.00    +0.018 C 
ATOM     13  C   UNL     1      33.175 -12.219 -25.118  0.00  0.00    +0.018 C 
ATOM     14  C   UNL     1      33.885 -11.389 -25.986  0.00  0.00    +0.057 C 
BRANCH  14  15
ATOM     15  N   UNL     1      34.359 -10.168 -25.542  0.00  0.00    -0.246 N 
ATOM     16  N   UNL     1      35.066  -8.584 -24.142  0.00  0.00    -0.224 NA
ATOM     17  C   UNL     1      34.659  -9.077 -26.316  0.00  0.00    +0.092 C 
ATOM     18  C   UNL     1      34.622  -9.817 -24.241  0.00  0.00    +0.172 C 
ATOM     19  C   UNL     1      35.092  -8.117 -25.432  0.00  0.00    +0.117 C 
ENDBRANCH  14  15
ENDBRANCH   8   9
ENDBRANCH   2   8
BRANCH   1  20
ATOM     20  C   UNL     1      35.038 -17.612 -24.140  0.00  0.00    -0.050 C 
BRANCH  20  23
ATOM     21  O   UNL     1      32.607 -20.414 -20.881  0.00  0.00    -0.435 OA
ATOM     22  O   UNL     1      34.581 -20.779 -19.548  0.00  0.00    -0.435 OA
ATOM     23  C   UNL     1      34.951 -18.459 -22.898  0.00  0.00    -0.040 C 
ATOM     24  C   UNL     1      33.730 -19.019 -22.541  0.00  0.00    +0.034 C 
ATOM     25  C   UNL     1      36.104 -18.664 -22.130  0.00  0.00    -0.003 C 
ATOM     26  C   UNL     1      33.701 -19.787 -21.395  0.00  0.00    +0.176 C 
ATOM     27  C   UNL     1      36.047 -19.447 -20.975  0.00  0.00    +0.040 C 
ATOM     28  C   UNL     1      34.828 -19.995 -20.633  0.00  0.00    +0.176 C 
ATOM     29  C   UNL     1      33.173 -21.041 -19.712  0.00  0.00    +0.429 C 
ENDBRANCH  20  23
ENDBRANCH   1  20
TORSDOF 5
ENDMDL
MODEL 6
REMARK VINA RESULT:     -11.0      9.056     15.524
REMARK  Name = 11740318
REMARK  5 active torsions:
REMARK  status: ('A' for Active; 'I' for Inactive)
REMARK    1  A    between atoms: N_1  and  C_20
REMARK    2  A    between atoms: C_2  and  O_8
REMARK    3  A    between atoms: O_8  and  C_9
REMARK    4  A    between atoms: C_14  and  N_15
REMARK    5  A    between atoms: C_20  and  C_23
REMARK                            x       y       z     vdW  Elec       q    Type
REMARK                         _______ _______ _______ _____ _____    ______ ____
ROOT
ATOM      1  N   UNL     1      33.409  -8.648 -24.620  0.00  0.00    +0.392 N 
ATOM      2  C   UNL     1      33.648 -11.112 -24.601  0.00  0.00    +0.145 C 
ATOM      3  C   UNL     1      32.701  -9.923 -24.789  0.00  0.00    -0.032 C 
ATOM      4  C   UNL     1      34.842 -11.020 -25.546  0.00  0.00    +0.039 C 
ATOM      5  C   UNL     1      35.521  -9.663 -25.417  0.00  0.00    -0.019 C 
ATOM      6  C   UNL     1      34.514  -8.522 -25.580  0.00  0.00    -0.077 C 
ATOM      7  H   UNL     1      33.806  -8.632 -23.680  0.00  0.00    -0.079 HD
ENDROOT
BRANCH   2   8
ATOM      8  O   UNL     1      32.954 -12.326 -24.866  0.00  0.00    -0.481 OA
BRANCH   8   9
ATOM      9  C   UNL     1      33.419 -13.451 -24.238  0.00  0.00    +0.138 C 
ATOM     10  C   UNL     1      33.483 -14.653 -24.935  0.00  0.00    +0.038 C 
ATOM     11  C   UNL     1      33.823 -13.382 -22.909  0.00  0.00    +0.038 C 
ATOM     12  C   UNL     1      33.956 -15.799 -24.295  0.00  0.00    +0.018 C 
ATOM     13  C   UNL     1      34.296 -14.527 -22.269  0.00  0.00    +0.018 C 
ATOM     14  C   UNL     1      34.363 -15.736 -22.963  0.00  0.00    +0.057 C 
BRANCH  14  15
ATOM     15  N   UNL     1      34.833 -16.871 -22.329  0.00  0.00    -0.246 N 
ATOM     16  N   UNL     1      35.480 -18.231 -20.685  0.00  0.00    -0.224 NA
ATOM     17  C   UNL     1      35.194 -18.052 -22.926  0.00  0.00    +0.092 C 
ATOM     18  C   UNL     1      35.024 -17.034 -20.979  0.00  0.00    +0.172 C 
ATOM     19  C   UNL     1      35.588 -18.871 -21.895  0.00  0.00    +0.117 C 
ENDBRANCH  14  15
ENDBRANCH   8   9
ENDBRANCH   2   8
BRANCH   1  20
ATOM     20  C   UNL     1      32.482  -7.526 -24.756  0.00  0.00    -0.050 C 
BRANCH  20  23
ATOM     21  O   UNL     1      32.905  -6.952 -19.870  0.00  0.00    -0.435 OA
ATOM     22  O   UNL     1      30.849  -5.705 -19.722  0.00  0.00    -0.435 OA
ATOM     23  C   UNL     1      32.012  -7.021 -23.417  0.00  0.00    -0.040 C 
ATOM     24  C   UNL     1      32.777  -7.282 -22.286  0.00  0.00    +0.034 C 
ATOM     25  C   UNL     1      30.816  -6.297 -23.342  0.00  0.00    -0.003 C 
ATOM     26  C   UNL     1      32.306  -6.798 -21.082  0.00  0.00    +0.176 C 
ATOM     27  C   UNL     1      30.362  -5.819 -22.111  0.00  0.00    +0.040 C 
ATOM     28  C   UNL     1      31.131  -6.087 -20.997  0.00  0.00    +0.176 C 
ATOM     29  C   UNL     1      31.978  -6.255 -19.013  0.00  0.00    +0.429 C 
ENDBRANCH  20  23
ENDBRANCH   1  20
TORSDOF 5
ENDMDL
MODEL 7
REMARK VINA RESULT:     -10.9      2.974      5.548
REMARK  Name = 11740318
REMARK  5 active torsions:
REMARK  status: ('A' for Active; 'I' for Inactive)
REMARK    1  A    between atoms: N_1  and  C_20
REMARK    2  A    between atoms: C_2  and  O_8
REMARK    3  A    between atoms: O_8  and  C_9
REMARK    4  A    between atoms: C_14  and  N_15
REMARK    5  A    between atoms: C_20  and  C_23
REMARK                            x       y       z     vdW  Elec       q    Type
REMARK                         _______ _______ _______ _____ _____    ______ ____
ROOT
ATOM      1  N   UNL     1      33.457 -23.697 -15.155  0.00  0.00    +0.392 N 
ATOM      2  C   UNL     1      34.009 -23.644 -17.568  0.00  0.00    +0.145 C 
ATOM      3  C   UNL     1      32.900 -23.625 -16.512  0.00  0.00    -0.032 C 
ATOM      4  C   UNL     1      35.016 -22.523 -17.330  0.00  0.00    +0.039 C 
ATOM      5  C   UNL     1      35.528 -22.561 -15.896  0.00  0.00    -0.019 C 
ATOM      6  C   UNL     1      34.371 -22.576 -14.895  0.00  0.00    -0.077 C 
ATOM      7  H   UNL     1      33.993 -24.562 -15.082  0.00  0.00    -0.079 HD
ENDROOT
BRANCH   2   8
ATOM      8  O   UNL     1      33.442 -23.476 -18.863  0.00  0.00    -0.481 OA
BRANCH   8   9
ATOM      9  C   UNL     1      33.689 -22.286 -19.493  0.00  0.00    +0.138 C 
ATOM     10  C   UNL     1      34.988 -21.963 -19.872  0.00  0.00    +0.038 C 
ATOM     11  C   UNL     1      32.639 -21.411 -19.750  0.00  0.00    +0.038 C 
ATOM     12  C   UNL     1      35.240 -20.750 -20.515  0.00  0.00    +0.018 C 
ATOM     13  C   UNL     1      32.891 -20.199 -20.393  0.00  0.00    +0.018 C 
ATOM     14  C   UNL     1      34.191 -19.869 -20.775  0.00  0.00    +0.057 C 
BRANCH  14  15
ATOM     15  N   UNL     1      34.440 -18.667 -21.413  0.00  0.00    -0.246 N 
ATOM     16  N   UNL     1      34.560 -17.152 -23.043  0.00  0.00    -0.224 NA
ATOM     17  C   UNL     1      34.944 -17.527 -20.841  0.00  0.00    +0.092 C 
ATOM     18  C   UNL     1      34.227 -18.386 -22.740  0.00  0.00    +0.172 C 
ATOM     19  C   UNL     1      35.008 -16.610 -21.864  0.00  0.00    +0.117 C 
ENDBRANCH  14  15
ENDBRANCH   8   9
ENDBRANCH   2   8
BRANCH   1  20
ATOM     20  C   UNL     1      32.384 -23.725 -14.162  0.00  0.00    -0.050 C 
BRANCH  20  23
ATOM     21  O   UNL     1      28.613 -22.122 -16.917  0.00  0.00    -0.435 OA
ATOM     22  O   UNL     1      27.364 -24.158 -16.598  0.00  0.00    -0.435 OA
ATOM     23  C   UNL     1      31.030 -23.875 -14.803  0.00  0.00    -0.040 C 
ATOM     24  C   UNL     1      30.522 -22.834 -15.572  0.00  0.00    +0.034 C 
ATOM     25  C   UNL     1      30.313 -25.062 -14.611  0.00  0.00    -0.003 C 
ATOM     26  C   UNL     1      29.278 -23.019 -16.138  0.00  0.00    +0.176 C 
ATOM     27  C   UNL     1      29.055 -25.224 -15.197  0.00  0.00    +0.040 C 
ATOM     28  C   UNL     1      28.564 -24.181 -15.956  0.00  0.00    +0.176 C 
ATOM     29  C   UNL     1      27.403 -22.850 -17.206  0.00  0.00    +0.429 C 
ENDBRANCH  20  23
ENDBRANCH   1  20
TORSDOF 5
ENDMDL
MODEL 8
REMARK VINA RESULT:     -10.7      3.799     10.848
REMARK  Name = 11740318
REMARK  5 active torsions:
REMARK  status: ('A' for Active; 'I' for Inactive)
REMARK    1  A    between atoms: N_1  and  C_20
REMARK    2  A    between atoms: C_2  and  O_8
REMARK    3  A    between atoms: O_8  and  C_9
REMARK    4  A    between atoms: C_14  and  N_15
REMARK    5  A    between atoms: C_20  and  C_23
REMARK                            x       y       z     vdW  Elec       q    Type
REMARK                         _______ _______ _______ _____ _____    ______ ____
ROOT
ATOM      1  N   UNL     1      34.854 -18.564 -22.174  0.00  0.00    +0.392 N 
ATOM      2  C   UNL     1      34.599 -20.328 -20.455  0.00  0.00    +0.145 C 
ATOM      3  C   UNL     1      34.163 -19.813 -21.831  0.00  0.00    -0.032 C 
ATOM      4  C   UNL     1      36.113 -20.503 -20.388  0.00  0.00    +0.039 C 
ATOM      5  C   UNL     1      36.818 -19.226 -20.822  0.00  0.00    -0.019 C 
ATOM      6  C   UNL     1      36.312 -18.748 -22.184  0.00  0.00    -0.077 C 
ATOM      7  H   UNL     1      34.630 -17.874 -21.458  0.00  0.00    -0.079 HD
ENDROOT
BRANCH   2   8
ATOM      8  O   UNL     1      33.985 -21.585 -20.196  0.00  0.00    -0.481 OA
BRANCH   8   9
ATOM      9  C   UNL     1      34.064 -22.056 -18.912  0.00  0.00    +0.138 C 
ATOM     10  C   UNL     1      35.269 -21.981 -18.224  0.00  0.00    +0.038 C 
ATOM     11  C   UNL     1      32.936 -22.603 -18.308  0.00  0.00    +0.038 C 
ATOM     12  C   UNL     1      35.350 -22.461 -16.915  0.00  0.00    +0.018 C 
ATOM     13  C   UNL     1      33.016 -23.082 -17.001  0.00  0.00    +0.018 C 
ATOM     14  C   UNL     1      34.223 -23.011 -16.305  0.00  0.00    +0.057 C 
BRANCH  14  15
ATOM     15  N   UNL     1      34.302 -23.485 -15.008  0.00  0.00    -0.246 N 
ATOM     16  N   UNL     1      33.668 -24.387 -13.070  0.00  0.00    -0.224 NA
ATOM     17  C   UNL     1      35.419 -23.510 -14.212  0.00  0.00    +0.092 C 
ATOM     18  C   UNL     1      33.277 -24.025 -14.271  0.00  0.00    +0.172 C 
ATOM     19  C   UNL     1      35.003 -24.069 -13.027  0.00  0.00    +0.117 C 
ENDBRANCH  14  15
ENDBRANCH   8   9
ENDBRANCH   2   8
BRANCH   1  20
ATOM     20  C   UNL     1      34.392 -18.063 -23.468  0.00  0.00    -0.050 C 
BRANCH  20  23
ATOM     21  O   UNL     1      33.037 -13.777 -25.513  0.00  0.00    -0.435 OA
ATOM     22  O   UNL     1      33.643 -12.517 -23.551  0.00  0.00    -0.435 OA
ATOM     23  C   UNL     1      34.204 -16.569 -23.456  0.00  0.00    -0.040 C 
ATOM     24  C   UNL     1      33.680 -15.940 -24.580  0.00  0.00    +0.034 C 
ATOM     25  C   UNL     1      34.559 -15.846 -22.311  0.00  0.00    -0.003 C 
ATOM     26  C   UNL     1      33.527 -14.570 -24.521  0.00  0.00    +0.176 C 
ATOM     27  C   UNL     1      34.392 -14.460 -22.277  0.00  0.00    +0.040 C 
ATOM     28  C   UNL     1      33.873 -13.850 -23.400  0.00  0.00    +0.176 C 
ATOM     29  C   UNL     1      33.112 -12.478 -24.891  0.00  0.00    +0.429 C 
ENDBRANCH  20  23
ENDBRANCH   1  20
TORSDOF 5
ENDMDL
MODEL 9
REMARK VINA RESULT:     -10.6      7.040     12.045
REMARK  Name = 11740318
REMARK  5 active torsions:
REMARK  status: ('A' for Active; 'I' for Inactive)
REMARK    1  A    between atoms: N_1  and  C_20
REMARK    2  A    between atoms: C_2  and  O_8
REMARK    3  A    between atoms: O_8  and  C_9
REMARK    4  A    between atoms: C_14  and  N_15
REMARK    5  A    between atoms: C_20  and  C_23
REMARK                            x       y       z     vdW  Elec       q    Type
REMARK                         _______ _______ _______ _____ _____    ______ ____
ROOT
ATOM      1  N   UNL     1      32.776 -16.658 -26.236  0.00  0.00    +0.392 N 
ATOM      2  C   UNL     1      32.410 -14.233 -26.578  0.00  0.00    +0.145 C 
ATOM      3  C   UNL     1      33.436 -15.357 -26.408  0.00  0.00    -0.032 C 
ATOM      4  C   UNL     1      31.462 -14.524 -27.737  0.00  0.00    +0.039 C 
ATOM      5  C   UNL     1      30.843 -15.907 -27.587  0.00  0.00    -0.019 C 
ATOM      6  C   UNL     1      31.920 -16.976 -27.386  0.00  0.00    -0.077 C 
ATOM      7  H   UNL     1      32.183 -16.600 -25.408  0.00  0.00    -0.079 HD
ENDROOT
BRANCH   2   8
ATOM      8  O   UNL     1      33.081 -13.005 -26.839  0.00  0.00    -0.481 OA
BRANCH   8   9
ATOM      9  C   UNL     1      32.993 -12.038 -25.874  0.00  0.00    +0.138 C 
ATOM     10  C   UNL     1      32.853 -10.705 -26.244  0.00  0.00    +0.038 C 
ATOM     11  C   UNL     1      33.042 -12.397 -24.531  0.00  0.00    +0.038 C 
ATOM     12  C   UNL     1      32.763  -9.719 -25.261  0.00  0.00    +0.018 C 
ATOM     13  C   UNL     1      32.952 -11.412 -23.548  0.00  0.00    +0.018 C 
ATOM     14  C   UNL     1      32.812 -10.073 -23.913  0.00  0.00    +0.057 C 
BRANCH  14  15
ATOM     15  N   UNL     1      32.722  -9.096 -22.938  0.00  0.00    -0.246 N 
ATOM     16  N   UNL     1      31.983  -7.991 -21.148  0.00  0.00    -0.224 NA
ATOM     17  C   UNL     1      33.530  -7.996 -22.805  0.00  0.00    +0.092 C 
ATOM     18  C   UNL     1      31.808  -9.044 -21.915  0.00  0.00    +0.172 C 
ATOM     19  C   UNL     1      33.056  -7.334 -21.698  0.00  0.00    +0.117 C 
ENDBRANCH  14  15
ENDBRANCH   8   9
ENDBRANCH   2   8
BRANCH   1  20
ATOM     20  C   UNL     1      33.769 -17.712 -26.028  0.00  0.00    -0.050 C 
BRANCH  20  23
ATOM     21  O   UNL     1      34.803 -20.154 -21.863  0.00  0.00    -0.435 OA
ATOM     22  O   UNL     1      35.404 -18.135 -20.693  0.00  0.00    -0.435 OA
ATOM     23  C   UNL     1      34.213 -17.789 -24.592  0.00  0.00    -0.040 C 
ATOM     24  C   UNL     1      34.271 -19.028 -23.963  0.00  0.00    +0.034 C 
ATOM     25  C   UNL     1      34.560 -16.610 -23.921  0.00  0.00    -0.003 C 
ATOM     26  C   UNL     1      34.684 -19.047 -22.647  0.00  0.00    +0.176 C 
ATOM     27  C   UNL     1      34.976 -16.658 -22.588  0.00  0.00    +0.040 C 
ATOM     28  C   UNL     1      35.027 -17.894 -21.978  0.00  0.00    +0.176 C 
ATOM     29  C   UNL     1      35.260 -19.568 -20.627  0.00  0.00    +0.429 C 
ENDBRANCH  20  23
ENDBRANCH   1  20
TORSDOF 5
ENDMDL
