MODEL 1
REMARK VINA RESULT:     -12.7      0.000      0.000
REMARK  Name = 42611257
REMARK  7 active torsions:
REMARK  status: ('A' for Active; 'I' for Inactive)
REMARK    1  A    between atoms: C_2  and  C_6
REMARK    2  A    between atoms: C_2  and  C_22
REMARK    3  A    between atoms: C_10  and  C_14
REMARK    4  A    between atoms: C_23  and  N_28
REMARK    5  A    between atoms: N_28  and  S_30
REMARK    6  A    between atoms: S_30  and  C_33
REMARK    7  A    between atoms: C_33  and  C_34
REMARK                            x       y       z     vdW  Elec       q    Type
REMARK                         _______ _______ _______ _____ _____    ______ ____
ROOT
ATOM      1  O   UNL     1      34.706 -17.101 -21.319  0.00  0.00    -0.286 OA
ATOM      2  C   UNL     1      34.637 -18.208 -21.895  0.00  0.00    +0.201 C 
ENDROOT
BRANCH   2   6
ATOM      3  N   UNL     1      34.032 -19.175 -25.317  0.00  0.00    -0.297 N 
ATOM      4  N   UNL     1      33.480 -17.204 -26.586  0.00  0.00    -0.229 NA
ATOM      5  C   UNL     1      34.005 -17.247 -24.191  0.00  0.00    +0.036 C 
ATOM      6  C   UNL     1      34.345 -18.296 -23.297  0.00  0.00    +0.056 C 
ATOM      7  C   UNL     1      33.816 -17.829 -25.441  0.00  0.00    +0.132 C 
ATOM      8  C   UNL     1      33.832 -15.857 -24.092  0.00  0.00    +0.004 C 
ATOM      9  C   UNL     1      34.355 -19.471 -24.018  0.00  0.00    +0.066 C 
ATOM     10  C   UNL     1      33.484 -15.161 -25.248  0.00  0.00    +0.019 C 
ATOM     11  C   UNL     1      33.326 -15.869 -26.432  0.00  0.00    +0.100 C 
ATOM     12  H   UNL     1      33.965 -19.831 -26.049  0.00  0.00    +0.154 HD
BRANCH  10  14
ATOM     13 CL   UNL     1      32.690  -9.259 -25.105  0.00  0.00    -0.082 Cl
ATOM     14  C   UNL     1      33.290 -13.729 -25.212  0.00  0.00    +0.002 C 
ATOM     15  C   UNL     1      33.365 -13.044 -24.000  0.00  0.00    +0.001 C 
ATOM     16  C   UNL     1      33.029 -13.032 -26.392  0.00  0.00    +0.001 C 
ATOM     17  C   UNL     1      33.180 -11.662 -23.966  0.00  0.00    +0.011 C 
ATOM     18  C   UNL     1      32.843 -11.650 -26.359  0.00  0.00    +0.011 C 
ATOM     19  C   UNL     1      32.918 -10.965 -25.146  0.00  0.00    +0.058 C 
ENDBRANCH  10  14
ENDBRANCH   2   6
BRANCH   2  22
ATOM     20  F   UNL     1      32.540 -19.765 -20.826  0.00  0.00    -0.203 F 
ATOM     21  F   UNL     1      37.226 -19.118 -21.193  0.00  0.00    -0.204 F 
ATOM     22  C   UNL     1      34.876 -19.415 -21.029  0.00  0.00    +0.095 C 
ATOM     23  C   UNL     1      34.013 -21.260 -19.729  0.00  0.00    +0.092 C 
ATOM     24  C   UNL     1      33.793 -20.141 -20.533  0.00  0.00    +0.160 C 
ATOM     25  C   UNL     1      36.179 -19.808 -20.722  0.00  0.00    +0.145 C 
ATOM     26  C   UNL     1      35.317 -21.653 -19.422  0.00  0.00    +0.020 C 
ATOM     27  C   UNL     1      36.399 -20.927 -19.919  0.00  0.00    +0.031 C 
BRANCH  23  28
ATOM     28  N   UNL     1      32.907 -22.006 -19.219  0.00  0.00    -0.217 N 
ATOM     29  H   UNL     1      31.997 -21.861 -19.566  0.00  0.00    +0.173 HD
BRANCH  28  30
ATOM     30  S   UNL     1      33.209 -23.165 -17.983  0.00  0.00    +0.054 S 
ATOM     31  O   UNL     1      33.200 -24.488 -18.582  0.00  0.00    -0.154 OA
ATOM     32  O   UNL     1      34.310 -22.747 -17.138  0.00  0.00    -0.154 OA
BRANCH  30  33
ATOM     33  C   UNL     1      31.710 -23.015 -17.039  0.00  0.00    +0.172 C 
BRANCH  33  34
ATOM     34  C   UNL     1      31.884 -23.561 -15.631  0.00  0.00    +0.027 C 
ATOM     35  C   UNL     1      30.983 -22.843 -14.641  0.00  0.00    +0.002 C 
ENDBRANCH  33  34
ENDBRANCH  30  33
ENDBRANCH  28  30
ENDBRANCH  23  28
ENDBRANCH   2  22
TORSDOF 7
ENDMDL
MODEL 2
REMARK VINA RESULT:     -12.5      4.655     10.223
REMARK  Name = 42611257
REMARK  7 active torsions:
REMARK  status: ('A' for Active; 'I' for Inactive)
REMARK    1  A    between atoms: C_2  and  C_6
REMARK    2  A    between atoms: C_2  and  C_22
REMARK    3  A    between atoms: C_10  and  C_14
REMARK    4  A    between atoms: C_23  and  N_28
REMARK    5  A    between atoms: N_28  and  S_30
REMARK    6  A    between atoms: S_30  and  C_33
REMARK    7  A    between atoms: C_33  and  C_34
REMARK                            x       y       z     vdW  Elec       q    Type
REMARK                         _______ _______ _______ _____ _____    ______ ____
ROOT
ATOM      1  O   UNL     1      36.327 -19.220 -20.654  0.00  0.00    -0.286 OA
ATOM      2  C   UNL     1      35.148 -18.973 -20.990  0.00  0.00    +0.201 C 
ENDROOT
BRANCH   2   6
ATOM      3  N   UNL     1      32.083 -20.847 -20.674  0.00  0.00    -0.297 N 
ATOM      4  N   UNL     1      32.342 -22.447 -18.893  0.00  0.00    -0.229 NA
ATOM      5  C   UNL     1      34.056 -20.856 -19.629  0.00  0.00    +0.036 C 
ATOM      6  C   UNL     1      34.077 -19.861 -20.641  0.00  0.00    +0.056 C 
ATOM      7  C   UNL     1      32.799 -21.452 -19.676  0.00  0.00    +0.132 C 
ATOM      8  C   UNL     1      34.961 -21.331 -18.665  0.00  0.00    +0.004 C 
ATOM      9  C   UNL     1      32.849 -19.878 -21.267  0.00  0.00    +0.066 C 
ATOM     10  C   UNL     1      34.538 -22.361 -17.828  0.00  0.00    +0.019 C 
ATOM     11  C   UNL     1      33.254 -22.865 -17.985  0.00  0.00    +0.100 C 
ATOM     12  H   UNL     1      31.159 -21.074 -20.927  0.00  0.00    +0.154 HD
BRANCH  10  14
ATOM     13 CL   UNL     1      38.176 -24.558 -13.654  0.00  0.00    -0.082 Cl
ATOM     14  C   UNL     1      35.422 -22.894 -16.816  0.00  0.00    +0.002 C 
ATOM     15  C   UNL     1      36.731 -22.423 -16.713  0.00  0.00    +0.001 C 
ATOM     16  C   UNL     1      34.965 -23.881 -15.942  0.00  0.00    +0.001 C 
ATOM     17  C   UNL     1      37.582 -22.937 -15.735  0.00  0.00    +0.011 C 
ATOM     18  C   UNL     1      35.816 -24.395 -14.965  0.00  0.00    +0.011 C 
ATOM     19  C   UNL     1      37.125 -23.923 -14.861  0.00  0.00    +0.058 C 
ENDBRANCH  10  14
ENDBRANCH   2   6
BRANCH   2  22
ATOM     20  F   UNL     1      35.003 -18.918 -23.809  0.00  0.00    -0.203 F 
ATOM     21  F   UNL     1      34.870 -16.432 -19.768  0.00  0.00    -0.204 F 
ATOM     22  C   UNL     1      34.941 -17.704 -21.773  0.00  0.00    +0.095 C 
ATOM     23  C   UNL     1      34.687 -16.572 -23.892  0.00  0.00    +0.092 C 
ATOM     24  C   UNL     1      34.878 -17.747 -23.166  0.00  0.00    +0.160 C 
ATOM     25  C   UNL     1      34.811 -16.486 -21.106  0.00  0.00    +0.145 C 
ATOM     26  C   UNL     1      34.557 -15.353 -23.224  0.00  0.00    +0.020 C 
ATOM     27  C   UNL     1      34.619 -15.310 -21.832  0.00  0.00    +0.031 C 
BRANCH  23  28
ATOM     28  N   UNL     1      34.622 -16.612 -25.318  0.00  0.00    -0.217 N 
ATOM     29  H   UNL     1      35.389 -16.329 -25.867  0.00  0.00    +0.173 HD
BRANCH  28  30
ATOM     30  S   UNL     1      33.167 -17.170 -26.050  0.00  0.00    +0.054 S 
ATOM     31  O   UNL     1      33.466 -18.371 -26.808  0.00  0.00    -0.154 OA
ATOM     32  O   UNL     1      32.070 -17.151 -25.103  0.00  0.00    -0.154 OA
BRANCH  30  33
ATOM     33  C   UNL     1      32.891 -15.870 -27.231  0.00  0.00    +0.172 C 
BRANCH  33  34
ATOM     34  C   UNL     1      32.960 -14.501 -26.574  0.00  0.00    +0.027 C 
ATOM     35  C   UNL     1      33.389 -13.430 -27.563  0.00  0.00    +0.002 C 
ENDBRANCH  33  34
ENDBRANCH  30  33
ENDBRANCH  28  30
ENDBRANCH  23  28
ENDBRANCH   2  22
TORSDOF 7
ENDMDL
MODEL 3
REMARK VINA RESULT:     -12.0      5.310     10.265
REMARK  Name = 42611257
REMARK  7 active torsions:
REMARK  status: ('A' for Active; 'I' for Inactive)
REMARK    1  A    between atoms: C_2  and  C_6
REMARK    2  A    between atoms: C_2  and  C_22
REMARK    3  A    between atoms: C_10  and  C_14
REMARK    4  A    between atoms: C_23  and  N_28
REMARK    5  A    between atoms: N_28  and  S_30
REMARK    6  A    between atoms: S_30  and  C_33
REMARK    7  A    between atoms: C_33  and  C_34
REMARK                            x       y       z     vdW  Elec       q    Type
REMARK                         _______ _______ _______ _____ _____    ______ ____
ROOT
ATOM      1  O   UNL     1      34.966 -14.520 -20.613  0.00  0.00    -0.286 OA
ATOM      2  C   UNL     1      34.269 -14.518 -21.650  0.00  0.00    +0.201 C 
ENDROOT
BRANCH   2   6
ATOM      3  N   UNL     1      34.802 -16.407 -24.677  0.00  0.00    -0.297 N 
ATOM      4  N   UNL     1      34.759 -18.753 -24.135  0.00  0.00    -0.229 NA
ATOM      5  C   UNL     1      34.460 -16.923 -22.531  0.00  0.00    +0.036 C 
ATOM      6  C   UNL     1      34.456 -15.509 -22.670  0.00  0.00    +0.056 C 
ATOM      7  C   UNL     1      34.678 -17.451 -23.800  0.00  0.00    +0.132 C 
ATOM      8  C   UNL     1      34.303 -17.830 -21.471  0.00  0.00    +0.004 C 
ATOM      9  C   UNL     1      34.669 -15.221 -24.001  0.00  0.00    +0.066 C 
ATOM     10  C   UNL     1      34.376 -19.190 -21.763  0.00  0.00    +0.019 C 
ATOM     11  C   UNL     1      34.600 -19.581 -23.077  0.00  0.00    +0.100 C 
ATOM     12  H   UNL     1      34.964 -16.493 -25.644  0.00  0.00    +0.154 HD
BRANCH  10  14
ATOM     13 CL   UNL     1      33.745 -23.245 -17.445  0.00  0.00    -0.082 Cl
ATOM     14  C   UNL     1      34.224 -20.175 -20.717  0.00  0.00    +0.002 C 
ATOM     15  C   UNL     1      35.351 -20.760 -20.138  0.00  0.00    +0.001 C 
ATOM     16  C   UNL     1      32.949 -20.540 -20.284  0.00  0.00    +0.001 C 
ATOM     17  C   UNL     1      35.203 -21.709 -19.126  0.00  0.00    +0.011 C 
ATOM     18  C   UNL     1      32.801 -21.489 -19.273  0.00  0.00    +0.011 C 
ATOM     19  C   UNL     1      33.928 -22.074 -18.694  0.00  0.00    +0.058 C 
ENDBRANCH  10  14
ENDBRANCH   2   6
BRANCH   2  22
ATOM     20  F   UNL     1      34.301 -12.569 -23.691  0.00  0.00    -0.203 F 
ATOM     21  F   UNL     1      32.136 -14.229 -19.808  0.00  0.00    -0.204 F 
ATOM     22  C   UNL     1      33.242 -13.422 -21.749  0.00  0.00    +0.095 C 
ATOM     23  C   UNL     1      32.365 -11.473 -22.876  0.00  0.00    +0.092 C 
ATOM     24  C   UNL     1      33.316 -12.490 -22.784  0.00  0.00    +0.160 C 
ATOM     25  C   UNL     1      32.217 -13.338 -20.807  0.00  0.00    +0.145 C 
ATOM     26  C   UNL     1      31.339 -11.390 -21.934  0.00  0.00    +0.020 C 
ATOM     27  C   UNL     1      31.266 -12.322 -20.900  0.00  0.00    +0.031 C 
BRANCH  23  28
ATOM     28  N   UNL     1      32.438 -10.518 -23.935  0.00  0.00    -0.217 N 
ATOM     29  H   UNL     1      32.401 -10.802 -24.877  0.00  0.00    +0.173 HD
BRANCH  28  30
ATOM     30  S   UNL     1      32.591  -8.854 -23.518  0.00  0.00    +0.054 S 
ATOM     31  O   UNL     1      31.378  -8.166 -23.925  0.00  0.00    -0.154 OA
ATOM     32  O   UNL     1      33.108  -8.701 -22.173  0.00  0.00    -0.154 OA
BRANCH  30  33
ATOM     33  C   UNL     1      33.868  -8.362 -24.653  0.00  0.00    +0.172 C 
BRANCH  33  34
ATOM     34  C   UNL     1      35.208  -8.971 -24.277  0.00  0.00    +0.027 C 
ATOM     35  C   UNL     1      35.719  -9.906 -25.360  0.00  0.00    +0.002 C 
ENDBRANCH  33  34
ENDBRANCH  30  33
ENDBRANCH  28  30
ENDBRANCH  23  28
ENDBRANCH   2  22
TORSDOF 7
ENDMDL
MODEL 4
REMARK VINA RESULT:     -11.9      6.723     10.146
REMARK  Name = 42611257
REMARK  7 active torsions:
REMARK  status: ('A' for Active; 'I' for Inactive)
REMARK    1  A    between atoms: C_2  and  C_6
REMARK    2  A    between atoms: C_2  and  C_22
REMARK    3  A    between atoms: C_10  and  C_14
REMARK    4  A    between atoms: C_23  and  N_28
REMARK    5  A    between atoms: N_28  and  S_30
REMARK    6  A    between atoms: S_30  and  C_33
REMARK    7  A    between atoms: C_33  and  C_34
REMARK                            x       y       z     vdW  Elec       q    Type
REMARK                         _______ _______ _______ _____ _____    ______ ____
ROOT
ATOM      1  O   UNL     1      34.841 -10.912 -25.233  0.00  0.00    -0.286 OA
ATOM      2  C   UNL     1      33.616 -10.876 -25.477  0.00  0.00    +0.201 C 
ENDROOT
BRANCH   2   6
ATOM      3  N   UNL     1      31.812 -12.833 -27.912  0.00  0.00    -0.297 N 
ATOM      4  N   UNL     1      31.999 -15.159 -27.318  0.00  0.00    -0.229 NA
ATOM      5  C   UNL     1      32.997 -13.295 -26.076  0.00  0.00    +0.036 C 
ATOM      6  C   UNL     1      32.990 -11.889 -26.277  0.00  0.00    +0.056 C 
ATOM      7  C   UNL     1      32.254 -13.853 -27.113  0.00  0.00    +0.132 C 
ATOM      8  C   UNL     1      33.550 -14.174 -25.130  0.00  0.00    +0.004 C 
ATOM      9  C   UNL     1      32.253 -11.634 -27.413  0.00  0.00    +0.066 C 
ATOM     10  C   UNL     1      33.316 -15.538 -25.296  0.00  0.00    +0.019 C 
ATOM     11  C   UNL     1      32.555 -15.959 -26.379  0.00  0.00    +0.100 C 
ATOM     12  H   UNL     1      31.261 -12.943 -28.721  0.00  0.00    +0.154 HD
BRANCH  10  14
ATOM     13 CL   UNL     1      35.542 -19.483 -21.429  0.00  0.00    -0.082 Cl
ATOM     14  C   UNL     1      33.857 -16.494 -24.358  0.00  0.00    +0.002 C 
ATOM     15  C   UNL     1      34.541 -16.052 -23.225  0.00  0.00    +0.001 C 
ATOM     16  C   UNL     1      33.696 -17.861 -24.586  0.00  0.00    +0.001 C 
ATOM     17  C   UNL     1      35.061 -16.976 -22.319  0.00  0.00    +0.011 C 
ATOM     18  C   UNL     1      34.217 -18.785 -23.681  0.00  0.00    +0.011 C 
ATOM     19  C   UNL     1      34.900 -18.343 -22.547  0.00  0.00    +0.058 C 
ENDBRANCH  10  14
ENDBRANCH   2   6
BRANCH   2  22
ATOM     20  F   UNL     1      32.391 -10.983 -22.936  0.00  0.00    -0.203 F 
ATOM     21  F   UNL     1      33.298  -8.396 -26.809  0.00  0.00    -0.204 F 
ATOM     22  C   UNL     1      32.861  -9.716 -24.884  0.00  0.00    +0.095 C 
ATOM     23  C   UNL     1      31.579  -8.763 -23.072  0.00  0.00    +0.092 C 
ATOM     24  C   UNL     1      32.279  -9.836 -23.622  0.00  0.00    +0.160 C 
ATOM     25  C   UNL     1      32.743  -8.523 -25.596  0.00  0.00    +0.145 C 
ATOM     26  C   UNL     1      31.461  -7.568 -23.784  0.00  0.00    +0.020 C 
ATOM     27  C   UNL     1      32.043  -7.449 -25.046  0.00  0.00    +0.031 C 
BRANCH  23  28
ATOM     28  N   UNL     1      30.982  -8.882 -21.780  0.00  0.00    -0.217 N 
ATOM     29  H   UNL     1      30.080  -9.262 -21.673  0.00  0.00    +0.173 HD
BRANCH  28  30
ATOM     30  S   UNL     1      31.884  -8.344 -20.416  0.00  0.00    +0.054 S 
ATOM     31  O   UNL     1      33.211  -7.961 -20.865  0.00  0.00    -0.154 OA
ATOM     32  O   UNL     1      31.097  -7.446 -19.595  0.00  0.00    -0.154 OA
BRANCH  30  33
ATOM     33  C   UNL     1      32.061  -9.877 -19.532  0.00  0.00    +0.172 C 
BRANCH  33  34
ATOM     34  C   UNL     1      31.010 -10.887 -19.960  0.00  0.00    +0.027 C 
ATOM     35  C   UNL     1      31.603 -12.278 -20.108  0.00  0.00    +0.002 C 
ENDBRANCH  33  34
ENDBRANCH  30  33
ENDBRANCH  28  30
ENDBRANCH  23  28
ENDBRANCH   2  22
TORSDOF 7
ENDMDL
MODEL 5
REMARK VINA RESULT:     -11.8      6.633     10.669
REMARK  Name = 42611257
REMARK  7 active torsions:
REMARK  status: ('A' for Active; 'I' for Inactive)
REMARK    1  A    between atoms: C_2  and  C_6
REMARK    2  A    between atoms: C_2  and  C_22
REMARK    3  A    between atoms: C_10  and  C_14
REMARK    4  A    between atoms: C_23  and  N_28
REMARK    5  A    between atoms: N_28  and  S_30
REMARK    6  A    between atoms: S_30  and  C_33
REMARK    7  A    between atoms: C_33  and  C_34
REMARK                            x       y       z     vdW  Elec       q    Type
REMARK                         _______ _______ _______ _____ _____    ______ ____
ROOT
ATOM      1  O   UNL     1      34.818 -10.934 -25.169  0.00  0.00    -0.286 OA
ATOM      2  C   UNL     1      33.589 -10.936 -25.395  0.00  0.00    +0.201 C 
ENDROOT
BRANCH   2   6
ATOM      3  N   UNL     1      31.846 -12.903 -27.865  0.00  0.00    -0.297 N 
ATOM      4  N   UNL     1      32.045 -15.229 -27.275  0.00  0.00    -0.229 NA
ATOM      5  C   UNL     1      33.004 -13.359 -26.011  0.00  0.00    +0.036 C 
ATOM      6  C   UNL     1      32.987 -11.953 -26.208  0.00  0.00    +0.056 C 
ATOM      7  C   UNL     1      32.284 -13.921 -27.062  0.00  0.00    +0.132 C 
ATOM      8  C   UNL     1      33.549 -14.235 -25.058  0.00  0.00    +0.004 C 
ATOM      9  C   UNL     1      32.267 -11.702 -27.356  0.00  0.00    +0.066 C 
ATOM     10  C   UNL     1      33.331 -15.601 -25.232  0.00  0.00    +0.019 C 
ATOM     11  C   UNL     1      32.592 -16.026 -26.329  0.00  0.00    +0.100 C 
ATOM     12  H   UNL     1      31.311 -13.016 -28.684  0.00  0.00    +0.154 HD
BRANCH  10  14
ATOM     13 CL   UNL     1      35.528 -19.536 -21.338  0.00  0.00    -0.082 Cl
ATOM     14  C   UNL     1      33.865 -16.555 -24.287  0.00  0.00    +0.002 C 
ATOM     15  C   UNL     1      34.526 -16.109 -23.143  0.00  0.00    +0.001 C 
ATOM     16  C   UNL     1      33.719 -17.923 -24.520  0.00  0.00    +0.001 C 
ATOM     17  C   UNL     1      35.040 -17.031 -22.230  0.00  0.00    +0.011 C 
ATOM     18  C   UNL     1      34.234 -18.844 -23.609  0.00  0.00    +0.011 C 
ATOM     19  C   UNL     1      34.894 -18.399 -22.463  0.00  0.00    +0.058 C 
ENDBRANCH  10  14
ENDBRANCH   2   6
BRANCH   2  22
ATOM     20  F   UNL     1      32.625 -11.041 -22.744  0.00  0.00    -0.203 F 
ATOM     21  F   UNL     1      32.948  -8.540 -26.764  0.00  0.00    -0.204 F 
ATOM     22  C   UNL     1      32.804  -9.816 -24.766  0.00  0.00    +0.095 C 
ATOM     23  C   UNL     1      31.627  -8.896 -22.867  0.00  0.00    +0.092 C 
ATOM     24  C   UNL     1      32.356  -9.933 -23.450  0.00  0.00    +0.160 C 
ATOM     25  C   UNL     1      32.523  -8.663 -25.499  0.00  0.00    +0.145 C 
ATOM     26  C   UNL     1      31.347  -7.742 -23.600  0.00  0.00    +0.020 C 
ATOM     27  C   UNL     1      31.795  -7.626 -24.916  0.00  0.00    +0.031 C 
BRANCH  23  28
ATOM     28  N   UNL     1      31.168  -9.012 -21.520  0.00  0.00    -0.217 N 
ATOM     29  H   UNL     1      30.304  -9.438 -21.315  0.00  0.00    +0.173 HD
BRANCH  28  30
ATOM     30  S   UNL     1      32.167  -8.386 -20.264  0.00  0.00    +0.054 S 
ATOM     31  O   UNL     1      32.248  -9.378 -19.206  0.00  0.00    -0.154 OA
ATOM     32  O   UNL     1      33.369  -7.789 -20.807  0.00  0.00    -0.154 OA
BRANCH  30  33
ATOM     33  C   UNL     1      31.129  -7.074 -19.662  0.00  0.00    +0.172 C 
BRANCH  33  34
ATOM     34  C   UNL     1      31.513  -5.738 -20.275  0.00  0.00    +0.027 C 
ATOM     35  C   UNL     1      30.374  -5.151 -21.091  0.00  0.00    +0.002 C 
ENDBRANCH  33  34
ENDBRANCH  30  33
ENDBRANCH  28  30
ENDBRANCH  23  28
ENDBRANCH   2  22
TORSDOF 7
ENDMDL
MODEL 6
REMARK VINA RESULT:     -11.6      6.475     10.680
REMARK  Name = 42611257
REMARK  7 active torsions:
REMARK  status: ('A' for Active; 'I' for Inactive)
REMARK    1  A    between atoms: C_2  and  C_6
REMARK    2  A    between atoms: C_2  and  C_22
REMARK    3  A    between atoms: C_10  and  C_14
REMARK    4  A    between atoms: C_23  and  N_28
REMARK    5  A    between atoms: N_28  and  S_30
REMARK    6  A    between atoms: S_30  and  C_33
REMARK    7  A    between atoms: C_33  and  C_34
REMARK                            x       y       z     vdW  Elec       q    Type
REMARK                         _______ _______ _______ _____ _____    ______ ____
ROOT
ATOM      1  O   UNL     1      34.685 -11.123 -24.725  0.00  0.00    -0.286 OA
ATOM      2  C   UNL     1      33.522 -11.580 -24.698  0.00  0.00    +0.201 C 
ENDROOT
BRANCH   2   6
ATOM      3  N   UNL     1      32.267 -13.612 -27.402  0.00  0.00    -0.297 N 
ATOM      4  N   UNL     1      32.605 -15.930 -26.841  0.00  0.00    -0.229 NA
ATOM      5  C   UNL     1      33.235 -14.025 -25.432  0.00  0.00    +0.036 C 
ATOM      6  C   UNL     1      33.114 -12.620 -25.599  0.00  0.00    +0.056 C 
ATOM      7  C   UNL     1      32.698 -14.613 -26.573  0.00  0.00    +0.132 C 
ATOM      8  C   UNL     1      33.740 -14.880 -24.439  0.00  0.00    +0.004 C 
ATOM      9  C   UNL     1      32.515 -12.396 -26.820  0.00  0.00    +0.066 C 
ATOM     10  C   UNL     1      33.668 -16.253 -24.667  0.00  0.00    +0.019 C 
ATOM     11  C   UNL     1      33.106 -16.706 -25.853  0.00  0.00    +0.100 C 
ATOM     12  H   UNL     1      31.845 -13.745 -28.281  0.00  0.00    +0.154 HD
BRANCH  10  14
ATOM     13 CL   UNL     1      35.750 -20.098 -20.622  0.00  0.00    -0.082 Cl
ATOM     14  C   UNL     1      34.172 -17.187 -23.685  0.00  0.00    +0.002 C 
ATOM     15  C   UNL     1      34.076 -18.560 -23.913  0.00  0.00    +0.001 C 
ATOM     16  C   UNL     1      34.755 -16.714 -22.509  0.00  0.00    +0.001 C 
ATOM     17  C   UNL     1      34.565 -19.460 -22.966  0.00  0.00    +0.011 C 
ATOM     18  C   UNL     1      35.242 -17.614 -21.562  0.00  0.00    +0.011 C 
ATOM     19  C   UNL     1      35.148 -18.987 -21.790  0.00  0.00    +0.058 C 
ENDBRANCH  10  14
ENDBRANCH   2   6
BRANCH   2  22
ATOM     20  F   UNL     1      32.618  -8.910 -24.840  0.00  0.00    -0.203 F 
ATOM     21  F   UNL     1      32.543 -13.015 -22.460  0.00  0.00    -0.204 F 
ATOM     22  C   UNL     1      32.601 -10.975 -23.674  0.00  0.00    +0.095 C 
ATOM     23  C   UNL     1      31.339  -9.084 -22.854  0.00  0.00    +0.092 C 
ATOM     24  C   UNL     1      32.192  -9.647 -23.803  0.00  0.00    +0.160 C 
ATOM     25  C   UNL     1      32.157 -11.739 -22.594  0.00  0.00    +0.145 C 
ATOM     26  C   UNL     1      30.894  -9.850 -21.775  0.00  0.00    +0.020 C 
ATOM     27  C   UNL     1      31.303 -11.176 -21.646  0.00  0.00    +0.031 C 
BRANCH  23  28
ATOM     28  N   UNL     1      30.918  -7.726 -22.984  0.00  0.00    -0.217 N 
ATOM     29  H   UNL     1      30.051  -7.502 -23.395  0.00  0.00    +0.173 HD
BRANCH  28  30
ATOM     30  S   UNL     1      31.967  -6.491 -22.403  0.00  0.00    +0.054 S 
ATOM     31  O   UNL     1      33.089  -7.121 -21.731  0.00  0.00    -0.154 OA
ATOM     32  O   UNL     1      32.188  -5.479 -23.416  0.00  0.00    -0.154 OA
BRANCH  30  33
ATOM     33  C   UNL     1      30.942  -5.779 -21.136  0.00  0.00    +0.172 C 
BRANCH  33  34
ATOM     34  C   UNL     1      31.236  -6.392 -19.776  0.00  0.00    +0.027 C 
ATOM     35  C   UNL     1      32.279  -5.589 -19.018  0.00  0.00    +0.002 C 
ENDBRANCH  33  34
ENDBRANCH  30  33
ENDBRANCH  28  30
ENDBRANCH  23  28
ENDBRANCH   2  22
TORSDOF 7
ENDMDL
MODEL 7
REMARK VINA RESULT:     -11.6      5.738     10.040
REMARK  Name = 42611257
REMARK  7 active torsions:
REMARK  status: ('A' for Active; 'I' for Inactive)
REMARK    1  A    between atoms: C_2  and  C_6
REMARK    2  A    between atoms: C_2  and  C_22
REMARK    3  A    between atoms: C_10  and  C_14
REMARK    4  A    between atoms: C_23  and  N_28
REMARK    5  A    between atoms: N_28  and  S_30
REMARK    6  A    between atoms: S_30  and  C_33
REMARK    7  A    between atoms: C_33  and  C_34
REMARK                            x       y       z     vdW  Elec       q    Type
REMARK                         _______ _______ _______ _____ _____    ______ ____
ROOT
ATOM      1  O   UNL     1      34.481 -13.273 -22.657  0.00  0.00    -0.286 OA
ATOM      2  C   UNL     1      33.793 -13.094 -23.685  0.00  0.00    +0.201 C 
ENDROOT
BRANCH   2   6
ATOM      3  N   UNL     1      32.705 -15.296 -26.327  0.00  0.00    -0.297 N 
ATOM      4  N   UNL     1      33.111 -17.570 -25.646  0.00  0.00    -0.229 NA
ATOM      5  C   UNL     1      33.622 -15.579 -24.311  0.00  0.00    +0.036 C 
ATOM      6  C   UNL     1      33.455 -14.189 -24.548  0.00  0.00    +0.056 C 
ATOM      7  C   UNL     1      33.145 -16.240 -25.439  0.00  0.00    +0.132 C 
ATOM      8  C   UNL     1      34.127 -16.367 -23.263  0.00  0.00    +0.004 C 
ATOM      9  C   UNL     1      32.888 -14.045 -25.796  0.00  0.00    +0.066 C 
ATOM     10  C   UNL     1      34.114 -17.751 -23.427  0.00  0.00    +0.019 C 
ATOM     11  C   UNL     1      33.608 -18.280 -24.608  0.00  0.00    +0.100 C 
ATOM     12  H   UNL     1      32.317 -15.486 -27.212  0.00  0.00    +0.154 HD
BRANCH  10  14
ATOM     13 CL   UNL     1      36.194 -21.321 -19.137  0.00  0.00    -0.082 Cl
ATOM     14  C   UNL     1      34.619 -18.618 -22.387  0.00  0.00    +0.002 C 
ATOM     15  C   UNL     1      35.971 -18.584 -22.046  0.00  0.00    +0.001 C 
ATOM     16  C   UNL     1      33.754 -19.489 -21.724  0.00  0.00    +0.001 C 
ATOM     17  C   UNL     1      36.458 -19.419 -21.040  0.00  0.00    +0.011 C 
ATOM     18  C   UNL     1      34.241 -20.324 -20.720  0.00  0.00    +0.011 C 
ATOM     19  C   UNL     1      35.593 -20.290 -20.377  0.00  0.00    +0.058 C 
ENDBRANCH  10  14
ENDBRANCH   2   6
BRANCH   2  22
ATOM     20  F   UNL     1      31.990 -11.712 -22.010  0.00  0.00    -0.203 F 
ATOM     21  F   UNL     1      34.707 -11.581 -25.898  0.00  0.00    -0.204 F 
ATOM     22  C   UNL     1      33.357 -11.678 -23.947  0.00  0.00    +0.095 C 
ATOM     23  C   UNL     1      32.057  -9.740 -23.320  0.00  0.00    +0.092 C 
ATOM     24  C   UNL     1      32.462 -11.053 -23.078  0.00  0.00    +0.160 C 
ATOM     25  C   UNL     1      33.847 -10.990 -25.057  0.00  0.00    +0.145 C 
ATOM     26  C   UNL     1      32.547  -9.052 -24.432  0.00  0.00    +0.020 C 
ATOM     27  C   UNL     1      33.442  -9.678 -25.299  0.00  0.00    +0.031 C 
BRANCH  23  28
ATOM     28  N   UNL     1      31.141  -9.097 -22.433  0.00  0.00    -0.217 N 
ATOM     29  H   UNL     1      30.214  -9.418 -22.344  0.00  0.00    +0.173 HD
BRANCH  28  30
ATOM     30  S   UNL     1      31.703  -7.748 -21.523  0.00  0.00    +0.054 S 
ATOM     31  O   UNL     1      33.150  -7.693 -21.630  0.00  0.00    -0.154 OA
ATOM     32  O   UNL     1      30.900  -6.572 -21.791  0.00  0.00    -0.154 OA
BRANCH  30  33
ATOM     33  C   UNL     1      31.329  -8.302 -19.876  0.00  0.00    +0.172 C 
BRANCH  33  34
ATOM     34  C   UNL     1      30.800  -9.727 -19.878  0.00  0.00    +0.027 C 
ATOM     35  C   UNL     1      31.488 -10.577 -18.823  0.00  0.00    +0.002 C 
ENDBRANCH  33  34
ENDBRANCH  30  33
ENDBRANCH  28  30
ENDBRANCH  23  28
ENDBRANCH   2  22
TORSDOF 7
ENDMDL
MODEL 8
REMARK VINA RESULT:     -11.5      6.356     10.616
REMARK  Name = 42611257
REMARK  7 active torsions:
REMARK  status: ('A' for Active; 'I' for Inactive)
REMARK    1  A    between atoms: C_2  and  C_6
REMARK    2  A    between atoms: C_2  and  C_22
REMARK    3  A    between atoms: C_10  and  C_14
REMARK    4  A    between atoms: C_23  and  N_28
REMARK    5  A    between atoms: N_28  and  S_30
REMARK    6  A    between atoms: S_30  and  C_33
REMARK    7  A    between atoms: C_33  and  C_34
REMARK                            x       y       z     vdW  Elec       q    Type
REMARK                         _______ _______ _______ _____ _____    ______ ____
ROOT
ATOM      1  O   UNL     1      32.687 -12.221 -23.102  0.00  0.00    -0.286 OA
ATOM      2  C   UNL     1      33.007 -11.927 -24.274  0.00  0.00    +0.201 C 
ENDROOT
BRANCH   2   6
ATOM      3  N   UNL     1      32.723 -13.820 -27.331  0.00  0.00    -0.297 N 
ATOM      4  N   UNL     1      33.329 -16.106 -26.876  0.00  0.00    -0.229 NA
ATOM      5  C   UNL     1      33.308 -14.292 -25.228  0.00  0.00    +0.036 C 
ATOM      6  C   UNL     1      32.985 -12.912 -25.316  0.00  0.00    +0.056 C 
ATOM      7  C   UNL     1      33.134 -14.828 -26.500  0.00  0.00    +0.132 C 
ATOM      8  C   UNL     1      33.731 -15.163 -24.211  0.00  0.00    +0.004 C 
ATOM      9  C   UNL     1      32.628 -12.651 -26.622  0.00  0.00    +0.066 C 
ATOM     10  C   UNL     1      33.947 -16.498 -24.547  0.00  0.00    +0.019 C 
ATOM     11  C   UNL     1      33.735 -16.900 -25.859  0.00  0.00    +0.100 C 
ATOM     12  H   UNL     1      32.526 -13.920 -28.290  0.00  0.00    +0.154 HD
BRANCH  10  14
ATOM     13 CL   UNL     1      35.744 -20.403 -20.423  0.00  0.00    -0.082 Cl
ATOM     14  C   UNL     1      34.385 -17.445 -23.546  0.00  0.00    +0.002 C 
ATOM     15  C   UNL     1      34.967 -16.992 -22.363  0.00  0.00    +0.001 C 
ATOM     16  C   UNL     1      34.223 -18.813 -23.765  0.00  0.00    +0.001 C 
ATOM     17  C   UNL     1      35.387 -17.906 -21.397  0.00  0.00    +0.011 C 
ATOM     18  C   UNL     1      34.644 -19.728 -22.800  0.00  0.00    +0.011 C 
ATOM     19  C   UNL     1      35.225 -19.275 -21.615  0.00  0.00    +0.058 C 
ENDBRANCH  10  14
ENDBRANCH   2   6
BRANCH   2  22
ATOM     20  F   UNL     1      31.540  -9.739 -23.260  0.00  0.00    -0.203 F 
ATOM     21  F   UNL     1      35.301 -11.190 -25.763  0.00  0.00    -0.204 F 
ATOM     22  C   UNL     1      33.410 -10.495 -24.505  0.00  0.00    +0.095 C 
ATOM     23  C   UNL     1      33.011  -8.133 -24.191  0.00  0.00    +0.092 C 
ATOM     24  C   UNL     1      32.639  -9.460 -23.976  0.00  0.00    +0.160 C 
ATOM     25  C   UNL     1      34.553 -10.203 -25.250  0.00  0.00    +0.145 C 
ATOM     26  C   UNL     1      34.156  -7.842 -24.935  0.00  0.00    +0.020 C 
ATOM     27  C   UNL     1      34.926  -8.877 -25.464  0.00  0.00    +0.031 C 
BRANCH  23  28
ATOM     28  N   UNL     1      32.225  -7.071 -23.650  0.00  0.00    -0.217 N 
ATOM     29  H   UNL     1      31.537  -6.623 -24.195  0.00  0.00    +0.173 HD
BRANCH  28  30
ATOM     30  S   UNL     1      32.511  -6.597 -22.020  0.00  0.00    +0.054 S 
ATOM     31  O   UNL     1      33.651  -7.343 -21.518  0.00  0.00    -0.154 OA
ATOM     32  O   UNL     1      32.456  -5.156 -21.882  0.00  0.00    -0.154 OA
BRANCH  30  33
ATOM     33  C   UNL     1      31.066  -7.275 -21.238  0.00  0.00    +0.172 C 
BRANCH  33  34
ATOM     34  C   UNL     1      31.415  -7.958 -19.925  0.00  0.00    +0.027 C 
ATOM     35  C   UNL     1      31.041  -9.430 -19.947  0.00  0.00    +0.002 C 
ENDBRANCH  33  34
ENDBRANCH  30  33
ENDBRANCH  28  30
ENDBRANCH  23  28
ENDBRANCH   2  22
TORSDOF 7
ENDMDL
MODEL 9
REMARK VINA RESULT:     -11.4      3.492      5.526
REMARK  Name = 42611257
REMARK  7 active torsions:
REMARK  status: ('A' for Active; 'I' for Inactive)
REMARK    1  A    between atoms: C_2  and  C_6
REMARK    2  A    between atoms: C_2  and  C_22
REMARK    3  A    between atoms: C_10  and  C_14
REMARK    4  A    between atoms: C_23  and  N_28
REMARK    5  A    between atoms: N_28  and  S_30
REMARK    6  A    between atoms: S_30  and  C_33
REMARK    7  A    between atoms: C_33  and  C_34
REMARK                            x       y       z     vdW  Elec       q    Type
REMARK                         _______ _______ _______ _____ _____    ______ ____
ROOT
ATOM      1  O   UNL     1      31.177 -16.595 -26.276  0.00  0.00    -0.286 OA
ATOM      2  C   UNL     1      32.384 -16.317 -26.114  0.00  0.00    +0.201 C 
ENDROOT
BRANCH   2   6
ATOM      3  N   UNL     1      33.872 -13.456 -27.732  0.00  0.00    -0.297 N 
ATOM      4  N   UNL     1      33.766 -11.581 -26.225  0.00  0.00    -0.229 NA
ATOM      5  C   UNL     1      32.928 -13.834 -25.744  0.00  0.00    +0.036 C 
ATOM      6  C   UNL     1      32.907 -15.037 -26.499  0.00  0.00    +0.056 C 
ATOM      7  C   UNL     1      33.536 -12.869 -26.542  0.00  0.00    +0.132 C 
ATOM      8  C   UNL     1      32.500 -13.441 -24.465  0.00  0.00    +0.004 C 
ATOM      9  C   UNL     1      33.495 -14.774 -27.717  0.00  0.00    +0.066 C 
ATOM     10  C   UNL     1      32.715 -12.117 -24.087  0.00  0.00    +0.019 C 
ATOM     11  C   UNL     1      33.334 -11.257 -24.985  0.00  0.00    +0.100 C 
ATOM     12  H   UNL     1      34.317 -13.002 -28.484  0.00  0.00    +0.154 HD
BRANCH  10  14
ATOM     13 CL   UNL     1      30.987 -10.192 -18.722  0.00  0.00    -0.082 Cl
ATOM     14  C   UNL     1      32.297 -11.649 -22.785  0.00  0.00    +0.002 C 
ATOM     15  C   UNL     1      32.156 -10.282 -22.546  0.00  0.00    +0.001 C 
ATOM     16  C   UNL     1      32.033 -12.566 -21.767  0.00  0.00    +0.001 C 
ATOM     17  C   UNL     1      31.751  -9.831 -21.290  0.00  0.00    +0.011 C 
ATOM     18  C   UNL     1      31.629 -12.115 -20.511  0.00  0.00    +0.011 C 
ATOM     19  C   UNL     1      31.487 -10.748 -20.272  0.00  0.00    +0.058 C 
ENDBRANCH  10  14
ENDBRANCH   2   6
BRANCH   2  22
ATOM     20  F   UNL     1      34.234 -15.823 -24.040  0.00  0.00    -0.203 F 
ATOM     21  F   UNL     1      32.267 -19.024 -26.938  0.00  0.00    -0.204 F 
ATOM     22  C   UNL     1      33.232 -17.398 -25.501  0.00  0.00    +0.095 C 
ATOM     23  C   UNL     1      34.915 -18.088 -23.910  0.00  0.00    +0.092 C 
ATOM     24  C   UNL     1      34.128 -17.086 -24.479  0.00  0.00    +0.160 C 
ATOM     25  C   UNL     1      33.124 -18.713 -25.956  0.00  0.00    +0.145 C 
ATOM     26  C   UNL     1      34.806 -19.403 -24.365  0.00  0.00    +0.020 C 
ATOM     27  C   UNL     1      33.910 -19.714 -25.388  0.00  0.00    +0.031 C 
BRANCH  23  28
ATOM     28  N   UNL     1      35.832 -17.771 -22.863  0.00  0.00    -0.217 N 
ATOM     29  H   UNL     1      36.742 -17.452 -23.066  0.00  0.00    +0.173 HD
BRANCH  28  30
ATOM     30  S   UNL     1      35.304 -17.962 -21.235  0.00  0.00    +0.054 S 
ATOM     31  O   UNL     1      36.304 -18.731 -20.516  0.00  0.00    -0.154 OA
ATOM     32  O   UNL     1      34.813 -16.709 -20.699  0.00  0.00    -0.154 OA
BRANCH  30  33
ATOM     33  C   UNL     1      33.908 -19.035 -21.482  0.00  0.00    +0.172 C 
BRANCH  33  34
ATOM     34  C   UNL     1      33.975 -20.250 -20.572  0.00  0.00    +0.027 C 
ATOM     35  C   UNL     1      32.592 -20.681 -20.115  0.00  0.00    +0.002 C 
ENDBRANCH  33  34
ENDBRANCH  30  33
ENDBRANCH  28  30
ENDBRANCH  23  28
ENDBRANCH   2  22
TORSDOF 7
ENDMDL
