MODEL 1
REMARK VINA RESULT:     -12.9      0.000      0.000
REMARK  Name = 46937081
REMARK  6 active torsions:
REMARK  status: ('A' for Active; 'I' for Inactive)
REMARK    1  A    between atoms: N_1  and  C_10
REMARK    2  A    between atoms: C_4  and  C_16
REMARK    3  A    between atoms: C_9  and  C_31
REMARK    4  A    between atoms: C_16  and  C_17
REMARK    5  A    between atoms: C_18  and  N_23
REMARK    6  A    between atoms: C_31  and  N_32
REMARK                            x       y       z     vdW  Elec       q    Type
REMARK                         _______ _______ _______ _____ _____    ______ ____
ROOT
ATOM      1  N   UNL     1      33.713 -23.314 -15.358  0.00  0.00    -0.267 N 
ATOM      2  N   UNL     1      34.832 -23.488 -13.228  0.00  0.00    -0.341 NA
ATOM      3  N   UNL     1      37.256 -23.349 -13.415  0.00  0.00    -0.188 NA
ATOM      4  C   UNL     1      34.085 -23.153 -16.667  0.00  0.00    +0.035 C 
ATOM      5  C   UNL     1      34.830 -23.344 -14.565  0.00  0.00    +0.199 C 
ATOM      6  C   UNL     1      35.941 -23.200 -15.386  0.00  0.00    +0.066 C 
ATOM      7  C   UNL     1      35.461 -23.080 -16.715  0.00  0.00    +0.016 C 
ATOM      8  C   UNL     1      37.187 -23.207 -14.760  0.00  0.00    +0.114 C 
ATOM      9  C   UNL     1      36.090 -23.479 -12.742  0.00  0.00    +0.042 C 
ENDROOT
BRANCH   1  10
ATOM     10  C   UNL     1      32.286 -23.440 -14.856  0.00  0.00    +0.079 C 
ATOM     11  C   UNL     1      31.261 -23.089 -15.948  0.00  0.00    +0.020 C 
ATOM     12  C   UNL     1      32.007 -24.834 -14.267  0.00  0.00    +0.020 C 
ATOM     13  C   UNL     1      29.828 -23.209 -15.430  0.00  0.00    +0.002 C 
ATOM     14  C   UNL     1      30.573 -24.948 -13.756  0.00  0.00    +0.002 C 
ATOM     15  C   UNL     1      29.558 -24.590 -14.839  0.00  0.00    +0.000 C 
ENDBRANCH   1  10
BRANCH   4  16
ATOM     16  C   UNL     1      33.071 -23.081 -17.792  0.00  0.00    +0.068 C 
BRANCH  16  17
ATOM     17  C   UNL     1      33.361 -22.022 -18.801  0.00  0.00    -0.016 C 
ATOM     18  C   UNL     1      33.905 -20.041 -20.688  0.00  0.00    +0.048 C 
ATOM     19  C   UNL     1      32.319 -21.266 -19.338  0.00  0.00    -0.003 C 
ATOM     20  C   UNL     1      34.674 -21.788 -19.207  0.00  0.00    -0.003 C 
ATOM     21  C   UNL     1      32.591 -20.275 -20.281  0.00  0.00    +0.014 C 
ATOM     22  C   UNL     1      34.947 -20.797 -20.152  0.00  0.00    +0.014 C 
BRANCH  18  23
ATOM     23  N   UNL     1      34.178 -19.047 -21.635  0.00  0.00    -0.312 N 
ATOM     24  N   UNL     1      34.983 -17.093 -23.556  0.00  0.00    +0.388 N 
ATOM     25  C   UNL     1      34.214 -19.389 -23.060  0.00  0.00    +0.068 C 
ATOM     26  C   UNL     1      35.034 -17.925 -21.230  0.00  0.00    +0.068 C 
ATOM     27  C   UNL     1      34.811 -16.721 -22.147  0.00  0.00    -0.056 C 
ATOM     28  C   UNL     1      34.018 -18.138 -23.919  0.00  0.00    -0.056 C 
ATOM     29  C   UNL     1      34.821 -15.924 -24.419  0.00  0.00    -0.101 C 
ATOM     30  H   UNL     1      35.927 -17.457 -23.688  0.00  0.00    -0.080 HD
ENDBRANCH  18  23
ENDBRANCH  16  17
ENDBRANCH   4  16
BRANCH   9  31
ATOM     31  C   UNL     1      36.213 -23.633 -11.263  0.00  0.00    +0.030 C 
BRANCH  31  32
ATOM     32  N   UNL     1      35.229 -24.569 -10.718  0.00  0.00    +0.390 N 
ATOM     33  H   UNL     1      34.395 -24.055 -10.430  0.00  0.00    -0.088 HD
ATOM     34  H   UNL     1      35.627 -25.049  -9.912  0.00  0.00    -0.088 HD
ATOM     35  H   UNL     1      34.979 -25.253 -11.432  0.00  0.00    -0.088 HD
ENDBRANCH  31  32
ENDBRANCH   9  31
TORSDOF 6
ENDMDL
MODEL 2
REMARK VINA RESULT:     -11.9      1.801      4.079
REMARK  Name = 46937081
REMARK  6 active torsions:
REMARK  status: ('A' for Active; 'I' for Inactive)
REMARK    1  A    between atoms: N_1  and  C_10
REMARK    2  A    between atoms: C_4  and  C_16
REMARK    3  A    between atoms: C_9  and  C_31
REMARK    4  A    between atoms: C_16  and  C_17
REMARK    5  A    between atoms: C_18  and  N_23
REMARK    6  A    between atoms: C_31  and  N_32
REMARK                            x       y       z     vdW  Elec       q    Type
REMARK                         _______ _______ _______ _____ _____    ______ ____
ROOT
ATOM      1  N   UNL     1      34.007 -23.212 -16.622  0.00  0.00    -0.267 N 
ATOM      2  N   UNL     1      32.396 -24.061 -15.040  0.00  0.00    -0.341 NA
ATOM      3  N   UNL     1      30.095 -23.601 -15.689  0.00  0.00    -0.188 NA
ATOM      4  C   UNL     1      33.971 -22.530 -17.809  0.00  0.00    +0.035 C 
ATOM      5  C   UNL     1      32.729 -23.421 -16.175  0.00  0.00    +0.199 C 
ATOM      6  C   UNL     1      31.856 -22.859 -17.098  0.00  0.00    +0.066 C 
ATOM      7  C   UNL     1      32.650 -22.297 -18.130  0.00  0.00    +0.016 C 
ATOM      8  C   UNL     1      30.494 -22.968 -16.817  0.00  0.00    +0.114 C 
ATOM      9  C   UNL     1      31.057 -24.101 -14.882  0.00  0.00    +0.042 C 
ENDROOT
BRANCH   1  10
ATOM     10  C   UNL     1      35.265 -23.668 -15.905  0.00  0.00    +0.079 C 
ATOM     11  C   UNL     1      35.562 -22.809 -14.664  0.00  0.00    +0.020 C 
ATOM     12  C   UNL     1      35.206 -25.162 -15.540  0.00  0.00    +0.020 C 
ATOM     13  C   UNL     1      36.836 -23.271 -13.957  0.00  0.00    +0.002 C 
ATOM     14  C   UNL     1      36.481 -25.614 -14.830  0.00  0.00    +0.002 C 
ATOM     15  C   UNL     1      36.777 -24.754 -13.604  0.00  0.00    +0.000 C 
ENDBRANCH   1  10
BRANCH   4  16
ATOM     16  C   UNL     1      35.232 -22.147 -18.560  0.00  0.00    +0.068 C 
BRANCH  16  17
ATOM     17  C   UNL     1      35.015 -21.126 -19.625  0.00  0.00    -0.016 C 
ATOM     18  C   UNL     1      34.611 -19.216 -21.619  0.00  0.00    +0.048 C 
ATOM     19  C   UNL     1      36.097 -20.403 -20.129  0.00  0.00    -0.003 C 
ATOM     20  C   UNL     1      33.732 -20.894 -20.118  0.00  0.00    -0.003 C 
ATOM     21  C   UNL     1      35.895 -19.449 -21.126  0.00  0.00    +0.014 C 
ATOM     22  C   UNL     1      33.529 -19.939 -21.115  0.00  0.00    +0.014 C 
BRANCH  18  23
ATOM     23  N   UNL     1      34.408 -18.259 -22.619  0.00  0.00    -0.312 N 
ATOM     24  N   UNL     1      34.247 -16.325 -24.714  0.00  0.00    +0.388 N 
ATOM     25  C   UNL     1      34.157 -18.689 -23.998  0.00  0.00    +0.068 C 
ATOM     26  C   UNL     1      35.068 -16.957 -22.470  0.00  0.00    +0.068 C 
ATOM     27  C   UNL     1      34.358 -15.896 -23.315  0.00  0.00    -0.056 C 
ATOM     28  C   UNL     1      33.478 -17.573 -24.794  0.00  0.00    -0.056 C 
ATOM     29  C   UNL     1      33.616 -15.282 -25.522  0.00  0.00    -0.101 C 
ATOM     30  H   UNL     1      35.182 -16.491 -25.084  0.00  0.00    -0.080 HD
ENDBRANCH  18  23
ENDBRANCH  16  17
ENDBRANCH   4  16
BRANCH   9  31
ATOM     31  C   UNL     1      30.572 -24.790 -13.650  0.00  0.00    +0.030 C 
BRANCH  31  32
ATOM     32  N   UNL     1      29.303 -25.487 -13.866  0.00  0.00    +0.390 N 
ATOM     33  H   UNL     1      28.658 -25.261 -13.108  0.00  0.00    -0.088 HD
ATOM     34  H   UNL     1      29.467 -26.493 -13.885  0.00  0.00    -0.088 HD
ATOM     35  H   UNL     1      28.900 -25.191 -14.756  0.00  0.00    -0.088 HD
ENDBRANCH  31  32
ENDBRANCH   9  31
TORSDOF 6
ENDMDL
MODEL 3
REMARK VINA RESULT:     -11.5      2.338     10.723
REMARK  Name = 46937081
REMARK  6 active torsions:
REMARK  status: ('A' for Active; 'I' for Inactive)
REMARK    1  A    between atoms: N_1  and  C_10
REMARK    2  A    between atoms: C_4  and  C_16
REMARK    3  A    between atoms: C_9  and  C_31
REMARK    4  A    between atoms: C_16  and  C_17
REMARK    5  A    between atoms: C_18  and  N_23
REMARK    6  A    between atoms: C_31  and  N_32
REMARK                            x       y       z     vdW  Elec       q    Type
REMARK                         _______ _______ _______ _____ _____    ______ ____
ROOT
ATOM      1  N   UNL     1      34.106 -16.860 -23.610  0.00  0.00    -0.267 N 
ATOM      2  N   UNL     1      33.660 -14.503 -23.864  0.00  0.00    -0.341 NA
ATOM      3  N   UNL     1      34.224 -13.211 -21.879  0.00  0.00    -0.188 NA
ATOM      4  C   UNL     1      34.602 -17.678 -22.629  0.00  0.00    +0.035 C 
ATOM      5  C   UNL     1      34.086 -15.566 -23.159  0.00  0.00    +0.199 C 
ATOM      6  C   UNL     1      34.580 -15.557 -21.861  0.00  0.00    +0.066 C 
ATOM      7  C   UNL     1      34.905 -16.899 -21.533  0.00  0.00    +0.016 C 
ATOM      8  C   UNL     1      34.638 -14.319 -21.222  0.00  0.00    +0.114 C 
ATOM      9  C   UNL     1      33.766 -13.369 -23.141  0.00  0.00    +0.042 C 
ENDROOT
BRANCH   1  10
ATOM     10  C   UNL     1      33.647 -17.309 -24.985  0.00  0.00    +0.079 C 
ATOM     11  C   UNL     1      32.663 -18.489 -24.904  0.00  0.00    +0.020 C 
ATOM     12  C   UNL     1      33.048 -16.148 -25.797  0.00  0.00    +0.020 C 
ATOM     13  C   UNL     1      32.217 -18.941 -26.294  0.00  0.00    +0.002 C 
ATOM     14  C   UNL     1      32.599 -16.608 -27.183  0.00  0.00    +0.002 C 
ATOM     15  C   UNL     1      31.631 -17.785 -27.100  0.00  0.00    +0.000 C 
ENDBRANCH   1  10
BRANCH   4  16
ATOM     16  C   UNL     1      34.751 -19.174 -22.825  0.00  0.00    +0.068 C 
BRANCH  16  17
ATOM     17  C   UNL     1      34.608 -19.966 -21.569  0.00  0.00    -0.016 C 
ATOM     18  C   UNL     1      34.342 -21.445 -19.219  0.00  0.00    +0.048 C 
ATOM     19  C   UNL     1      35.739 -20.493 -20.945  0.00  0.00    -0.003 C 
ATOM     20  C   UNL     1      33.345 -20.177 -21.019  0.00  0.00    -0.003 C 
ATOM     21  C   UNL     1      35.606 -21.232 -19.770  0.00  0.00    +0.014 C 
ATOM     22  C   UNL     1      33.211 -20.917 -19.843  0.00  0.00    +0.014 C 
BRANCH  18  23
ATOM     23  N   UNL     1      34.208 -22.186 -18.040  0.00  0.00    -0.312 N 
ATOM     24  N   UNL     1      33.990 -23.911 -15.774  0.00  0.00    +0.388 N 
ATOM     25  C   UNL     1      35.394 -22.497 -17.237  0.00  0.00    +0.068 C 
ATOM     26  C   UNL     1      33.113 -23.161 -17.959  0.00  0.00    +0.068 C 
ATOM     27  C   UNL     1      32.788 -23.484 -16.499  0.00  0.00    -0.056 C 
ATOM     28  C   UNL     1      34.996 -22.842 -15.800  0.00  0.00    -0.056 C 
ATOM     29  C   UNL     1      33.658 -24.268 -14.395  0.00  0.00    -0.101 C 
ATOM     30  H   UNL     1      34.376 -24.737 -16.232  0.00  0.00    -0.080 HD
ENDBRANCH  18  23
ENDBRANCH  16  17
ENDBRANCH   4  16
BRANCH   9  31
ATOM     31  C   UNL     1      33.320 -12.120 -23.827  0.00  0.00    +0.030 C 
BRANCH  31  32
ATOM     32  N   UNL     1      34.445 -11.319 -24.310  0.00  0.00    +0.390 N 
ATOM     33  H   UNL     1      34.140 -10.745 -25.097  0.00  0.00    -0.088 HD
ATOM     34  H   UNL     1      35.197 -11.937 -24.612  0.00  0.00    -0.088 HD
ATOM     35  H   UNL     1      34.780 -10.716 -23.559  0.00  0.00    -0.088 HD
ENDBRANCH  31  32
ENDBRANCH   9  31
TORSDOF 6
ENDMDL
MODEL 4
REMARK VINA RESULT:     -11.2      5.788     13.432
REMARK  Name = 46937081
REMARK  6 active torsions:
REMARK  status: ('A' for Active; 'I' for Inactive)
REMARK    1  A    between atoms: N_1  and  C_10
REMARK    2  A    between atoms: C_4  and  C_16
REMARK    3  A    between atoms: C_9  and  C_31
REMARK    4  A    between atoms: C_16  and  C_17
REMARK    5  A    between atoms: C_18  and  N_23
REMARK    6  A    between atoms: C_31  and  N_32
REMARK                            x       y       z     vdW  Elec       q    Type
REMARK                         _______ _______ _______ _____ _____    ______ ____
ROOT
ATOM      1  N   UNL     1      32.881 -10.894 -23.613  0.00  0.00    -0.267 N 
ATOM      2  N   UNL     1      32.095  -8.888 -22.529  0.00  0.00    -0.341 NA
ATOM      3  N   UNL     1      30.795  -9.342 -20.520  0.00  0.00    -0.188 NA
ATOM      4  C   UNL     1      32.790 -12.244 -23.394  0.00  0.00    +0.035 C 
ATOM      5  C   UNL     1      32.208 -10.224 -22.625  0.00  0.00    +0.199 C 
ATOM      6  C   UNL     1      31.676 -11.168 -21.756  0.00  0.00    +0.066 C 
ATOM      7  C   UNL     1      32.049 -12.444 -22.250  0.00  0.00    +0.016 C 
ATOM      8  C   UNL     1      30.946 -10.678 -20.673  0.00  0.00    +0.114 C 
ATOM      9  C   UNL     1      31.370  -8.541 -21.445  0.00  0.00    +0.042 C 
ENDROOT
BRANCH   1  10
ATOM     10  C   UNL     1      33.611 -10.235 -24.769  0.00  0.00    +0.079 C 
ATOM     11  C   UNL     1      32.766  -9.130 -25.426  0.00  0.00    +0.020 C 
ATOM     12  C   UNL     1      34.989  -9.697 -24.345  0.00  0.00    +0.020 C 
ATOM     13  C   UNL     1      33.507  -8.481 -26.595  0.00  0.00    +0.002 C 
ATOM     14  C   UNL     1      35.720  -9.046 -25.517  0.00  0.00    +0.002 C 
ATOM     15  C   UNL     1      34.876  -7.955 -26.171  0.00  0.00    +0.000 C 
ENDBRANCH   1  10
BRANCH   4  16
ATOM     16  C   UNL     1      33.437 -13.257 -24.320  0.00  0.00    +0.068 C 
BRANCH  16  17
ATOM     17  C   UNL     1      33.819 -14.532 -23.648  0.00  0.00    -0.016 C 
ATOM     18  C   UNL     1      34.536 -16.918 -22.392  0.00  0.00    +0.048 C 
ATOM     19  C   UNL     1      33.768 -15.735 -24.353  0.00  0.00    -0.003 C 
ATOM     20  C   UNL     1      34.229 -14.522 -22.315  0.00  0.00    -0.003 C 
ATOM     21  C   UNL     1      34.127 -16.927 -23.725  0.00  0.00    +0.014 C 
ATOM     22  C   UNL     1      34.587 -15.715 -21.686  0.00  0.00    +0.014 C 
BRANCH  18  23
ATOM     23  N   UNL     1      34.896 -18.114 -21.761  0.00  0.00    -0.312 N 
ATOM     24  N   UNL     1      35.610 -20.671 -20.706  0.00  0.00    +0.388 N 
ATOM     25  C   UNL     1      36.298 -18.544 -21.764  0.00  0.00    +0.068 C 
ATOM     26  C   UNL     1      33.901 -19.191 -21.708  0.00  0.00    +0.068 C 
ATOM     27  C   UNL     1      34.234 -20.174 -20.582  0.00  0.00    -0.056 C 
ATOM     28  C   UNL     1      36.554 -19.548 -20.638  0.00  0.00    -0.056 C 
ATOM     29  C   UNL     1      35.899 -21.649 -19.659  0.00  0.00    -0.101 C 
ATOM     30  H   UNL     1      35.713 -21.132 -21.610  0.00  0.00    -0.080 HD
ENDBRANCH  18  23
ENDBRANCH  16  17
ENDBRANCH   4  16
BRANCH   9  31
ATOM     31  C   UNL     1      31.179  -7.075 -21.238  0.00  0.00    +0.030 C 
BRANCH  31  32
ATOM     32  N   UNL     1      31.360  -6.683 -19.840  0.00  0.00    +0.390 N 
ATOM     33  H   UNL     1      31.203  -7.492 -19.237  0.00  0.00    -0.088 HD
ATOM     34  H   UNL     1      30.693  -5.949 -19.604  0.00  0.00    -0.088 HD
ATOM     35  H   UNL     1      32.309  -6.336 -19.704  0.00  0.00    -0.088 HD
ENDBRANCH  31  32
ENDBRANCH   9  31
TORSDOF 6
ENDMDL
MODEL 5
REMARK VINA RESULT:     -10.7     11.339     16.191
REMARK  Name = 46937081
REMARK  6 active torsions:
REMARK  status: ('A' for Active; 'I' for Inactive)
REMARK    1  A    between atoms: N_1  and  C_10
REMARK    2  A    between atoms: C_4  and  C_16
REMARK    3  A    between atoms: C_9  and  C_31
REMARK    4  A    between atoms: C_16  and  C_17
REMARK    5  A    between atoms: C_18  and  N_23
REMARK    6  A    between atoms: C_31  and  N_32
REMARK                            x       y       z     vdW  Elec       q    Type
REMARK                         _______ _______ _______ _____ _____    ______ ____
ROOT
ATOM      1  N   UNL     1      33.290  -7.387 -24.121  0.00  0.00    -0.267 N 
ATOM      2  N   UNL     1      31.592  -5.676 -24.045  0.00  0.00    -0.341 NA
ATOM      3  N   UNL     1      31.599  -4.243 -26.013  0.00  0.00    -0.188 NA
ATOM      4  C   UNL     1      34.273  -7.774 -24.993  0.00  0.00    +0.035 C 
ATOM      5  C   UNL     1      32.619  -6.310 -24.637  0.00  0.00    +0.199 C 
ATOM      6  C   UNL     1      33.185  -6.003 -25.868  0.00  0.00    +0.066 C 
ATOM      7  C   UNL     1      34.232  -6.935 -26.086  0.00  0.00    +0.016 C 
ATOM      8  C   UNL     1      32.635  -4.923 -26.558  0.00  0.00    +0.114 C 
ATOM      9  C   UNL     1      31.148  -4.655 -24.807  0.00  0.00    +0.042 C 
ENDROOT
BRANCH   1  10
ATOM     10  C   UNL     1      32.986  -8.044 -22.787  0.00  0.00    +0.079 C 
ATOM     11  C   UNL     1      32.908  -7.015 -21.645  0.00  0.00    +0.020 C 
ATOM     12  C   UNL     1      31.708  -8.898 -22.846  0.00  0.00    +0.020 C 
ATOM     13  C   UNL     1      32.613  -7.687 -20.306  0.00  0.00    +0.002 C 
ATOM     14  C   UNL     1      31.416  -9.562 -21.502  0.00  0.00    +0.002 C 
ATOM     15  C   UNL     1      31.349  -8.540 -20.371  0.00  0.00    +0.000 C 
ENDBRANCH   1  10
BRANCH   4  16
ATOM     16  C   UNL     1      35.193  -8.945 -24.705  0.00  0.00    +0.068 C 
BRANCH  16  17
ATOM     17  C   UNL     1      34.620 -10.271 -25.075  0.00  0.00    -0.016 C 
ATOM     18  C   UNL     1      33.545 -12.751 -25.768  0.00  0.00    +0.048 C 
ATOM     19  C   UNL     1      34.208 -11.156 -24.078  0.00  0.00    -0.003 C 
ATOM     20  C   UNL     1      34.494 -10.625 -26.418  0.00  0.00    -0.003 C 
ATOM     21  C   UNL     1      33.671 -12.395 -24.424  0.00  0.00    +0.014 C 
ATOM     22  C   UNL     1      33.957 -11.866 -26.765  0.00  0.00    +0.014 C 
BRANCH  18  23
ATOM     23  N   UNL     1      33.006 -13.994 -26.115  0.00  0.00    -0.312 N 
ATOM     24  N   UNL     1      31.723 -16.490 -26.646  0.00  0.00    +0.388 N 
ATOM     25  C   UNL     1      31.921 -14.067 -27.098  0.00  0.00    +0.068 C 
ATOM     26  C   UNL     1      33.021 -15.059 -25.105  0.00  0.00    +0.068 C 
ATOM     27  C   UNL     1      32.899 -16.432 -25.770  0.00  0.00    -0.056 C 
ATOM     28  C   UNL     1      31.833 -15.472 -27.699  0.00  0.00    -0.056 C 
ATOM     29  C   UNL     1      31.586 -17.822 -27.233  0.00  0.00    -0.101 C 
ATOM     30  H   UNL     1      30.889 -16.300 -26.091  0.00  0.00    -0.080 HD
ENDBRANCH  18  23
ENDBRANCH  16  17
ENDBRANCH   4  16
BRANCH   9  31
ATOM     31  C   UNL     1      30.006  -3.877 -24.245  0.00  0.00    +0.030 C 
BRANCH  31  32
ATOM     32  N   UNL     1      29.147  -3.317 -25.289  0.00  0.00    +0.390 N 
ATOM     33  H   UNL     1      29.651  -3.312 -26.177  0.00  0.00    -0.088 HD
ATOM     34  H   UNL     1      28.886  -2.364 -25.041  0.00  0.00    -0.088 HD
ATOM     35  H   UNL     1      28.306  -3.887 -25.379  0.00  0.00    -0.088 HD
ENDBRANCH  31  32
ENDBRANCH   9  31
TORSDOF 6
ENDMDL
MODEL 6
REMARK VINA RESULT:     -10.4      6.428     11.589
REMARK  Name = 46937081
REMARK  6 active torsions:
REMARK  status: ('A' for Active; 'I' for Inactive)
REMARK    1  A    between atoms: N_1  and  C_10
REMARK    2  A    between atoms: C_4  and  C_16
REMARK    3  A    between atoms: C_9  and  C_31
REMARK    4  A    between atoms: C_16  and  C_17
REMARK    5  A    between atoms: C_18  and  N_23
REMARK    6  A    between atoms: C_31  and  N_32
REMARK                            x       y       z     vdW  Elec       q    Type
REMARK                         _______ _______ _______ _____ _____    ______ ____
ROOT
ATOM      1  N   UNL     1      33.860 -15.922 -24.118  0.00  0.00    -0.267 N 
ATOM      2  N   UNL     1      34.256 -17.990 -22.941  0.00  0.00    -0.341 NA
ATOM      3  N   UNL     1      35.015 -17.649 -20.652  0.00  0.00    -0.188 NA
ATOM      4  C   UNL     1      33.948 -14.584 -23.835  0.00  0.00    +0.035 C 
ATOM      5  C   UNL     1      34.228 -16.648 -23.016  0.00  0.00    +0.199 C 
ATOM      6  C   UNL     1      34.559 -15.753 -22.006  0.00  0.00    +0.066 C 
ATOM      7  C   UNL     1      34.379 -14.449 -22.533  0.00  0.00    +0.016 C 
ATOM      8  C   UNL     1      34.964 -16.304 -20.790  0.00  0.00    +0.114 C 
ATOM      9  C   UNL     1      34.663 -18.398 -21.721  0.00  0.00    +0.042 C 
ENDROOT
BRANCH   1  10
ATOM     10  C   UNL     1      33.424 -16.516 -25.445  0.00  0.00    +0.079 C 
ATOM     11  C   UNL     1      32.512 -17.741 -25.253  0.00  0.00    +0.020 C 
ATOM     12  C   UNL     1      32.753 -15.467 -26.349  0.00  0.00    +0.020 C 
ATOM     13  C   UNL     1      32.088 -18.337 -26.594  0.00  0.00    +0.002 C 
ATOM     14  C   UNL     1      32.328 -16.072 -27.686  0.00  0.00    +0.002 C 
ATOM     15  C   UNL     1      31.431 -17.292 -27.492  0.00  0.00    +0.000 C 
ENDBRANCH   1  10
BRANCH   4  16
ATOM     16  C   UNL     1      33.604 -13.518 -24.858  0.00  0.00    +0.068 C 
BRANCH  16  17
ATOM     17  C   UNL     1      33.149 -12.231 -24.260  0.00  0.00    -0.016 C 
ATOM     18  C   UNL     1      32.299  -9.821 -23.140  0.00  0.00    +0.048 C 
ATOM     19  C   UNL     1      32.356 -12.236 -23.113  0.00  0.00    -0.003 C 
ATOM     20  C   UNL     1      33.518 -11.021 -24.847  0.00  0.00    -0.003 C 
ATOM     21  C   UNL     1      31.931 -11.032 -22.552  0.00  0.00    +0.014 C 
ATOM     22  C   UNL     1      33.092  -9.815 -24.288  0.00  0.00    +0.014 C 
BRANCH  18  23
ATOM     23  N   UNL     1      31.873  -8.613 -22.579  0.00  0.00    -0.312 N 
ATOM     24  N   UNL     1      30.817  -6.280 -21.312  0.00  0.00    +0.388 N 
ATOM     25  C   UNL     1      32.344  -8.224 -21.245  0.00  0.00    +0.068 C 
ATOM     26  C   UNL     1      30.549  -8.105 -22.957  0.00  0.00    +0.068 C 
ATOM     27  C   UNL     1      30.457  -6.599 -22.699  0.00  0.00    -0.056 C 
ATOM     28  C   UNL     1      32.193  -6.714 -21.041  0.00  0.00    -0.056 C 
ATOM     29  C   UNL     1      30.673  -4.847 -21.062  0.00  0.00    -0.101 C 
ATOM     30  H   UNL     1      30.186  -6.777 -20.684  0.00  0.00    -0.080 HD
ENDBRANCH  18  23
ENDBRANCH  16  17
ENDBRANCH   4  16
BRANCH   9  31
ATOM     31  C   UNL     1      34.733 -19.876 -21.524  0.00  0.00    +0.030 C 
BRANCH  31  32
ATOM     32  N   UNL     1      35.378 -20.239 -20.262  0.00  0.00    +0.390 N 
ATOM     33  H   UNL     1      34.709 -20.139 -19.497  0.00  0.00    -0.088 HD
ATOM     34  H   UNL     1      36.175 -19.623 -20.099  0.00  0.00    -0.088 HD
ATOM     35  H   UNL     1      35.700 -21.206 -20.309  0.00  0.00    -0.088 HD
ENDBRANCH  31  32
ENDBRANCH   9  31
TORSDOF 6
ENDMDL
MODEL 7
REMARK VINA RESULT:     -10.3     11.444     16.418
REMARK  Name = 46937081
REMARK  6 active torsions:
REMARK  status: ('A' for Active; 'I' for Inactive)
REMARK    1  A    between atoms: N_1  and  C_10
REMARK    2  A    between atoms: C_4  and  C_16
REMARK    3  A    between atoms: C_9  and  C_31
REMARK    4  A    between atoms: C_16  and  C_17
REMARK    5  A    between atoms: C_18  and  N_23
REMARK    6  A    between atoms: C_31  and  N_32
REMARK                            x       y       z     vdW  Elec       q    Type
REMARK                         _______ _______ _______ _____ _____    ______ ____
ROOT
ATOM      1  N   UNL     1      32.778  -6.947 -23.862  0.00  0.00    -0.267 N 
ATOM      2  N   UNL     1      31.083  -5.622 -22.771  0.00  0.00    -0.341 NA
ATOM      3  N   UNL     1      31.125  -5.836 -20.347  0.00  0.00    -0.188 NA
ATOM      4  C   UNL     1      33.777  -7.801 -23.472  0.00  0.00    +0.035 C 
ATOM      5  C   UNL     1      32.118  -6.481 -22.756  0.00  0.00    +0.199 C 
ATOM      6  C   UNL     1      32.707  -7.050 -21.634  0.00  0.00    +0.066 C 
ATOM      7  C   UNL     1      33.756  -7.885 -22.096  0.00  0.00    +0.016 C 
ATOM      8  C   UNL     1      32.169  -6.696 -20.397  0.00  0.00    +0.114 C 
ATOM      9  C   UNL     1      30.653  -5.359 -21.520  0.00  0.00    +0.042 C 
ENDROOT
BRANCH   1  10
ATOM     10  C   UNL     1      32.449  -6.571 -25.295  0.00  0.00    +0.079 C 
ATOM     11  C   UNL     1      31.000  -6.933 -25.665  0.00  0.00    +0.020 C 
ATOM     12  C   UNL     1      32.735  -5.086 -25.578  0.00  0.00    +0.020 C 
ATOM     13  C   UNL     1      30.683  -6.559 -27.112  0.00  0.00    +0.002 C 
ATOM     14  C   UNL     1      32.411  -4.720 -27.025  0.00  0.00    +0.002 C 
ATOM     15  C   UNL     1      30.975  -5.088 -27.391  0.00  0.00    +0.000 C 
ENDBRANCH   1  10
BRANCH   4  16
ATOM     16  C   UNL     1      34.691  -8.484 -24.471  0.00  0.00    +0.068 C 
BRANCH  16  17
ATOM     17  C   UNL     1      34.234  -9.844 -24.878  0.00  0.00    -0.016 C 
ATOM     18  C   UNL     1      33.378 -12.388 -25.639  0.00  0.00    +0.048 C 
ATOM     19  C   UNL     1      33.811 -10.756 -23.910  0.00  0.00    -0.003 C 
ATOM     20  C   UNL     1      34.229 -10.203 -26.225  0.00  0.00    -0.003 C 
ATOM     21  C   UNL     1      33.383 -12.027 -24.291  0.00  0.00    +0.014 C 
ATOM     22  C   UNL     1      33.801 -11.476 -26.606  0.00  0.00    +0.014 C 
BRANCH  18  23
ATOM     23  N   UNL     1      32.949 -13.663 -26.021  0.00  0.00    -0.312 N 
ATOM     24  N   UNL     1      31.882 -16.243 -26.626  0.00  0.00    +0.388 N 
ATOM     25  C   UNL     1      31.897 -13.804 -27.033  0.00  0.00    +0.068 C 
ATOM     26  C   UNL     1      33.023 -14.742 -25.028  0.00  0.00    +0.068 C 
ATOM     27  C   UNL     1      33.028 -16.108 -25.719  0.00  0.00    -0.056 C 
ATOM     28  C   UNL     1      31.937 -15.200 -27.658  0.00  0.00    -0.056 C 
ATOM     29  C   UNL     1      31.866 -17.570 -27.238  0.00  0.00    -0.101 C 
ATOM     30  H   UNL     1      31.022 -16.130 -26.090  0.00  0.00    -0.080 HD
ENDBRANCH  18  23
ENDBRANCH  16  17
ENDBRANCH   4  16
BRANCH   9  31
ATOM     31  C   UNL     1      29.503  -4.413 -21.417  0.00  0.00    +0.030 C 
BRANCH  31  32
ATOM     32  N   UNL     1      29.794  -3.116 -22.027  0.00  0.00    +0.390 N 
ATOM     33  H   UNL     1      30.793  -3.050 -22.226  0.00  0.00    -0.088 HD
ATOM     34  H   UNL     1      29.525  -2.370 -21.386  0.00  0.00    -0.088 HD
ATOM     35  H   UNL     1      29.267  -3.023 -22.896  0.00  0.00    -0.088 HD
ENDBRANCH  31  32
ENDBRANCH   9  31
TORSDOF 6
ENDMDL
MODEL 8
REMARK VINA RESULT:     -10.3     10.196     14.849
REMARK  Name = 46937081
REMARK  6 active torsions:
REMARK  status: ('A' for Active; 'I' for Inactive)
REMARK    1  A    between atoms: N_1  and  C_10
REMARK    2  A    between atoms: C_4  and  C_16
REMARK    3  A    between atoms: C_9  and  C_31
REMARK    4  A    between atoms: C_16  and  C_17
REMARK    5  A    between atoms: C_18  and  N_23
REMARK    6  A    between atoms: C_31  and  N_32
REMARK                            x       y       z     vdW  Elec       q    Type
REMARK                         _______ _______ _______ _____ _____    ______ ____
ROOT
ATOM      1  N   UNL     1      33.714 -12.341 -24.554  0.00  0.00    -0.267 N 
ATOM      2  N   UNL     1      33.079 -14.548 -25.294  0.00  0.00    -0.341 NA
ATOM      3  N   UNL     1      33.034 -14.759 -27.719  0.00  0.00    -0.188 NA
ATOM      4  C   UNL     1      34.064 -11.156 -25.147  0.00  0.00    +0.035 C 
ATOM      5  C   UNL     1      33.450 -13.275 -25.521  0.00  0.00    +0.199 C 
ATOM      6  C   UNL     1      33.635 -12.673 -26.760  0.00  0.00    +0.066 C 
ATOM      7  C   UNL     1      34.024 -11.331 -26.513  0.00  0.00    +0.016 C 
ATOM      8  C   UNL     1      33.410 -13.469 -27.882  0.00  0.00    +0.114 C 
ATOM      9  C   UNL     1      32.893 -15.212 -26.453  0.00  0.00    +0.042 C 
ENDROOT
BRANCH   1  10
ATOM     10  C   UNL     1      33.630 -12.589 -23.059  0.00  0.00    +0.079 C 
ATOM     11  C   UNL     1      32.192 -12.439 -22.533  0.00  0.00    +0.020 C 
ATOM     12  C   UNL     1      34.219 -13.956 -22.671  0.00  0.00    +0.020 C 
ATOM     13  C   UNL     1      32.120 -12.680 -21.026  0.00  0.00    +0.002 C 
ATOM     14  C   UNL     1      34.139 -14.192 -21.164  0.00  0.00    +0.002 C 
ATOM     15  C   UNL     1      32.713 -14.034 -20.644  0.00  0.00    +0.000 C 
ENDBRANCH   1  10
BRANCH   4  16
ATOM     16  C   UNL     1      34.418  -9.923 -24.338  0.00  0.00    +0.068 C 
BRANCH  16  17
ATOM     17  C   UNL     1      33.500  -8.769 -24.561  0.00  0.00    -0.016 C 
ATOM     18  C   UNL     1      31.782  -6.610 -24.977  0.00  0.00    +0.048 C 
ATOM     19  C   UNL     1      32.222  -8.777 -24.002  0.00  0.00    -0.003 C 
ATOM     20  C   UNL     1      33.919  -7.683 -25.327  0.00  0.00    -0.003 C 
ATOM     21  C   UNL     1      31.363  -7.697 -24.209  0.00  0.00    +0.014 C 
ATOM     22  C   UNL     1      33.060  -6.603 -25.536  0.00  0.00    +0.014 C 
BRANCH  18  23
ATOM     23  N   UNL     1      30.921  -5.528 -25.186  0.00  0.00    -0.312 N 
ATOM     24  N   UNL     1      28.973  -3.465 -25.517  0.00  0.00    +0.388 N 
ATOM     25  C   UNL     1      30.638  -4.600 -24.085  0.00  0.00    +0.068 C 
ATOM     26  C   UNL     1      29.852  -5.678 -26.180  0.00  0.00    +0.068 C 
ATOM     27  C   UNL     1      29.363  -4.308 -26.654  0.00  0.00    -0.056 C 
ATOM     28  C   UNL     1      30.123  -3.265 -24.627  0.00  0.00    -0.056 C 
ATOM     29  C   UNL     1      28.457  -2.180 -25.985  0.00  0.00    -0.101 C 
ATOM     30  H   UNL     1      28.232  -3.935 -24.997  0.00  0.00    -0.080 HD
ENDBRANCH  18  23
ENDBRANCH  16  17
ENDBRANCH   4  16
BRANCH   9  31
ATOM     31  C   UNL     1      32.478 -16.640 -26.321  0.00  0.00    +0.030 C 
BRANCH  31  32
ATOM     32  N   UNL     1      31.071 -16.843 -26.671  0.00  0.00    +0.390 N 
ATOM     33  H   UNL     1      30.972 -17.720 -27.184  0.00  0.00    -0.088 HD
ATOM     34  H   UNL     1      30.751 -16.070 -27.254  0.00  0.00    -0.088 HD
ATOM     35  H   UNL     1      30.511 -16.882 -25.819  0.00  0.00    -0.088 HD
ENDBRANCH  31  32
ENDBRANCH   9  31
TORSDOF 6
ENDMDL
MODEL 9
REMARK VINA RESULT:     -10.2      8.953     13.902
REMARK  Name = 46937081
REMARK  6 active torsions:
REMARK  status: ('A' for Active; 'I' for Inactive)
REMARK    1  A    between atoms: N_1  and  C_10
REMARK    2  A    between atoms: C_4  and  C_16
REMARK    3  A    between atoms: C_9  and  C_31
REMARK    4  A    between atoms: C_16  and  C_17
REMARK    5  A    between atoms: C_18  and  N_23
REMARK    6  A    between atoms: C_31  and  N_32
REMARK                            x       y       z     vdW  Elec       q    Type
REMARK                         _______ _______ _______ _____ _____    ______ ____
ROOT
ATOM      1  N   UNL     1      33.666 -13.779 -24.761  0.00  0.00    -0.267 N 
ATOM      2  N   UNL     1      32.663 -15.749 -25.727  0.00  0.00    -0.341 NA
ATOM      3  N   UNL     1      31.355 -15.267 -27.723  0.00  0.00    -0.188 NA
ATOM      4  C   UNL     1      33.697 -12.439 -25.044  0.00  0.00    +0.035 C 
ATOM      5  C   UNL     1      32.905 -14.426 -25.698  0.00  0.00    +0.199 C 
ATOM      6  C   UNL     1      32.439 -13.478 -26.600  0.00  0.00    +0.066 C 
ATOM      7  C   UNL     1      32.945 -12.222 -26.178  0.00  0.00    +0.016 C 
ATOM      8  C   UNL     1      31.636 -13.945 -27.640  0.00  0.00    +0.114 C 
ATOM      9  C   UNL     1      31.878 -16.075 -26.774  0.00  0.00    +0.042 C 
ENDROOT
BRANCH   1  10
ATOM     10  C   UNL     1      34.364 -14.450 -23.592  0.00  0.00    +0.079 C 
ATOM     11  C   UNL     1      33.705 -14.094 -22.249  0.00  0.00    +0.020 C 
ATOM     12  C   UNL     1      34.450 -15.976 -23.776  0.00  0.00    +0.020 C 
ATOM     13  C   UNL     1      34.421 -14.766 -21.079  0.00  0.00    +0.002 C 
ATOM     14  C   UNL     1      35.163 -16.641 -22.600  0.00  0.00    +0.002 C 
ATOM     15  C   UNL     1      34.512 -16.278 -21.268  0.00  0.00    +0.000 C 
ENDBRANCH   1  10
BRANCH   4  16
ATOM     16  C   UNL     1      34.463 -11.450 -24.185  0.00  0.00    +0.068 C 
BRANCH  16  17
ATOM     17  C   UNL     1      33.741 -10.166 -23.952  0.00  0.00    -0.016 C 
ATOM     18  C   UNL     1      32.392  -7.764 -23.514  0.00  0.00    +0.048 C 
ATOM     19  C   UNL     1      32.499 -10.169 -23.317  0.00  0.00    -0.003 C 
ATOM     20  C   UNL     1      34.309  -8.962 -24.367  0.00  0.00    -0.003 C 
ATOM     21  C   UNL     1      31.825  -8.969 -23.097  0.00  0.00    +0.014 C 
ATOM     22  C   UNL     1      33.634  -7.761 -24.149  0.00  0.00    +0.014 C 
BRANCH  18  23
ATOM     23  N   UNL     1      31.716  -6.559 -23.294  0.00  0.00    -0.312 N 
ATOM     24  N   UNL     1      30.228  -4.130 -23.079  0.00  0.00    +0.388 N 
ATOM     25  C   UNL     1      30.354  -6.577 -22.751  0.00  0.00    +0.068 C 
ATOM     26  C   UNL     1      32.039  -5.419 -24.160  0.00  0.00    +0.068 C 
ATOM     27  C   UNL     1      31.637  -4.104 -23.489  0.00  0.00    -0.056 C 
ATOM     28  C   UNL     1      30.005  -5.225 -22.126  0.00  0.00    -0.056 C 
ATOM     29  C   UNL     1      29.841  -2.850 -22.489  0.00  0.00    -0.101 C 
ATOM     30  H   UNL     1      29.648  -4.289 -23.903  0.00  0.00    -0.080 HD
ENDBRANCH  18  23
ENDBRANCH  16  17
ENDBRANCH   4  16
BRANCH   9  31
ATOM     31  C   UNL     1      31.543 -17.524 -26.904  0.00  0.00    +0.030 C 
BRANCH  31  32
ATOM     32  N   UNL     1      31.561 -18.216 -25.616  0.00  0.00    +0.390 N 
ATOM     33  H   UNL     1      31.576 -19.225 -25.772  0.00  0.00    -0.088 HD
ATOM     34  H   UNL     1      30.728 -17.967 -25.084  0.00  0.00    -0.088 HD
ATOM     35  H   UNL     1      32.393 -17.941 -25.093  0.00  0.00    -0.088 HD
ENDBRANCH  31  32
ENDBRANCH   9  31
TORSDOF 6
ENDMDL
