MODEL 1
REMARK VINA RESULT:     -11.6      0.000      0.000
REMARK  Name = 9887812
REMARK  11 active torsions:
REMARK  status: ('A' for Active; 'I' for Inactive)
REMARK    1  A    between atoms: N_1  and  C_3
REMARK    2  A    between atoms: N_1  and  C_19
REMARK    3  A    between atoms: C_4  and  C_9
REMARK    4  A    between atoms: C_12  and  C_16
REMARK    5  A    between atoms: C_16  and  O_17
REMARK    6  A    between atoms: C_19  and  C_20
REMARK    7  A    between atoms: C_20  and  N_21
REMARK    8  A    between atoms: N_21  and  C_24
REMARK    9  A    between atoms: C_24  and  C_25
REMARK   10  A    between atoms: C_25  and  C_27
REMARK   11  A    between atoms: C_25  and  O_33
REMARK                            x       y       z     vdW  Elec       q    Type
REMARK                         _______ _______ _______ _____ _____    ______ ____
ROOT
ATOM      1  N   UNL     1      32.543 -22.120 -18.856  0.00  0.00    -0.335 N 
ATOM      2  H   UNL     1      31.669 -21.907 -19.257  0.00  0.00    +0.147 HD
ENDROOT
BRANCH   1   3
ATOM      3  C   UNL     1      33.695 -21.502 -19.384  0.00  0.00    +0.045 C 
ATOM      4  C   UNL     1      34.710 -19.872 -20.850  0.00  0.00    +0.001 C 
ATOM      5  C   UNL     1      33.570 -20.484 -20.329  0.00  0.00    +0.014 C 
ATOM      6  C   UNL     1      34.960 -21.909 -18.961  0.00  0.00    +0.014 C 
ATOM      7  C   UNL     1      35.976 -20.279 -20.428  0.00  0.00    +0.000 C 
ATOM      8  C   UNL     1      36.100 -21.298 -19.483  0.00  0.00    +0.001 C 
BRANCH   4   9
ATOM      9  C   UNL     1      34.580 -18.817 -21.831  0.00  0.00    +0.000 C 
ATOM     10  C   UNL     1      34.033 -19.092 -23.085  0.00  0.00    +0.006 C 
ATOM     11  C   UNL     1      35.001 -17.523 -21.522  0.00  0.00    +0.000 C 
ATOM     12  C   UNL     1      33.908 -18.074 -24.029  0.00  0.00    +0.075 C 
ATOM     13  C   UNL     1      34.876 -16.505 -22.467  0.00  0.00    +0.000 C 
ATOM     14  C   UNL     1      34.329 -16.780 -23.722  0.00  0.00    +0.006 C 
BRANCH  12  16
ATOM     15  O   UNL     1      33.962 -18.372 -26.403  0.00  0.00    -0.245 OA
ATOM     16  C   UNL     1      33.338 -18.359 -25.336  0.00  0.00    +0.338 C 
BRANCH  16  17
ATOM     17  O   UNL     1      32.003 -18.621 -25.276  0.00  0.00    -0.477 OA
ATOM     18  H   UNL     1      31.594 -19.128 -25.949  0.00  0.00    +0.295 HD
ENDBRANCH  16  17
ENDBRANCH  12  16
ENDBRANCH   4   9
ENDBRANCH   1   3
BRANCH   1  19
ATOM     19  C   UNL     1      32.587 -23.042 -17.763  0.00  0.00    +0.064 C 
BRANCH  19  20
ATOM     20  C   UNL     1      31.350 -22.862 -16.892  0.00  0.00    -0.060 C 
BRANCH  20  21
ATOM     21  N   UNL     1      31.450 -23.685 -15.692  0.00  0.00    +0.387 N 
ATOM     22  H   UNL     1      30.578 -23.615 -15.167  0.00  0.00    -0.084 HD
ATOM     23  H   UNL     1      31.621 -24.650 -15.973  0.00  0.00    -0.084 HD
BRANCH  21  24
ATOM     24  C   UNL     1      32.552 -23.242 -14.849  0.00  0.00    -0.047 C 
BRANCH  24  25
ATOM     25  C   UNL     1      33.394 -24.436 -14.382  0.00  0.00    +0.112 C 
BRANCH  25  27
ATOM     26 CL   UNL     1      38.328 -25.818 -13.494  0.00  0.00    -0.082 Cl
ATOM     27  C   UNL     1      34.868 -24.208 -14.639  0.00  0.00    +0.003 C 
ATOM     28  C   UNL     1      35.796 -25.025 -14.018  0.00  0.00    +0.009 C 
ATOM     29  C   UNL     1      35.255 -23.189 -15.492  0.00  0.00    -0.002 C 
ATOM     30  C   UNL     1      37.155 -24.815 -14.256  0.00  0.00    +0.057 C 
ATOM     31  C   UNL     1      36.613 -22.979 -15.729  0.00  0.00    +0.001 C 
ATOM     32  C   UNL     1      37.563 -23.792 -15.112  0.00  0.00    +0.011 C 
ENDBRANCH  25  27
BRANCH  25  33
ATOM     33  O   UNL     1      33.213 -24.652 -12.984  0.00  0.00    -0.382 OA
ATOM     34  H   UNL     1      33.481 -25.557 -12.759  0.00  0.00    +0.211 HD
ENDBRANCH  25  33
ENDBRANCH  24  25
ENDBRANCH  21  24
ENDBRANCH  20  21
ENDBRANCH  19  20
ENDBRANCH   1  19
TORSDOF 11
ENDMDL
MODEL 2
REMARK VINA RESULT:     -11.4      2.759      4.047
REMARK  Name = 9887812
REMARK  11 active torsions:
REMARK  status: ('A' for Active; 'I' for Inactive)
REMARK    1  A    between atoms: N_1  and  C_3
REMARK    2  A    between atoms: N_1  and  C_19
REMARK    3  A    between atoms: C_4  and  C_9
REMARK    4  A    between atoms: C_12  and  C_16
REMARK    5  A    between atoms: C_16  and  O_17
REMARK    6  A    between atoms: C_19  and  C_20
REMARK    7  A    between atoms: C_20  and  N_21
REMARK    8  A    between atoms: N_21  and  C_24
REMARK    9  A    between atoms: C_24  and  C_25
REMARK   10  A    between atoms: C_25  and  C_27
REMARK   11  A    between atoms: C_25  and  O_33
REMARK                            x       y       z     vdW  Elec       q    Type
REMARK                         _______ _______ _______ _____ _____    ______ ____
ROOT
ATOM      1  N   UNL     1      32.707 -22.241 -19.253  0.00  0.00    -0.335 N 
ATOM      2  H   UNL     1      32.154 -22.677 -19.941  0.00  0.00    +0.147 HD
ENDROOT
BRANCH   1   3
ATOM      3  C   UNL     1      33.830 -21.494 -19.666  0.00  0.00    +0.045 C 
ATOM      4  C   UNL     1      34.784 -19.691 -20.961  0.00  0.00    +0.001 C 
ATOM      5  C   UNL     1      33.672 -20.430 -20.553  0.00  0.00    +0.014 C 
ATOM      6  C   UNL     1      35.099 -21.821 -19.188  0.00  0.00    +0.014 C 
ATOM      7  C   UNL     1      36.053 -20.018 -20.483  0.00  0.00    +0.000 C 
ATOM      8  C   UNL     1      36.210 -21.084 -19.597  0.00  0.00    +0.001 C 
BRANCH   4   9
ATOM      9  C   UNL     1      34.620 -18.587 -21.881  0.00  0.00    +0.000 C 
ATOM     10  C   UNL     1      34.126 -18.817 -23.166  0.00  0.00    +0.006 C 
ATOM     11  C   UNL     1      34.955 -17.293 -21.484  0.00  0.00    +0.000 C 
ATOM     12  C   UNL     1      33.969 -17.752 -24.053  0.00  0.00    +0.075 C 
ATOM     13  C   UNL     1      34.798 -16.228 -22.371  0.00  0.00    +0.000 C 
ATOM     14  C   UNL     1      34.304 -16.457 -23.656  0.00  0.00    +0.006 C 
BRANCH  12  16
ATOM     15  O   UNL     1      34.074 -17.797 -26.443  0.00  0.00    -0.245 OA
ATOM     16  C   UNL     1      33.454 -17.990 -25.392  0.00  0.00    +0.338 C 
BRANCH  16  17
ATOM     17  O   UNL     1      32.176 -18.462 -25.382  0.00  0.00    -0.477 OA
ATOM     18  H   UNL     1      31.828 -18.853 -24.606  0.00  0.00    +0.295 HD
ENDBRANCH  16  17
ENDBRANCH  12  16
ENDBRANCH   4   9
ENDBRANCH   1   3
BRANCH   1  19
ATOM     19  C   UNL     1      32.335 -22.390 -17.880  0.00  0.00    +0.064 C 
BRANCH  19  20
ATOM     20  C   UNL     1      33.078 -23.574 -17.275  0.00  0.00    -0.060 C 
BRANCH  20  21
ATOM     21  N   UNL     1      33.756 -23.173 -16.047  0.00  0.00    +0.387 N 
ATOM     22  H   UNL     1      34.751 -23.379 -16.134  0.00  0.00    -0.084 HD
ATOM     23  H   UNL     1      33.611 -22.174 -15.906  0.00  0.00    -0.084 HD
BRANCH  21  24
ATOM     24  C   UNL     1      33.218 -23.889 -14.899  0.00  0.00    -0.047 C 
BRANCH  24  25
ATOM     25  C   UNL     1      32.061 -23.109 -14.263  0.00  0.00    +0.112 C 
BRANCH  25  27
ATOM     26 CL   UNL     1      27.350 -22.329 -16.324  0.00  0.00    -0.082 Cl
ATOM     27  C   UNL     1      30.719 -23.674 -14.675  0.00  0.00    +0.003 C 
ATOM     28  C   UNL     1      29.775 -22.834 -15.239  0.00  0.00    +0.009 C 
ATOM     29  C   UNL     1      30.465 -25.021 -14.480  0.00  0.00    -0.002 C 
ATOM     30  C   UNL     1      28.539 -23.356 -15.620  0.00  0.00    +0.057 C 
ATOM     31  C   UNL     1      29.229 -25.543 -14.859  0.00  0.00    +0.001 C 
ATOM     32  C   UNL     1      28.266 -24.711 -15.430  0.00  0.00    +0.011 C 
ENDBRANCH  25  27
BRANCH  25  33
ATOM     33  O   UNL     1      32.150 -23.163 -12.841  0.00  0.00    -0.382 OA
ATOM     34  H   UNL     1      32.446 -24.046 -12.569  0.00  0.00    +0.211 HD
ENDBRANCH  25  33
ENDBRANCH  24  25
ENDBRANCH  21  24
ENDBRANCH  20  21
ENDBRANCH  19  20
ENDBRANCH   1  19
TORSDOF 11
ENDMDL
MODEL 3
REMARK VINA RESULT:     -11.3      3.686     10.635
REMARK  Name = 9887812
REMARK  11 active torsions:
REMARK  status: ('A' for Active; 'I' for Inactive)
REMARK    1  A    between atoms: N_1  and  C_3
REMARK    2  A    between atoms: N_1  and  C_19
REMARK    3  A    between atoms: C_4  and  C_9
REMARK    4  A    between atoms: C_12  and  C_16
REMARK    5  A    between atoms: C_16  and  O_17
REMARK    6  A    between atoms: C_19  and  C_20
REMARK    7  A    between atoms: C_20  and  N_21
REMARK    8  A    between atoms: N_21  and  C_24
REMARK    9  A    between atoms: C_24  and  C_25
REMARK   10  A    between atoms: C_25  and  C_27
REMARK   11  A    between atoms: C_25  and  O_33
REMARK                            x       y       z     vdW  Elec       q    Type
REMARK                         _______ _______ _______ _____ _____    ______ ____
ROOT
ATOM      1  N   UNL     1      33.051 -22.941 -18.707  0.00  0.00    -0.335 N 
ATOM      2  H   UNL     1      32.905 -23.668 -19.353  0.00  0.00    +0.147 HD
ENDROOT
BRANCH   1   3
ATOM      3  C   UNL     1      32.798 -23.191 -17.343  0.00  0.00    +0.045 C 
ATOM      4  C   UNL     1      33.561 -23.935 -15.174  0.00  0.00    +0.001 C 
ATOM      5  C   UNL     1      33.812 -23.687 -16.524  0.00  0.00    +0.014 C 
ATOM      6  C   UNL     1      31.532 -22.943 -16.811  0.00  0.00    +0.014 C 
ATOM      7  C   UNL     1      32.295 -23.687 -14.643  0.00  0.00    +0.000 C 
ATOM      8  C   UNL     1      31.280 -23.191 -15.462  0.00  0.00    +0.001 C 
BRANCH   4   9
ATOM      9  C   UNL     1      34.613 -24.450 -14.326  0.00  0.00    +0.000 C 
ATOM     10  C   UNL     1      34.681 -24.066 -12.986  0.00  0.00    +0.006 C 
ATOM     11  C   UNL     1      35.560 -25.331 -14.848  0.00  0.00    +0.000 C 
ATOM     12  C   UNL     1      35.696 -24.563 -12.170  0.00  0.00    +0.075 C 
ATOM     13  C   UNL     1      36.576 -25.828 -14.030  0.00  0.00    +0.000 C 
ATOM     14  C   UNL     1      36.644 -25.444 -12.691  0.00  0.00    +0.006 C 
BRANCH  12  16
ATOM     15  O   UNL     1      35.082 -24.633  -9.858  0.00  0.00    -0.245 OA
ATOM     16  C   UNL     1      35.767 -24.164 -10.773  0.00  0.00    +0.338 C 
BRANCH  16  17
ATOM     17  O   UNL     1      36.692 -23.188 -10.556  0.00  0.00    -0.477 OA
ATOM     18  H   UNL     1      36.798 -22.497 -11.179  0.00  0.00    +0.295 HD
ENDBRANCH  16  17
ENDBRANCH  12  16
ENDBRANCH   4   9
ENDBRANCH   1   3
BRANCH   1  19
ATOM     19  C   UNL     1      33.513 -21.677 -19.193  0.00  0.00    +0.064 C 
BRANCH  19  20
ATOM     20  C   UNL     1      35.014 -21.741 -19.439  0.00  0.00    -0.060 C 
BRANCH  20  21
ATOM     21  N   UNL     1      35.515 -20.440 -19.866  0.00  0.00    +0.387 N 
ATOM     22  H   UNL     1      35.296 -19.747 -19.150  0.00  0.00    -0.084 HD
ATOM     23  H   UNL     1      36.523 -20.507 -20.000  0.00  0.00    -0.084 HD
BRANCH  21  24
ATOM     24  C   UNL     1      34.902 -20.036 -21.124  0.00  0.00    -0.047 C 
BRANCH  24  25
ATOM     25  C   UNL     1      35.475 -18.695 -21.602  0.00  0.00    +0.112 C 
BRANCH  25  27
ATOM     26 CL   UNL     1      33.566 -14.881 -24.577  0.00  0.00    -0.082 Cl
ATOM     27  C   UNL     1      34.854 -18.265 -22.913  0.00  0.00    +0.003 C 
ATOM     28  C   UNL     1      34.538 -16.931 -23.106  0.00  0.00    +0.009 C 
ATOM     29  C   UNL     1      34.616 -19.214 -23.893  0.00  0.00    -0.002 C 
ATOM     30  C   UNL     1      33.967 -16.534 -24.315  0.00  0.00    +0.057 C 
ATOM     31  C   UNL     1      34.045 -18.817 -25.101  0.00  0.00    +0.001 C 
ATOM     32  C   UNL     1      33.720 -17.478 -25.313  0.00  0.00    +0.011 C 
ENDBRANCH  25  27
BRANCH  25  33
ATOM     33  O   UNL     1      35.224 -17.678 -20.635  0.00  0.00    -0.382 OA
ATOM     34  H   UNL     1      34.270 -17.610 -20.476  0.00  0.00    +0.211 HD
ENDBRANCH  25  33
ENDBRANCH  24  25
ENDBRANCH  21  24
ENDBRANCH  20  21
ENDBRANCH  19  20
ENDBRANCH   1  19
TORSDOF 11
ENDMDL
MODEL 4
REMARK VINA RESULT:     -11.2      1.589      2.408
REMARK  Name = 9887812
REMARK  11 active torsions:
REMARK  status: ('A' for Active; 'I' for Inactive)
REMARK    1  A    between atoms: N_1  and  C_3
REMARK    2  A    between atoms: N_1  and  C_19
REMARK    3  A    between atoms: C_4  and  C_9
REMARK    4  A    between atoms: C_12  and  C_16
REMARK    5  A    between atoms: C_16  and  O_17
REMARK    6  A    between atoms: C_19  and  C_20
REMARK    7  A    between atoms: C_20  and  N_21
REMARK    8  A    between atoms: N_21  and  C_24
REMARK    9  A    between atoms: C_24  and  C_25
REMARK   10  A    between atoms: C_25  and  C_27
REMARK   11  A    between atoms: C_25  and  O_33
REMARK                            x       y       z     vdW  Elec       q    Type
REMARK                         _______ _______ _______ _____ _____    ______ ____
ROOT
ATOM      1  N   UNL     1      36.158 -21.793 -18.862  0.00  0.00    -0.335 N 
ATOM      2  H   UNL     1      36.649 -22.527 -19.296  0.00  0.00    +0.147 HD
ENDROOT
BRANCH   1   3
ATOM      3  C   UNL     1      35.049 -21.236 -19.532  0.00  0.00    +0.045 C 
ATOM      4  C   UNL     1      34.137 -19.641 -21.101  0.00  0.00    +0.001 C 
ATOM      5  C   UNL     1      35.234 -20.193 -20.439  0.00  0.00    +0.014 C 
ATOM      6  C   UNL     1      33.767 -21.727 -19.287  0.00  0.00    +0.014 C 
ATOM      7  C   UNL     1      32.854 -20.132 -20.856  0.00  0.00    +0.000 C 
ATOM      8  C   UNL     1      32.670 -21.175 -19.948  0.00  0.00    +0.001 C 
BRANCH   4   9
ATOM      9  C   UNL     1      34.329 -18.559 -22.042  0.00  0.00    +0.000 C 
ATOM     10  C   UNL     1      34.068 -18.758 -23.398  0.00  0.00    +0.006 C 
ATOM     11  C   UNL     1      34.776 -17.316 -21.592  0.00  0.00    +0.000 C 
ATOM     12  C   UNL     1      34.255 -17.714 -24.303  0.00  0.00    +0.075 C 
ATOM     13  C   UNL     1      34.962 -16.272 -22.498  0.00  0.00    +0.000 C 
ATOM     14  C   UNL     1      34.702 -16.471 -23.855  0.00  0.00    +0.006 C 
BRANCH  12  16
ATOM     15  O   UNL     1      33.519 -18.952 -26.214  0.00  0.00    -0.245 OA
ATOM     16  C   UNL     1      33.982 -17.920 -25.717  0.00  0.00    +0.338 C 
BRANCH  16  17
ATOM     17  O   UNL     1      34.296 -16.831 -26.473  0.00  0.00    -0.477 OA
ATOM     18  H   UNL     1      34.628 -16.944 -27.341  0.00  0.00    +0.295 HD
ENDBRANCH  16  17
ENDBRANCH  12  16
ENDBRANCH   4   9
ENDBRANCH   1   3
BRANCH   1  19
ATOM     19  C   UNL     1      36.598 -21.341 -17.578  0.00  0.00    +0.064 C 
BRANCH  19  20
ATOM     20  C   UNL     1      36.571 -22.501 -16.591  0.00  0.00    -0.060 C 
BRANCH  20  21
ATOM     21  N   UNL     1      35.378 -22.430 -15.757  0.00  0.00    +0.387 N 
ATOM     22  H   UNL     1      35.655 -22.227 -14.796  0.00  0.00    -0.084 HD
ATOM     23  H   UNL     1      34.773 -21.692 -16.116  0.00  0.00    -0.084 HD
BRANCH  21  24
ATOM     24  C   UNL     1      34.647 -23.689 -15.787  0.00  0.00    -0.047 C 
BRANCH  24  25
ATOM     25  C   UNL     1      34.436 -24.231 -14.368  0.00  0.00    +0.112 C 
BRANCH  25  27
ATOM     26 CL   UNL     1      39.344 -25.879 -13.884  0.00  0.00    -0.082 Cl
ATOM     27  C   UNL     1      35.727 -24.235 -13.579  0.00  0.00    +0.003 C 
ATOM     28  C   UNL     1      36.803 -24.970 -14.047  0.00  0.00    +0.009 C 
ATOM     29  C   UNL     1      35.806 -23.502 -12.407  0.00  0.00    -0.002 C 
ATOM     30  C   UNL     1      37.994 -24.972 -13.320  0.00  0.00    +0.057 C 
ATOM     31  C   UNL     1      36.996 -23.505 -11.681  0.00  0.00    +0.001 C 
ATOM     32  C   UNL     1      38.090 -24.240 -12.137  0.00  0.00    +0.011 C 
ENDBRANCH  25  27
BRANCH  25  33
ATOM     33  O   UNL     1      33.489 -23.427 -13.667  0.00  0.00    -0.382 OA
ATOM     34  H   UNL     1      33.790 -22.505 -13.659  0.00  0.00    +0.211 HD
ENDBRANCH  25  33
ENDBRANCH  24  25
ENDBRANCH  21  24
ENDBRANCH  20  21
ENDBRANCH  19  20
ENDBRANCH   1  19
TORSDOF 11
ENDMDL
MODEL 5
REMARK VINA RESULT:     -11.1      2.663      4.150
REMARK  Name = 9887812
REMARK  11 active torsions:
REMARK  status: ('A' for Active; 'I' for Inactive)
REMARK    1  A    between atoms: N_1  and  C_3
REMARK    2  A    between atoms: N_1  and  C_19
REMARK    3  A    between atoms: C_4  and  C_9
REMARK    4  A    between atoms: C_12  and  C_16
REMARK    5  A    between atoms: C_16  and  O_17
REMARK    6  A    between atoms: C_19  and  C_20
REMARK    7  A    between atoms: C_20  and  N_21
REMARK    8  A    between atoms: N_21  and  C_24
REMARK    9  A    between atoms: C_24  and  C_25
REMARK   10  A    between atoms: C_25  and  C_27
REMARK   11  A    between atoms: C_25  and  O_33
REMARK                            x       y       z     vdW  Elec       q    Type
REMARK                         _______ _______ _______ _____ _____    ______ ____
ROOT
ATOM      1  N   UNL     1      36.159 -21.970 -18.422  0.00  0.00    -0.335 N 
ATOM      2  H   UNL     1      36.801 -22.546 -18.897  0.00  0.00    +0.147 HD
ENDROOT
BRANCH   1   3
ATOM      3  C   UNL     1      35.058 -21.456 -19.137  0.00  0.00    +0.045 C 
ATOM      4  C   UNL     1      34.159 -19.939 -20.788  0.00  0.00    +0.001 C 
ATOM      5  C   UNL     1      35.249 -20.448 -20.081  0.00  0.00    +0.014 C 
ATOM      6  C   UNL     1      33.777 -21.955 -18.900  0.00  0.00    +0.014 C 
ATOM      7  C   UNL     1      32.878 -20.438 -20.551  0.00  0.00    +0.000 C 
ATOM      8  C   UNL     1      32.688 -21.446 -19.605  0.00  0.00    +0.001 C 
BRANCH   4   9
ATOM      9  C   UNL     1      34.357 -18.892 -21.767  0.00  0.00    +0.000 C 
ATOM     10  C   UNL     1      33.991 -19.102 -23.097  0.00  0.00    +0.006 C 
ATOM     11  C   UNL     1      34.915 -17.674 -21.381  0.00  0.00    +0.000 C 
ATOM     12  C   UNL     1      34.183 -18.093 -24.040  0.00  0.00    +0.075 C 
ATOM     13  C   UNL     1      35.107 -16.664 -22.325  0.00  0.00    +0.000 C 
ATOM     14  C   UNL     1      34.741 -16.874 -23.655  0.00  0.00    +0.006 C 
BRANCH  12  16
ATOM     15  O   UNL     1      33.079 -19.226 -25.836  0.00  0.00    -0.245 OA
ATOM     16  C   UNL     1      33.800 -18.310 -25.427  0.00  0.00    +0.338 C 
BRANCH  16  17
ATOM     17  O   UNL     1      34.330 -17.377 -26.266  0.00  0.00    -0.477 OA
ATOM     18  H   UNL     1      34.079 -16.479 -26.185  0.00  0.00    +0.295 HD
ENDBRANCH  16  17
ENDBRANCH  12  16
ENDBRANCH   4   9
ENDBRANCH   1   3
BRANCH   1  19
ATOM     19  C   UNL     1      36.383 -21.696 -17.036  0.00  0.00    +0.064 C 
BRANCH  19  20
ATOM     20  C   UNL     1      35.949 -22.893 -16.201  0.00  0.00    -0.060 C 
BRANCH  20  21
ATOM     21  N   UNL     1      34.874 -22.514 -15.291  0.00  0.00    +0.387 N 
ATOM     22  H   UNL     1      35.223 -22.541 -14.333  0.00  0.00    -0.084 HD
ATOM     23  H   UNL     1      34.562 -21.573 -15.530  0.00  0.00    -0.084 HD
BRANCH  21  24
ATOM     24  C   UNL     1      33.744 -23.425 -15.414  0.00  0.00    -0.047 C 
BRANCH  24  25
ATOM     25  C   UNL     1      32.727 -23.185 -14.291  0.00  0.00    +0.112 C 
BRANCH  25  27
ATOM     26 CL   UNL     1      28.217 -22.549 -16.800  0.00  0.00    -0.082 Cl
ATOM     27  C   UNL     1      31.362 -23.726 -14.656  0.00  0.00    +0.003 C 
ATOM     28  C   UNL     1      30.528 -22.971 -15.462  0.00  0.00    +0.009 C 
ATOM     29  C   UNL     1      30.978 -24.968 -14.179  0.00  0.00    -0.002 C 
ATOM     30  C   UNL     1      29.270 -23.471 -15.799  0.00  0.00    +0.057 C 
ATOM     31  C   UNL     1      29.720 -25.467 -14.515  0.00  0.00    +0.001 C 
ATOM     32  C   UNL     1      28.867 -24.720 -15.326  0.00  0.00    +0.011 C 
ENDBRANCH  25  27
BRANCH  25  33
ATOM     33  O   UNL     1      33.154 -23.826 -13.091  0.00  0.00    -0.382 OA
ATOM     34  H   UNL     1      32.615 -24.618 -12.937  0.00  0.00    +0.211 HD
ENDBRANCH  25  33
ENDBRANCH  24  25
ENDBRANCH  21  24
ENDBRANCH  20  21
ENDBRANCH  19  20
ENDBRANCH   1  19
TORSDOF 11
ENDMDL
MODEL 6
REMARK VINA RESULT:     -11.0      1.839      2.353
REMARK  Name = 9887812
REMARK  11 active torsions:
REMARK  status: ('A' for Active; 'I' for Inactive)
REMARK    1  A    between atoms: N_1  and  C_3
REMARK    2  A    between atoms: N_1  and  C_19
REMARK    3  A    between atoms: C_4  and  C_9
REMARK    4  A    between atoms: C_12  and  C_16
REMARK    5  A    between atoms: C_16  and  O_17
REMARK    6  A    between atoms: C_19  and  C_20
REMARK    7  A    between atoms: C_20  and  N_21
REMARK    8  A    between atoms: N_21  and  C_24
REMARK    9  A    between atoms: C_24  and  C_25
REMARK   10  A    between atoms: C_25  and  C_27
REMARK   11  A    between atoms: C_25  and  O_33
REMARK                            x       y       z     vdW  Elec       q    Type
REMARK                         _______ _______ _______ _____ _____    ______ ____
ROOT
ATOM      1  N   UNL     1      32.874 -22.397 -18.761  0.00  0.00    -0.335 N 
ATOM      2  H   UNL     1      31.978 -22.123 -19.064  0.00  0.00    +0.147 HD
ENDROOT
BRANCH   1   3
ATOM      3  C   UNL     1      33.994 -21.692 -19.249  0.00  0.00    +0.045 C 
ATOM      4  C   UNL     1      34.941 -20.030 -20.725  0.00  0.00    +0.001 C 
ATOM      5  C   UNL     1      33.833 -20.727 -20.242  0.00  0.00    +0.014 C 
ATOM      6  C   UNL     1      35.263 -21.961 -18.738  0.00  0.00    +0.014 C 
ATOM      7  C   UNL     1      36.211 -20.299 -20.214  0.00  0.00    +0.000 C 
ATOM      8  C   UNL     1      36.372 -21.266 -19.220  0.00  0.00    +0.001 C 
BRANCH   4   9
ATOM      9  C   UNL     1      34.774 -19.030 -21.756  0.00  0.00    +0.000 C 
ATOM     10  C   UNL     1      34.773 -17.675 -21.420  0.00  0.00    +0.006 C 
ATOM     11  C   UNL     1      34.613 -19.419 -23.085  0.00  0.00    +0.000 C 
ATOM     12  C   UNL     1      34.611 -16.711 -22.415  0.00  0.00    +0.075 C 
ATOM     13  C   UNL     1      34.451 -18.455 -24.080  0.00  0.00    +0.000 C 
ATOM     14  C   UNL     1      34.450 -17.100 -23.745  0.00  0.00    +0.006 C 
BRANCH  12  16
ATOM     15  O   UNL     1      34.625 -14.363 -22.873  0.00  0.00    -0.245 OA
ATOM     16  C   UNL     1      34.610 -15.299 -22.067  0.00  0.00    +0.338 C 
BRANCH  16  17
ATOM     17  O   UNL     1      34.592 -15.095 -20.720  0.00  0.00    -0.477 OA
ATOM     18  H   UNL     1      35.057 -14.371 -20.351  0.00  0.00    +0.295 HD
ENDBRANCH  16  17
ENDBRANCH  12  16
ENDBRANCH   4   9
ENDBRANCH   1   3
BRANCH   1  19
ATOM     19  C   UNL     1      32.982 -23.489 -17.844  0.00  0.00    +0.064 C 
BRANCH  19  20
ATOM     20  C   UNL     1      32.023 -23.276 -16.680  0.00  0.00    -0.060 C 
BRANCH  20  21
ATOM     21  N   UNL     1      32.764 -22.955 -15.466  0.00  0.00    +0.387 N 
ATOM     22  H   UNL     1      32.783 -21.942 -15.345  0.00  0.00    -0.084 HD
ATOM     23  H   UNL     1      32.300 -23.399 -14.674  0.00  0.00    -0.084 HD
BRANCH  21  24
ATOM     24  C   UNL     1      34.131 -23.452 -15.544  0.00  0.00    -0.047 C 
BRANCH  24  25
ATOM     25  C   UNL     1      34.328 -24.652 -14.609  0.00  0.00    +0.112 C 
BRANCH  25  27
ATOM     26 CL   UNL     1      39.369 -25.704 -13.883  0.00  0.00    -0.082 Cl
ATOM     27  C   UNL     1      35.573 -24.497 -13.764  0.00  0.00    +0.003 C 
ATOM     28  C   UNL     1      36.748 -25.103 -14.173  0.00  0.00    +0.009 C 
ATOM     29  C   UNL     1      35.511 -23.749 -12.601  0.00  0.00    -0.002 C 
ATOM     30  C   UNL     1      37.896 -24.958 -13.394  0.00  0.00    +0.057 C 
ATOM     31  C   UNL     1      36.659 -23.605 -11.822  0.00  0.00    +0.001 C 
ATOM     32  C   UNL     1      37.851 -24.209 -12.218  0.00  0.00    +0.011 C 
ENDBRANCH  25  27
BRANCH  25  33
ATOM     33  O   UNL     1      33.210 -24.787 -13.735  0.00  0.00    -0.382 OA
ATOM     34  H   UNL     1      33.422 -25.423 -13.034  0.00  0.00    +0.211 HD
ENDBRANCH  25  33
ENDBRANCH  24  25
ENDBRANCH  21  24
ENDBRANCH  20  21
ENDBRANCH  19  20
ENDBRANCH   1  19
TORSDOF 11
ENDMDL
MODEL 7
REMARK VINA RESULT:     -11.0      5.983     11.577
REMARK  Name = 9887812
REMARK  11 active torsions:
REMARK  status: ('A' for Active; 'I' for Inactive)
REMARK    1  A    between atoms: N_1  and  C_3
REMARK    2  A    between atoms: N_1  and  C_19
REMARK    3  A    between atoms: C_4  and  C_9
REMARK    4  A    between atoms: C_12  and  C_16
REMARK    5  A    between atoms: C_16  and  O_17
REMARK    6  A    between atoms: C_19  and  C_20
REMARK    7  A    between atoms: C_20  and  N_21
REMARK    8  A    between atoms: N_21  and  C_24
REMARK    9  A    between atoms: C_24  and  C_25
REMARK   10  A    between atoms: C_25  and  C_27
REMARK   11  A    between atoms: C_25  and  O_33
REMARK                            x       y       z     vdW  Elec       q    Type
REMARK                         _______ _______ _______ _____ _____    ______ ____
ROOT
ATOM      1  N   UNL     1      33.267 -18.108 -25.856  0.00  0.00    -0.335 N 
ATOM      2  H   UNL     1      33.855 -18.494 -26.545  0.00  0.00    +0.147 HD
ENDROOT
BRANCH   1   3
ATOM      3  C   UNL     1      33.836 -17.713 -24.628  0.00  0.00    +0.045 C 
ATOM      4  C   UNL     1      34.693 -18.277 -22.441  0.00  0.00    +0.001 C 
ATOM      5  C   UNL     1      34.130 -18.668 -23.656  0.00  0.00    +0.014 C 
ATOM      6  C   UNL     1      34.103 -16.366 -24.385  0.00  0.00    +0.014 C 
ATOM      7  C   UNL     1      34.960 -16.930 -22.197  0.00  0.00    +0.000 C 
ATOM      8  C   UNL     1      34.665 -15.974 -23.170  0.00  0.00    +0.001 C 
BRANCH   4   9
ATOM      9  C   UNL     1      34.998 -19.268 -21.432  0.00  0.00    +0.000 C 
ATOM     10  C   UNL     1      33.977 -20.050 -20.890  0.00  0.00    +0.006 C 
ATOM     11  C   UNL     1      36.313 -19.443 -21.003  0.00  0.00    +0.000 C 
ATOM     12  C   UNL     1      34.272 -21.005 -19.918  0.00  0.00    +0.075 C 
ATOM     13  C   UNL     1      36.608 -20.399 -20.030  0.00  0.00    +0.000 C 
ATOM     14  C   UNL     1      35.587 -21.180 -19.487  0.00  0.00    +0.006 C 
BRANCH  12  16
ATOM     15  O   UNL     1      32.089 -21.412 -19.026  0.00  0.00    -0.245 OA
ATOM     16  C   UNL     1      33.209 -21.821 -19.353  0.00  0.00    +0.338 C 
BRANCH  16  17
ATOM     17  O   UNL     1      33.573 -23.125 -19.210  0.00  0.00    -0.477 OA
ATOM     18  H   UNL     1      32.922 -23.798 -19.239  0.00  0.00    +0.295 HD
ENDBRANCH  16  17
ENDBRANCH  12  16
ENDBRANCH   4   9
ENDBRANCH   1   3
BRANCH   1  19
ATOM     19  C   UNL     1      31.873 -17.971 -26.147  0.00  0.00    +0.064 C 
BRANCH  19  20
ATOM     20  C   UNL     1      31.691 -17.087 -27.374  0.00  0.00    -0.060 C 
BRANCH  20  21
ATOM     21  N   UNL     1      31.335 -15.731 -26.974  0.00  0.00    +0.387 N 
ATOM     22  H   UNL     1      30.498 -15.443 -27.482  0.00  0.00    -0.084 HD
ATOM     23  H   UNL     1      31.162 -15.722 -25.969  0.00  0.00    -0.084 HD
BRANCH  21  24
ATOM     24  C   UNL     1      32.416 -14.801 -27.270  0.00  0.00    -0.047 C 
BRANCH  24  25
ATOM     25  C   UNL     1      31.945 -13.350 -27.114  0.00  0.00    +0.112 C 
BRANCH  25  27
ATOM     26 CL   UNL     1      35.081  -9.307 -26.190  0.00  0.00    -0.082 Cl
ATOM     27  C   UNL     1      32.818 -12.586 -26.143  0.00  0.00    +0.003 C 
ATOM     28  C   UNL     1      33.464 -11.440 -26.573  0.00  0.00    +0.009 C 
ATOM     29  C   UNL     1      32.951 -13.049 -24.845  0.00  0.00    -0.002 C 
ATOM     30  C   UNL     1      34.268 -10.735 -25.677  0.00  0.00    +0.057 C 
ATOM     31  C   UNL     1      33.756 -12.344 -23.950  0.00  0.00    +0.001 C 
ATOM     32  C   UNL     1      34.414 -11.187 -24.365  0.00  0.00    +0.011 C 
ENDBRANCH  25  27
BRANCH  25  33
ATOM     33  O   UNL     1      31.984 -12.679 -28.372  0.00  0.00    -0.382 OA
ATOM     34  H   UNL     1      31.092 -12.657 -28.755  0.00  0.00    +0.211 HD
ENDBRANCH  25  33
ENDBRANCH  24  25
ENDBRANCH  21  24
ENDBRANCH  20  21
ENDBRANCH  19  20
ENDBRANCH   1  19
TORSDOF 11
ENDMDL
MODEL 8
REMARK VINA RESULT:     -11.0      4.179      9.826
REMARK  Name = 9887812
REMARK  11 active torsions:
REMARK  status: ('A' for Active; 'I' for Inactive)
REMARK    1  A    between atoms: N_1  and  C_3
REMARK    2  A    between atoms: N_1  and  C_19
REMARK    3  A    between atoms: C_4  and  C_9
REMARK    4  A    between atoms: C_12  and  C_16
REMARK    5  A    between atoms: C_16  and  O_17
REMARK    6  A    between atoms: C_19  and  C_20
REMARK    7  A    between atoms: C_20  and  N_21
REMARK    8  A    between atoms: N_21  and  C_24
REMARK    9  A    between atoms: C_24  and  C_25
REMARK   10  A    between atoms: C_25  and  C_27
REMARK   11  A    between atoms: C_25  and  O_33
REMARK                            x       y       z     vdW  Elec       q    Type
REMARK                         _______ _______ _______ _____ _____    ______ ____
ROOT
ATOM      1  N   UNL     1      34.486 -22.399 -19.296  0.00  0.00    -0.335 N 
ATOM      2  H   UNL     1      34.612 -23.152 -19.917  0.00  0.00    +0.147 HD
ENDROOT
BRANCH   1   3
ATOM      3  C   UNL     1      34.178 -22.682 -17.949  0.00  0.00    +0.045 C 
ATOM      4  C   UNL     1      32.574 -23.314 -16.256  0.00  0.00    +0.001 C 
ATOM      5  C   UNL     1      32.878 -23.034 -17.589  0.00  0.00    +0.014 C 
ATOM      6  C   UNL     1      35.174 -22.607 -16.975  0.00  0.00    +0.014 C 
ATOM      7  C   UNL     1      33.570 -23.239 -15.283  0.00  0.00    +0.000 C 
ATOM      8  C   UNL     1      34.871 -22.885 -15.643  0.00  0.00    +0.001 C 
BRANCH   4   9
ATOM      9  C   UNL     1      31.224 -23.679 -15.884  0.00  0.00    +0.000 C 
ATOM     10  C   UNL     1      30.139 -23.134 -16.570  0.00  0.00    +0.006 C 
ATOM     11  C   UNL     1      31.009 -24.577 -14.839  0.00  0.00    +0.000 C 
ATOM     12  C   UNL     1      28.839 -23.486 -16.210  0.00  0.00    +0.075 C 
ATOM     13  C   UNL     1      29.708 -24.929 -14.479  0.00  0.00    +0.000 C 
ATOM     14  C   UNL     1      28.622 -24.384 -15.165  0.00  0.00    +0.006 C 
BRANCH  12  16
ATOM     15  O   UNL     1      27.330 -21.744 -16.854  0.00  0.00    -0.245 OA
ATOM     16  C   UNL     1      27.706 -22.919 -16.925  0.00  0.00    +0.338 C 
BRANCH  16  17
ATOM     17  O   UNL     1      27.074 -23.835 -17.710  0.00  0.00    -0.477 OA
ATOM     18  H   UNL     1      27.573 -24.398 -18.267  0.00  0.00    +0.295 HD
ENDBRANCH  16  17
ENDBRANCH  12  16
ENDBRANCH   4   9
ENDBRANCH   1   3
BRANCH   1  19
ATOM     19  C   UNL     1      34.626 -21.067 -19.798  0.00  0.00    +0.064 C 
BRANCH  19  20
ATOM     20  C   UNL     1      33.261 -20.531 -20.209  0.00  0.00    -0.060 C 
BRANCH  20  21
ATOM     21  N   UNL     1      33.361 -19.804 -21.470  0.00  0.00    +0.387 N 
ATOM     22  H   UNL     1      33.459 -20.474 -22.233  0.00  0.00    -0.084 HD
ATOM     23  H   UNL     1      32.516 -19.247 -21.592  0.00  0.00    -0.084 HD
BRANCH  21  24
ATOM     24  C   UNL     1      34.512 -18.912 -21.466  0.00  0.00    -0.047 C 
BRANCH  24  25
ATOM     25  C   UNL     1      35.148 -18.838 -22.859  0.00  0.00    +0.112 C 
BRANCH  25  27
ATOM     26 CL   UNL     1      31.852 -18.066 -26.807  0.00  0.00    -0.082 Cl
ATOM     27  C   UNL     1      34.407 -17.870 -23.755  0.00  0.00    +0.003 C 
ATOM     28  C   UNL     1      33.576 -18.366 -24.745  0.00  0.00    +0.009 C 
ATOM     29  C   UNL     1      34.575 -16.509 -23.565  0.00  0.00    -0.002 C 
ATOM     30  C   UNL     1      32.892 -17.472 -25.570  0.00  0.00    +0.057 C 
ATOM     31  C   UNL     1      33.892 -15.617 -24.390  0.00  0.00    +0.001 C 
ATOM     32  C   UNL     1      33.050 -16.098 -25.392  0.00  0.00    +0.011 C 
ENDBRANCH  25  27
BRANCH  25  33
ATOM     33  O   UNL     1      36.504 -18.406 -22.761  0.00  0.00    -0.382 OA
ATOM     34  H   UNL     1      36.530 -17.490 -22.443  0.00  0.00    +0.211 HD
ENDBRANCH  25  33
ENDBRANCH  24  25
ENDBRANCH  21  24
ENDBRANCH  20  21
ENDBRANCH  19  20
ENDBRANCH   1  19
TORSDOF 11
ENDMDL
MODEL 9
REMARK VINA RESULT:     -10.9      3.747     10.312
REMARK  Name = 9887812
REMARK  11 active torsions:
REMARK  status: ('A' for Active; 'I' for Inactive)
REMARK    1  A    between atoms: N_1  and  C_3
REMARK    2  A    between atoms: N_1  and  C_19
REMARK    3  A    between atoms: C_4  and  C_9
REMARK    4  A    between atoms: C_12  and  C_16
REMARK    5  A    between atoms: C_16  and  O_17
REMARK    6  A    between atoms: C_19  and  C_20
REMARK    7  A    between atoms: C_20  and  N_21
REMARK    8  A    between atoms: N_21  and  C_24
REMARK    9  A    between atoms: C_24  and  C_25
REMARK   10  A    between atoms: C_25  and  C_27
REMARK   11  A    between atoms: C_25  and  O_33
REMARK                            x       y       z     vdW  Elec       q    Type
REMARK                         _______ _______ _______ _____ _____    ______ ____
ROOT
ATOM      1  N   UNL     1      32.625 -23.112 -17.811  0.00  0.00    -0.335 N 
ATOM      2  H   UNL     1      31.821 -23.332 -18.334  0.00  0.00    +0.147 HD
ENDROOT
BRANCH   1   3
ATOM      3  C   UNL     1      32.623 -23.386 -16.428  0.00  0.00    +0.045 C 
ATOM      4  C   UNL     1      33.807 -24.014 -14.417  0.00  0.00    +0.001 C 
ATOM      5  C   UNL     1      33.809 -23.743 -15.785  0.00  0.00    +0.014 C 
ATOM      6  C   UNL     1      31.435 -23.303 -15.701  0.00  0.00    +0.014 C 
ATOM      7  C   UNL     1      32.619 -23.930 -13.690  0.00  0.00    +0.000 C 
ATOM      8  C   UNL     1      31.432 -23.575 -14.334  0.00  0.00    +0.001 C 
BRANCH   4   9
ATOM      9  C   UNL     1      35.037 -24.384 -13.751  0.00  0.00    +0.000 C 
ATOM     10  C   UNL     1      36.140 -24.794 -14.501  0.00  0.00    +0.006 C 
ATOM     11  C   UNL     1      35.119 -24.330 -12.360  0.00  0.00    +0.000 C 
ATOM     12  C   UNL     1      37.325 -25.150 -13.858  0.00  0.00    +0.075 C 
ATOM     13  C   UNL     1      36.305 -24.687 -11.717  0.00  0.00    +0.000 C 
ATOM     14  C   UNL     1      37.409 -25.097 -12.467  0.00  0.00    +0.006 C 
BRANCH  12  16
ATOM     15  O   UNL     1      38.940 -26.722 -14.663  0.00  0.00    -0.245 OA
ATOM     16  C   UNL     1      38.476 -25.577 -14.638  0.00  0.00    +0.338 C 
BRANCH  16  17
ATOM     17  O   UNL     1      39.017 -24.561 -15.366  0.00  0.00    -0.477 OA
ATOM     18  H   UNL     1      39.480 -24.748 -16.159  0.00  0.00    +0.295 HD
ENDBRANCH  16  17
ENDBRANCH  12  16
ENDBRANCH   4   9
ENDBRANCH   1   3
BRANCH   1  19
ATOM     19  C   UNL     1      33.744 -22.532 -18.487  0.00  0.00    +0.064 C 
BRANCH  19  20
ATOM     20  C   UNL     1      33.251 -21.563 -19.553  0.00  0.00    -0.060 C 
BRANCH  20  21
ATOM     21  N   UNL     1      34.317 -20.646 -19.938  0.00  0.00    +0.387 N 
ATOM     22  H   UNL     1      34.557 -20.060 -19.138  0.00  0.00    -0.084 HD
ATOM     23  H   UNL     1      35.125 -21.192 -20.234  0.00  0.00    -0.084 HD
BRANCH  21  24
ATOM     24  C   UNL     1      33.897 -19.796 -21.043  0.00  0.00    -0.047 C 
BRANCH  24  25
ATOM     25  C   UNL     1      35.076 -18.971 -21.574  0.00  0.00    +0.112 C 
BRANCH  25  27
ATOM     26 CL   UNL     1      32.658 -18.374 -26.139  0.00  0.00    -0.082 Cl
ATOM     27  C   UNL     1      34.649 -18.058 -22.702  0.00  0.00    +0.003 C 
ATOM     28  C   UNL     1      33.938 -18.584 -23.766  0.00  0.00    +0.009 C 
ATOM     29  C   UNL     1      34.978 -16.714 -22.645  0.00  0.00    -0.002 C 
ATOM     30  C   UNL     1      33.544 -17.741 -24.806  0.00  0.00    +0.057 C 
ATOM     31  C   UNL     1      34.584 -15.871 -23.684  0.00  0.00    +0.001 C 
ATOM     32  C   UNL     1      33.867 -16.384 -24.764  0.00  0.00    +0.011 C 
ENDBRANCH  25  27
BRANCH  25  33
ATOM     33  O   UNL     1      35.626 -18.166 -20.533  0.00  0.00    -0.382 OA
ATOM     34  H   UNL     1      34.979 -18.080 -19.815  0.00  0.00    +0.211 HD
ENDBRANCH  25  33
ENDBRANCH  24  25
ENDBRANCH  21  24
ENDBRANCH  20  21
ENDBRANCH  19  20
ENDBRANCH   1  19
TORSDOF 11
ENDMDL
