MODEL 1
REMARK VINA RESULT:     -12.2      0.000      0.000
REMARK  Name = 46892373
REMARK  3 active torsions:
REMARK  status: ('A' for Active; 'I' for Inactive)
REMARK    1  A    between atoms: C_7  and  C_20
REMARK    2  A    between atoms: C_20  and  C_22
REMARK    3  A    between atoms: C_20  and  O_28
REMARK                            x       y       z     vdW  Elec       q    Type
REMARK                         _______ _______ _______ _____ _____    ______ ____
ROOT
ATOM      1  N   UNL     1      33.199 -23.577 -15.709  0.00  0.00    -0.326 NA
ATOM      2  N   UNL     1      31.526 -22.903 -17.219  0.00  0.00    -0.271 N 
ATOM      3  N   UNL     1      35.524 -23.150 -16.179  0.00  0.00    -0.345 NA
ATOM      4  N   UNL     1      28.990 -22.696 -14.857  0.00  0.00    -0.239 N 
ATOM      5  N   UNL     1      30.307 -22.784 -15.107  0.00  0.00    -0.166 NA
ATOM      6  C   UNL     1      33.848 -22.447 -17.745  0.00  0.00    +0.072 C 
ATOM      7  C   UNL     1      34.511 -23.626 -15.427  0.00  0.00    +0.146 C 
ATOM      8  C   UNL     1      32.899 -22.980 -16.877  0.00  0.00    +0.199 C 
ATOM      9  C   UNL     1      35.189 -22.560 -17.340  0.00  0.00    +0.129 C 
ATOM     10  C   UNL     1      33.510 -21.828 -18.960  0.00  0.00    +0.006 C 
ATOM     11  C   UNL     1      36.168 -22.038 -18.182  0.00  0.00    +0.086 C 
ATOM     12  C   UNL     1      30.359 -22.816 -16.442  0.00  0.00    +0.152 C 
ATOM     13  C   UNL     1      34.508 -21.315 -19.782  0.00  0.00    -0.004 C 
ATOM     14  C   UNL     1      35.839 -21.421 -19.392  0.00  0.00    -0.019 C 
ATOM     15  C   UNL     1      29.086 -22.750 -17.038  0.00  0.00    +0.048 C 
ATOM     16  C   UNL     1      28.215 -22.673 -15.979  0.00  0.00    +0.046 C 
ATOM     17  C   UNL     1      26.748 -22.582 -15.917  0.00  0.00    +0.049 C 
ATOM     18  H   UNL     1      31.356 -22.913 -18.188  0.00  0.00    +0.156 HD
ATOM     19  H   UNL     1      28.618 -22.654 -13.945  0.00  0.00    +0.174 HD
ENDROOT
BRANCH   7  20
ATOM     20  C   UNL     1      34.891 -24.280 -14.141  0.00  0.00    +0.243 C 
BRANCH  20  22
ATOM     21  F   UNL     1      40.116 -26.438 -14.137  0.00  0.00    -0.204 F 
ATOM     22  C   UNL     1      36.300 -24.862 -14.140  0.00  0.00    +0.021 C 
ATOM     23  C   UNL     1      36.599 -25.967 -14.937  0.00  0.00    +0.001 C 
ATOM     24  C   UNL     1      37.291 -24.290 -13.342  0.00  0.00    +0.001 C 
ATOM     25  C   UNL     1      37.888 -26.499 -14.937  0.00  0.00    +0.029 C 
ATOM     26  C   UNL     1      38.580 -24.823 -13.340  0.00  0.00    +0.029 C 
ATOM     27  C   UNL     1      38.879 -25.928 -14.138  0.00  0.00    +0.140 C 
ENDBRANCH  20  22
BRANCH  20  28
ATOM     28  O   UNL     1      34.742 -23.396 -13.015  0.00  0.00    -0.366 OA
ATOM     29  H   UNL     1      35.527 -22.832 -12.941  0.00  0.00    +0.212 HD
ENDBRANCH  20  28
ENDBRANCH   7  20
TORSDOF 3
ENDMDL
MODEL 2
REMARK VINA RESULT:     -12.2      3.048      7.281
REMARK  Name = 46892373
REMARK  3 active torsions:
REMARK  status: ('A' for Active; 'I' for Inactive)
REMARK    1  A    between atoms: C_7  and  C_20
REMARK    2  A    between atoms: C_20  and  C_22
REMARK    3  A    between atoms: C_20  and  O_28
REMARK                            x       y       z     vdW  Elec       q    Type
REMARK                         _______ _______ _______ _____ _____    ______ ____
ROOT
ATOM      1  N   UNL     1      33.822 -23.748 -17.225  0.00  0.00    -0.326 NA
ATOM      2  N   UNL     1      34.468 -24.373 -15.050  0.00  0.00    -0.271 N 
ATOM      3  N   UNL     1      31.626 -22.849 -17.645  0.00  0.00    -0.345 NA
ATOM      4  N   UNL     1      37.878 -23.983 -15.575  0.00  0.00    -0.239 N 
ATOM      5  N   UNL     1      36.626 -23.744 -16.002  0.00  0.00    -0.166 NA
ATOM      6  C   UNL     1      32.245 -23.475 -15.413  0.00  0.00    +0.072 C 
ATOM      7  C   UNL     1      32.860 -23.247 -18.015  0.00  0.00    +0.146 C 
ATOM      8  C   UNL     1      33.484 -23.850 -15.926  0.00  0.00    +0.199 C 
ATOM      9  C   UNL     1      31.321 -22.965 -16.340  0.00  0.00    +0.129 C 
ATOM     10  C   UNL     1      31.915 -23.592 -14.053  0.00  0.00    +0.006 C 
ATOM     11  C   UNL     1      30.069 -22.579 -15.865  0.00  0.00    +0.086 C 
ATOM     12  C   UNL     1      35.872 -24.335 -15.071  0.00  0.00    +0.152 C 
ATOM     13  C   UNL     1      30.658 -23.199 -13.605  0.00  0.00    -0.004 C 
ATOM     14  C   UNL     1      29.735 -22.692 -14.512  0.00  0.00    -0.019 C 
ATOM     15  C   UNL     1      36.635 -24.947 -14.060  0.00  0.00    +0.048 C 
ATOM     16  C   UNL     1      37.938 -24.700 -14.417  0.00  0.00    +0.046 C 
ATOM     17  C   UNL     1      39.217 -25.066 -13.787  0.00  0.00    +0.049 C 
ATOM     18  H   UNL     1      34.096 -24.859 -14.279  0.00  0.00    +0.156 HD
ATOM     19  H   UNL     1      38.678 -23.669 -16.056  0.00  0.00    +0.174 HD
ENDROOT
BRANCH   7  20
ATOM     20  C   UNL     1      33.190 -23.116 -19.465  0.00  0.00    +0.243 C 
BRANCH  20  22
ATOM     21  F   UNL     1      36.165 -18.473 -20.714  0.00  0.00    -0.204 F 
ATOM     22  C   UNL     1      33.992 -21.864 -19.801  0.00  0.00    +0.021 C 
ATOM     23  C   UNL     1      33.354 -20.756 -20.359  0.00  0.00    +0.001 C 
ATOM     24  C   UNL     1      35.364 -21.826 -19.553  0.00  0.00    +0.001 C 
ATOM     25  C   UNL     1      34.087 -19.610 -20.667  0.00  0.00    +0.029 C 
ATOM     26  C   UNL     1      36.099 -20.681 -19.862  0.00  0.00    +0.029 C 
ATOM     27  C   UNL     1      35.460 -19.572 -20.419  0.00  0.00    +0.140 C 
ENDBRANCH  20  22
BRANCH  20  28
ATOM     28  O   UNL     1      33.880 -24.272 -19.973  0.00  0.00    -0.366 OA
ATOM     29  H   UNL     1      34.116 -24.126 -20.903  0.00  0.00    +0.212 HD
ENDBRANCH  20  28
ENDBRANCH   7  20
TORSDOF 3
ENDMDL
MODEL 3
REMARK VINA RESULT:     -11.7      3.195      5.680
REMARK  Name = 46892373
REMARK  3 active torsions:
REMARK  status: ('A' for Active; 'I' for Inactive)
REMARK    1  A    between atoms: C_7  and  C_20
REMARK    2  A    between atoms: C_20  and  C_22
REMARK    3  A    between atoms: C_20  and  O_28
REMARK                            x       y       z     vdW  Elec       q    Type
REMARK                         _______ _______ _______ _____ _____    ______ ____
ROOT
ATOM      1  N   UNL     1      31.858 -22.800 -17.490  0.00  0.00    -0.326 NA
ATOM      2  N   UNL     1      30.494 -22.593 -15.584  0.00  0.00    -0.271 N 
ATOM      3  N   UNL     1      34.108 -23.644 -17.306  0.00  0.00    -0.345 NA
ATOM      4  N   UNL     1      27.478 -22.808 -17.292  0.00  0.00    -0.239 N 
ATOM      5  N   UNL     1      28.810 -22.985 -17.308  0.00  0.00    -0.166 NA
ATOM      6  C   UNL     1      32.749 -23.448 -15.339  0.00  0.00    +0.072 C 
ATOM      7  C   UNL     1      33.052 -23.158 -17.989  0.00  0.00    +0.146 C 
ATOM      8  C   UNL     1      31.737 -22.958 -16.159  0.00  0.00    +0.199 C 
ATOM      9  C   UNL     1      33.953 -23.788 -15.978  0.00  0.00    +0.129 C 
ATOM     10  C   UNL     1      32.600 -23.603 -13.950  0.00  0.00    +0.006 C 
ATOM     11  C   UNL     1      34.990 -24.283 -15.190  0.00  0.00    +0.086 C 
ATOM     12  C   UNL     1      29.181 -22.599 -16.084  0.00  0.00    +0.152 C 
ATOM     13  C   UNL     1      33.651 -24.099 -13.187  0.00  0.00    -0.004 C 
ATOM     14  C   UNL     1      34.848 -24.440 -13.808  0.00  0.00    -0.019 C 
ATOM     15  C   UNL     1      28.096 -22.179 -15.293  0.00  0.00    +0.048 C 
ATOM     16  C   UNL     1      27.000 -22.327 -16.109  0.00  0.00    +0.046 C 
ATOM     17  C   UNL     1      25.569 -22.064 -15.890  0.00  0.00    +0.049 C 
ATOM     18  H   UNL     1      30.563 -22.273 -14.656  0.00  0.00    +0.156 HD
ATOM     19  H   UNL     1      26.900 -23.007 -18.064  0.00  0.00    +0.174 HD
ENDROOT
BRANCH   7  20
ATOM     20  C   UNL     1      33.232 -23.001 -19.462  0.00  0.00    +0.243 C 
BRANCH  20  22
ATOM     21  F   UNL     1      36.106 -18.359 -20.926  0.00  0.00    -0.204 F 
ATOM     22  C   UNL     1      34.006 -21.749 -19.857  0.00  0.00    +0.021 C 
ATOM     23  C   UNL     1      33.333 -20.655 -20.399  0.00  0.00    +0.001 C 
ATOM     24  C   UNL     1      35.389 -21.699 -19.677  0.00  0.00    +0.001 C 
ATOM     25  C   UNL     1      34.042 -19.509 -20.760  0.00  0.00    +0.029 C 
ATOM     26  C   UNL     1      36.098 -20.553 -20.038  0.00  0.00    +0.029 C 
ATOM     27  C   UNL     1      35.424 -19.458 -20.580  0.00  0.00    +0.140 C 
ENDBRANCH  20  22
BRANCH  20  28
ATOM     28  O   UNL     1      33.854 -24.153 -20.061  0.00  0.00    -0.366 OA
ATOM     29  H   UNL     1      34.810 -24.004 -20.133  0.00  0.00    +0.212 HD
ENDBRANCH  20  28
ENDBRANCH   7  20
TORSDOF 3
ENDMDL
MODEL 4
REMARK VINA RESULT:     -11.2      2.835      5.723
REMARK  Name = 46892373
REMARK  3 active torsions:
REMARK  status: ('A' for Active; 'I' for Inactive)
REMARK    1  A    between atoms: C_7  and  C_20
REMARK    2  A    between atoms: C_20  and  C_22
REMARK    3  A    between atoms: C_20  and  O_28
REMARK                            x       y       z     vdW  Elec       q    Type
REMARK                         _______ _______ _______ _____ _____    ______ ____
ROOT
ATOM      1  N   UNL     1      35.128 -22.669 -15.822  0.00  0.00    -0.326 NA
ATOM      2  N   UNL     1      33.500 -23.421 -14.298  0.00  0.00    -0.271 N 
ATOM      3  N   UNL     1      37.431 -23.343 -15.594  0.00  0.00    -0.345 NA
ATOM      4  N   UNL     1      30.811 -23.078 -16.467  0.00  0.00    -0.239 N 
ATOM      5  N   UNL     1      32.144 -23.133 -16.307  0.00  0.00    -0.166 NA
ATOM      6  C   UNL     1      35.802 -24.132 -14.019  0.00  0.00    +0.072 C 
ATOM      7  C   UNL     1      36.418 -22.684 -16.192  0.00  0.00    +0.146 C 
ATOM      8  C   UNL     1      34.851 -23.404 -14.729  0.00  0.00    +0.199 C 
ATOM      9  C   UNL     1      37.118 -24.068 -14.504  0.00  0.00    +0.129 C 
ATOM     10  C   UNL     1      35.487 -24.892 -12.880  0.00  0.00    +0.006 C 
ATOM     11  C   UNL     1      38.099 -24.783 -13.821  0.00  0.00    +0.086 C 
ATOM     12  C   UNL     1      32.284 -23.300 -14.989  0.00  0.00    +0.152 C 
ATOM     13  C   UNL     1      36.486 -25.597 -12.216  0.00  0.00    -0.004 C 
ATOM     14  C   UNL     1      37.793 -25.542 -12.687  0.00  0.00    -0.019 C 
ATOM     15  C   UNL     1      31.051 -23.351 -14.313  0.00  0.00    +0.048 C 
ATOM     16  C   UNL     1      30.111 -23.203 -15.304  0.00  0.00    +0.046 C 
ATOM     17  C   UNL     1      28.640 -23.167 -15.266  0.00  0.00    +0.049 C 
ATOM     18  H   UNL     1      33.395 -23.538 -13.327  0.00  0.00    +0.156 HD
ATOM     19  H   UNL     1      30.380 -22.958 -17.344  0.00  0.00    +0.174 HD
ENDROOT
BRANCH   7  20
ATOM     20  C   UNL     1      36.773 -21.881 -17.400  0.00  0.00    +0.243 C 
BRANCH  20  22
ATOM     21  F   UNL     1      32.444 -21.048 -20.938  0.00  0.00    -0.204 F 
ATOM     22  C   UNL     1      35.605 -21.657 -18.353  0.00  0.00    +0.021 C 
ATOM     23  C   UNL     1      34.404 -22.337 -18.157  0.00  0.00    +0.001 C 
ATOM     24  C   UNL     1      35.739 -20.772 -19.423  0.00  0.00    +0.001 C 
ATOM     25  C   UNL     1      33.335 -22.131 -19.030  0.00  0.00    +0.029 C 
ATOM     26  C   UNL     1      34.671 -20.566 -20.297  0.00  0.00    +0.029 C 
ATOM     27  C   UNL     1      33.469 -21.246 -20.099  0.00  0.00    +0.140 C 
ENDBRANCH  20  22
BRANCH  20  28
ATOM     28  O   UNL     1      37.358 -20.612 -17.057  0.00  0.00    -0.366 OA
ATOM     29  H   UNL     1      38.195 -20.756 -16.589  0.00  0.00    +0.212 HD
ENDBRANCH  20  28
ENDBRANCH   7  20
TORSDOF 3
ENDMDL
MODEL 5
REMARK VINA RESULT:     -11.1      3.322      7.337
REMARK  Name = 46892373
REMARK  3 active torsions:
REMARK  status: ('A' for Active; 'I' for Inactive)
REMARK    1  A    between atoms: C_7  and  C_20
REMARK    2  A    between atoms: C_20  and  C_22
REMARK    3  A    between atoms: C_20  and  O_28
REMARK                            x       y       z     vdW  Elec       q    Type
REMARK                         _______ _______ _______ _____ _____    ______ ____
ROOT
ATOM      1  N   UNL     1      33.756 -23.608 -15.566  0.00  0.00    -0.326 NA
ATOM      2  N   UNL     1      36.013 -23.241 -16.123  0.00  0.00    -0.271 N 
ATOM      3  N   UNL     1      31.992 -22.869 -17.033  0.00  0.00    -0.345 NA
ATOM      4  N   UNL     1      37.266 -25.875 -14.240  0.00  0.00    -0.239 N 
ATOM      5  N   UNL     1      36.198 -25.284 -14.800  0.00  0.00    -0.166 NA
ATOM      6  C   UNL     1      34.281 -22.476 -17.637  0.00  0.00    +0.072 C 
ATOM      7  C   UNL     1      32.469 -23.457 -15.917  0.00  0.00    +0.146 C 
ATOM      8  C   UNL     1      34.640 -23.106 -16.449  0.00  0.00    +0.199 C 
ATOM      9  C   UNL     1      32.903 -22.378 -17.893  0.00  0.00    +0.129 C 
ATOM     10  C   UNL     1      35.222 -21.959 -18.542  0.00  0.00    +0.006 C 
ATOM     11  C   UNL     1      32.503 -21.754 -19.073  0.00  0.00    +0.086 C 
ATOM     12  C   UNL     1      36.721 -24.206 -15.388  0.00  0.00    +0.152 C 
ATOM     13  C   UNL     1      34.796 -21.340 -19.713  0.00  0.00    -0.004 C 
ATOM     14  C   UNL     1      33.435 -21.238 -19.978  0.00  0.00    -0.019 C 
ATOM     15  C   UNL     1      38.113 -24.109 -15.206  0.00  0.00    +0.048 C 
ATOM     16  C   UNL     1      38.438 -25.211 -14.454  0.00  0.00    +0.046 C 
ATOM     17  C   UNL     1      39.722 -25.696 -13.922  0.00  0.00    +0.049 C 
ATOM     18  H   UNL     1      36.579 -22.519 -16.479  0.00  0.00    +0.156 HD
ATOM     19  H   UNL     1      37.209 -26.712 -13.723  0.00  0.00    +0.174 HD
ENDROOT
BRANCH   7  20
ATOM     20  C   UNL     1      31.453 -23.999 -14.968  0.00  0.00    +0.243 C 
BRANCH  20  22
ATOM     21  F   UNL     1      26.130 -22.658 -16.322  0.00  0.00    -0.204 F 
ATOM     22  C   UNL     1      30.018 -23.638 -15.333  0.00  0.00    +0.021 C 
ATOM     23  C   UNL     1      29.242 -24.528 -16.076  0.00  0.00    +0.001 C 
ATOM     24  C   UNL     1      29.480 -22.417 -14.926  0.00  0.00    +0.001 C 
ATOM     25  C   UNL     1      27.928 -24.197 -16.409  0.00  0.00    +0.029 C 
ATOM     26  C   UNL     1      28.167 -22.085 -15.260  0.00  0.00    +0.029 C 
ATOM     27  C   UNL     1      27.391 -22.976 -16.002  0.00  0.00    +0.140 C 
ENDBRANCH  20  22
BRANCH  20  28
ATOM     28  O   UNL     1      31.559 -25.426 -14.813  0.00  0.00    -0.366 OA
ATOM     29  H   UNL     1      31.590 -25.845 -15.687  0.00  0.00    +0.212 HD
ENDBRANCH  20  28
ENDBRANCH   7  20
TORSDOF 3
ENDMDL
MODEL 6
REMARK VINA RESULT:     -11.1      2.239      2.780
REMARK  Name = 46892373
REMARK  3 active torsions:
REMARK  status: ('A' for Active; 'I' for Inactive)
REMARK    1  A    between atoms: C_7  and  C_20
REMARK    2  A    between atoms: C_20  and  C_22
REMARK    3  A    between atoms: C_20  and  O_28
REMARK                            x       y       z     vdW  Elec       q    Type
REMARK                         _______ _______ _______ _____ _____    ______ ____
ROOT
ATOM      1  N   UNL     1      35.139 -23.170 -16.321  0.00  0.00    -0.326 NA
ATOM      2  N   UNL     1      32.946 -23.330 -17.158  0.00  0.00    -0.271 N 
ATOM      3  N   UNL     1      36.813 -21.892 -17.493  0.00  0.00    -0.345 NA
ATOM      4  N   UNL     1      31.449 -23.970 -14.091  0.00  0.00    -0.239 N 
ATOM      5  N   UNL     1      32.534 -23.546 -14.762  0.00  0.00    -0.166 NA
ATOM      6  C   UNL     1      34.588 -22.032 -18.381  0.00  0.00    +0.072 C 
ATOM      7  C   UNL     1      36.375 -22.673 -16.485  0.00  0.00    +0.146 C 
ATOM      8  C   UNL     1      34.266 -22.830 -17.287  0.00  0.00    +0.199 C 
ATOM      9  C   UNL     1      35.914 -21.573 -18.442  0.00  0.00    +0.129 C 
ATOM     10  C   UNL     1      33.659 -21.691 -19.378  0.00  0.00    +0.006 C 
ATOM     11  C   UNL     1      36.276 -20.770 -19.522  0.00  0.00    +0.086 C 
ATOM     12  C   UNL     1      32.161 -23.655 -16.040  0.00  0.00    +0.152 C 
ATOM     13  C   UNL     1      34.046 -20.888 -20.446  0.00  0.00    -0.004 C 
ATOM     14  C   UNL     1      35.356 -20.427 -20.518  0.00  0.00    -0.019 C 
ATOM     15  C   UNL     1      30.850 -24.145 -16.184  0.00  0.00    +0.048 C 
ATOM     16  C   UNL     1      30.413 -24.340 -14.897  0.00  0.00    +0.046 C 
ATOM     17  C   UNL     1      29.137 -24.835 -14.355  0.00  0.00    +0.049 C 
ATOM     18  H   UNL     1      32.492 -23.480 -18.019  0.00  0.00    +0.156 HD
ATOM     19  H   UNL     1      31.407 -24.010 -13.108  0.00  0.00    +0.174 HD
ENDROOT
BRANCH   7  20
ATOM     20  C   UNL     1      37.378 -23.023 -15.436  0.00  0.00    +0.243 C 
BRANCH  20  22
ATOM     21  F   UNL     1      35.141 -25.520 -10.884  0.00  0.00    -0.204 F 
ATOM     22  C   UNL     1      36.774 -23.696 -14.209  0.00  0.00    +0.021 C 
ATOM     23  C   UNL     1      35.870 -23.001 -13.406  0.00  0.00    +0.001 C 
ATOM     24  C   UNL     1      37.126 -25.007 -13.889  0.00  0.00    +0.001 C 
ATOM     25  C   UNL     1      35.318 -23.617 -12.283  0.00  0.00    +0.029 C 
ATOM     26  C   UNL     1      36.575 -25.624 -12.765  0.00  0.00    +0.029 C 
ATOM     27  C   UNL     1      35.670 -24.928 -11.962  0.00  0.00    +0.140 C 
ENDBRANCH  20  22
BRANCH  20  28
ATOM     28  O   UNL     1      38.442 -23.843 -15.952  0.00  0.00    -0.366 OA
ATOM     29  H   UNL     1      38.287 -24.021 -16.893  0.00  0.00    +0.212 HD
ENDBRANCH  20  28
ENDBRANCH   7  20
TORSDOF 3
ENDMDL
MODEL 7
REMARK VINA RESULT:     -11.0      3.005      6.111
REMARK  Name = 46892373
REMARK  3 active torsions:
REMARK  status: ('A' for Active; 'I' for Inactive)
REMARK    1  A    between atoms: C_7  and  C_20
REMARK    2  A    between atoms: C_20  and  C_22
REMARK    3  A    between atoms: C_20  and  O_28
REMARK                            x       y       z     vdW  Elec       q    Type
REMARK                         _______ _______ _______ _____ _____    ______ ____
ROOT
ATOM      1  N   UNL     1      33.231 -23.069 -16.755  0.00  0.00    -0.326 NA
ATOM      2  N   UNL     1      35.529 -23.050 -16.249  0.00  0.00    -0.271 N 
ATOM      3  N   UNL     1      32.404 -22.016 -18.758  0.00  0.00    -0.345 NA
ATOM      4  N   UNL     1      35.474 -25.906 -14.275  0.00  0.00    -0.239 N 
ATOM      5  N   UNL     1      34.846 -25.135 -15.179  0.00  0.00    -0.166 NA
ATOM      6  C   UNL     1      34.754 -21.974 -18.279  0.00  0.00    +0.072 C 
ATOM      7  C   UNL     1      32.261 -22.705 -17.608  0.00  0.00    +0.146 C 
ATOM      8  C   UNL     1      34.469 -22.689 -17.119  0.00  0.00    +0.199 C 
ATOM      9  C   UNL     1      33.655 -21.651 -19.091  0.00  0.00    +0.129 C 
ATOM     10  C   UNL     1      36.056 -21.587 -18.638  0.00  0.00    +0.006 C 
ATOM     11  C   UNL     1      33.899 -20.936 -20.262  0.00  0.00    +0.086 C 
ATOM     12  C   UNL     1      35.711 -24.137 -15.378  0.00  0.00    +0.152 C 
ATOM     13  C   UNL     1      36.272 -20.873 -19.812  0.00  0.00    -0.004 C 
ATOM     14  C   UNL     1      35.192 -20.548 -20.625  0.00  0.00    -0.019 C 
ATOM     15  C   UNL     1      36.880 -24.268 -14.607  0.00  0.00    +0.048 C 
ATOM     16  C   UNL     1      36.695 -25.430 -13.899  0.00  0.00    +0.046 C 
ATOM     17  C   UNL     1      37.540 -26.129 -12.917  0.00  0.00    +0.049 C 
ATOM     18  H   UNL     1      36.282 -22.417 -16.256  0.00  0.00    +0.156 HD
ATOM     19  H   UNL     1      35.086 -26.737 -13.916  0.00  0.00    +0.174 HD
ENDROOT
BRANCH   7  20
ATOM     20  C   UNL     1      30.870 -23.107 -17.245  0.00  0.00    +0.243 C 
BRANCH  20  22
ATOM     21  F   UNL     1      30.358 -25.024 -11.952  0.00  0.00    -0.204 F 
ATOM     22  C   UNL     1      30.732 -23.624 -15.818  0.00  0.00    +0.021 C 
ATOM     23  C   UNL     1      30.144 -24.866 -15.581  0.00  0.00    +0.001 C 
ATOM     24  C   UNL     1      31.193 -22.855 -14.750  0.00  0.00    +0.001 C 
ATOM     25  C   UNL     1      30.018 -25.340 -14.274  0.00  0.00    +0.029 C 
ATOM     26  C   UNL     1      31.066 -23.327 -13.443  0.00  0.00    +0.029 C 
ATOM     27  C   UNL     1      30.479 -24.570 -13.206  0.00  0.00    +0.140 C 
ENDBRANCH  20  22
BRANCH  20  28
ATOM     28  O   UNL     1      29.924 -22.044 -17.458  0.00  0.00    -0.366 OA
ATOM     29  H   UNL     1      30.041 -21.364 -16.777  0.00  0.00    +0.212 HD
ENDBRANCH  20  28
ENDBRANCH   7  20
TORSDOF 3
ENDMDL
MODEL 8
REMARK VINA RESULT:     -10.9      1.856      4.922
REMARK  Name = 46892373
REMARK  3 active torsions:
REMARK  status: ('A' for Active; 'I' for Inactive)
REMARK    1  A    between atoms: C_7  and  C_20
REMARK    2  A    between atoms: C_20  and  C_22
REMARK    3  A    between atoms: C_20  and  O_28
REMARK                            x       y       z     vdW  Elec       q    Type
REMARK                         _______ _______ _______ _____ _____    ______ ____
ROOT
ATOM      1  N   UNL     1      32.840 -23.416 -15.449  0.00  0.00    -0.326 NA
ATOM      2  N   UNL     1      31.915 -22.449 -17.385  0.00  0.00    -0.271 N 
ATOM      3  N   UNL     1      31.498 -24.804 -14.006  0.00  0.00    -0.345 NA
ATOM      4  N   UNL     1      34.922 -22.150 -19.094  0.00  0.00    -0.239 N 
ATOM      5  N   UNL     1      34.245 -22.694 -18.069  0.00  0.00    -0.166 NA
ATOM      6  C   UNL     1      30.517 -23.836 -15.970  0.00  0.00    +0.072 C 
ATOM      7  C   UNL     1      32.642 -24.190 -14.370  0.00  0.00    +0.146 C 
ATOM      8  C   UNL     1      31.756 -23.258 -16.231  0.00  0.00    +0.199 C 
ATOM      9  C   UNL     1      30.434 -24.624 -14.810  0.00  0.00    +0.129 C 
ATOM     10  C   UNL     1      29.399 -23.655 -16.801  0.00  0.00    +0.006 C 
ATOM     11  C   UNL     1      29.210 -25.220 -14.514  0.00  0.00    +0.086 C 
ATOM     12  C   UNL     1      33.018 -22.187 -18.213  0.00  0.00    +0.152 C 
ATOM     13  C   UNL     1      28.188 -24.261 -16.482  0.00  0.00    -0.004 C 
ATOM     14  C   UNL     1      28.094 -25.044 -15.337  0.00  0.00    -0.019 C 
ATOM     15  C   UNL     1      32.912 -21.326 -19.321  0.00  0.00    +0.048 C 
ATOM     16  C   UNL     1      34.169 -21.323 -19.874  0.00  0.00    +0.046 C 
ATOM     17  C   UNL     1      34.726 -20.628 -21.046  0.00  0.00    +0.049 C 
ATOM     18  H   UNL     1      31.094 -21.979 -17.657  0.00  0.00    +0.156 HD
ATOM     19  H   UNL     1      35.875 -22.331 -19.266  0.00  0.00    +0.174 HD
ENDROOT
BRANCH   7  20
ATOM     20  C   UNL     1      33.817 -24.394 -13.473  0.00  0.00    +0.243 C 
BRANCH  20  22
ATOM     21  F   UNL     1      38.801 -23.695 -16.049  0.00  0.00    -0.204 F 
ATOM     22  C   UNL     1      35.161 -24.206 -14.168  0.00  0.00    +0.021 C 
ATOM     23  C   UNL     1      36.040 -25.282 -14.288  0.00  0.00    +0.001 C 
ATOM     24  C   UNL     1      35.511 -22.958 -14.683  0.00  0.00    +0.001 C 
ATOM     25  C   UNL     1      37.270 -25.110 -14.924  0.00  0.00    +0.029 C 
ATOM     26  C   UNL     1      36.741 -22.785 -15.318  0.00  0.00    +0.029 C 
ATOM     27  C   UNL     1      37.620 -23.862 -15.439  0.00  0.00    +0.140 C 
ENDBRANCH  20  22
BRANCH  20  28
ATOM     28  O   UNL     1      33.764 -23.553 -12.307  0.00  0.00    -0.366 OA
ATOM     29  H   UNL     1      34.299 -23.946 -11.599  0.00  0.00    +0.212 HD
ENDBRANCH  20  28
ENDBRANCH   7  20
TORSDOF 3
ENDMDL
MODEL 9
REMARK VINA RESULT:     -10.6      1.789      4.880
REMARK  Name = 46892373
REMARK  3 active torsions:
REMARK  status: ('A' for Active; 'I' for Inactive)
REMARK    1  A    between atoms: C_7  and  C_20
REMARK    2  A    between atoms: C_20  and  C_22
REMARK    3  A    between atoms: C_20  and  O_28
REMARK                            x       y       z     vdW  Elec       q    Type
REMARK                         _______ _______ _______ _____ _____    ______ ____
ROOT
ATOM      1  N   UNL     1      34.340 -23.382 -14.609  0.00  0.00    -0.326 NA
ATOM      2  N   UNL     1      33.455 -22.592 -16.642  0.00  0.00    -0.271 N 
ATOM      3  N   UNL     1      32.991 -24.706 -13.114  0.00  0.00    -0.345 NA
ATOM      4  N   UNL     1      36.512 -22.312 -18.264  0.00  0.00    -0.239 N 
ATOM      5  N   UNL     1      35.816 -22.803 -17.225  0.00  0.00    -0.166 NA
ATOM      6  C   UNL     1      32.052 -23.920 -15.176  0.00  0.00    +0.072 C 
ATOM      7  C   UNL     1      34.128 -24.081 -13.483  0.00  0.00    +0.146 C 
ATOM      8  C   UNL     1      33.281 -23.320 -15.438  0.00  0.00    +0.199 C 
ATOM      9  C   UNL     1      31.953 -24.623 -13.965  0.00  0.00    +0.129 C 
ATOM     10  C   UNL     1      30.961 -23.840 -16.057  0.00  0.00    +0.006 C 
ATOM     11  C   UNL     1      30.739 -25.239 -13.668  0.00  0.00    +0.086 C 
ATOM     12  C   UNL     1      34.579 -22.352 -17.449  0.00  0.00    +0.152 C 
ATOM     13  C   UNL     1      29.759 -24.464 -15.736  0.00  0.00    -0.004 C 
ATOM     14  C   UNL     1      29.649 -25.164 -14.540  0.00  0.00    -0.019 C 
ATOM     15  C   UNL     1      34.486 -21.579 -18.621  0.00  0.00    +0.048 C 
ATOM     16  C   UNL     1      35.762 -21.571 -19.129  0.00  0.00    +0.046 C 
ATOM     17  C   UNL     1      36.339 -20.945 -20.330  0.00  0.00    +0.049 C 
ATOM     18  H   UNL     1      32.630 -22.173 -16.976  0.00  0.00    +0.156 HD
ATOM     19  H   UNL     1      37.476 -22.472 -18.389  0.00  0.00    +0.174 HD
ENDROOT
BRANCH   7  20
ATOM     20  C   UNL     1      35.275 -24.177 -12.534  0.00  0.00    +0.243 C 
BRANCH  20  22
ATOM     21  F   UNL     1      39.860 -26.642 -14.738  0.00  0.00    -0.204 F 
ATOM     22  C   UNL     1      36.511 -24.841 -13.128  0.00  0.00    +0.021 C 
ATOM     23  C   UNL     1      36.370 -25.874 -14.056  0.00  0.00    +0.001 C 
ATOM     24  C   UNL     1      37.783 -24.418 -12.744  0.00  0.00    +0.001 C 
ATOM     25  C   UNL     1      37.501 -26.482 -14.600  0.00  0.00    +0.029 C 
ATOM     26  C   UNL     1      38.915 -25.027 -13.288  0.00  0.00    +0.029 C 
ATOM     27  C   UNL     1      38.774 -26.058 -14.216  0.00  0.00    +0.140 C 
ENDBRANCH  20  22
BRANCH  20  28
ATOM     28  O   UNL     1      35.640 -22.896 -11.989  0.00  0.00    -0.366 OA
ATOM     29  H   UNL     1      34.962 -22.241 -12.218  0.00  0.00    +0.212 HD
ENDBRANCH  20  28
ENDBRANCH   7  20
TORSDOF 3
ENDMDL
