MODEL 1
REMARK VINA RESULT:     -12.2      0.000      0.000
REMARK  Name = 44177328
REMARK  2 active torsions:
REMARK  status: ('A' for Active; 'I' for Inactive)
REMARK    1  A    between atoms: N_1  and  C_15
REMARK    2  A    between atoms: C_6  and  C_23
REMARK                            x       y       z     vdW  Elec       q    Type
REMARK                         _______ _______ _______ _____ _____    ______ ____
ROOT
ATOM      1  N   UNL     1      32.509 -22.477 -18.437  0.00  0.00    -0.286 N 
ATOM      2  N   UNL     1      33.786 -23.437 -16.690  0.00  0.00    -0.386 NA
ATOM      3  N   UNL     1      31.446 -23.741 -15.174  0.00  0.00    -0.246 NA
ATOM      4  N   UNL     1      30.193 -22.776 -16.942  0.00  0.00    -0.340 N 
ATOM      5  C   UNL     1      32.581 -23.050 -17.153  0.00  0.00    +0.214 C 
ATOM      6  C   UNL     1      33.801 -23.979 -15.456  0.00  0.00    +0.135 C 
ATOM      7  C   UNL     1      31.431 -23.199 -16.409  0.00  0.00    +0.166 C 
ATOM      8  C   UNL     1      32.651 -24.128 -14.712  0.00  0.00    +0.185 C 
ATOM      9  H   UNL     1      31.654 -22.642 -18.896  0.00  0.00    +0.155 HD
ATOM     10  H   UNL     1      29.368 -22.880 -16.415  0.00  0.00    +0.144 HD
ATOM     11  H   UNL     1      30.155 -22.377 -17.842  0.00  0.00    +0.144 HD
ENDROOT
BRANCH   1  15
ATOM     12  N   UNL     1      35.894 -19.369 -21.516  0.00  0.00    -0.312 N 
ATOM     13  C   UNL     1      33.860 -20.023 -20.875  0.00  0.00    +0.016 C 
ATOM     14  C   UNL     1      35.227 -20.224 -20.668  0.00  0.00    +0.048 C 
ATOM     15  C   UNL     1      33.424 -21.713 -19.195  0.00  0.00    +0.050 C 
ATOM     16  C   UNL     1      32.942 -20.783 -20.122  0.00  0.00    +0.016 C 
ATOM     17  C   UNL     1      35.722 -21.149 -19.744  0.00  0.00    +0.016 C 
ATOM     18  C   UNL     1      34.793 -21.892 -19.010  0.00  0.00    +0.016 C 
ATOM     19  C   UNL     1      33.731 -19.019 -21.875  0.00  0.00    +0.017 C 
ATOM     20  C   UNL     1      34.999 -18.637 -22.250  0.00  0.00    +0.062 C 
ATOM     21  H   UNL     1      36.873 -19.296 -21.586  0.00  0.00    +0.152 HD
ENDBRANCH   1  15
BRANCH   6  23
ATOM     22  N   UNL     1      37.593 -25.184 -14.004  0.00  0.00    -0.242 NA
ATOM     23  C   UNL     1      35.091 -24.390 -14.963  0.00  0.00    +0.031 C 
ATOM     24  C   UNL     1      35.535 -25.691 -15.168  0.00  0.00    +0.023 C 
ATOM     25  C   UNL     1      35.896 -23.484 -14.280  0.00  0.00    +0.023 C 
ATOM     26  C   UNL     1      36.783 -26.035 -14.673  0.00  0.00    +0.099 C 
ATOM     27  C   UNL     1      37.128 -23.928 -13.825  0.00  0.00    +0.099 C 
ENDBRANCH   6  23
TORSDOF 2
ENDMDL
MODEL 2
REMARK VINA RESULT:     -10.8      1.793      6.698
REMARK  Name = 44177328
REMARK  2 active torsions:
REMARK  status: ('A' for Active; 'I' for Inactive)
REMARK    1  A    between atoms: N_1  and  C_15
REMARK    2  A    between atoms: C_6  and  C_23
REMARK                            x       y       z     vdW  Elec       q    Type
REMARK                         _______ _______ _______ _____ _____    ______ ____
ROOT
ATOM      1  N   UNL     1      33.956 -24.405 -14.749  0.00  0.00    -0.286 N 
ATOM      2  N   UNL     1      34.733 -23.072 -16.545  0.00  0.00    -0.386 NA
ATOM      3  N   UNL     1      37.206 -22.806 -15.249  0.00  0.00    -0.246 NA
ATOM      4  N   UNL     1      36.399 -24.146 -13.465  0.00  0.00    -0.340 N 
ATOM      5  C   UNL     1      34.979 -23.649 -15.352  0.00  0.00    +0.214 C 
ATOM      6  C   UNL     1      35.745 -22.360 -17.078  0.00  0.00    +0.135 C 
ATOM      7  C   UNL     1      36.193 -23.520 -14.715  0.00  0.00    +0.166 C 
ATOM      8  C   UNL     1      36.960 -22.230 -16.441  0.00  0.00    +0.185 C 
ATOM      9  H   UNL     1      34.287 -25.140 -14.185  0.00  0.00    +0.155 HD
ATOM     10  H   UNL     1      37.265 -24.056 -13.005  0.00  0.00    +0.144 HD
ATOM     11  H   UNL     1      35.675 -24.672 -13.053  0.00  0.00    +0.144 HD
ENDROOT
BRANCH   1  15
ATOM     12  N   UNL     1      28.460 -23.896 -15.136  0.00  0.00    -0.312 N 
ATOM     13  C   UNL     1      30.534 -23.435 -15.818  0.00  0.00    +0.016 C 
ATOM     14  C   UNL     1      29.789 -24.149 -14.876  0.00  0.00    +0.048 C 
ATOM     15  C   UNL     1      32.547 -24.314 -14.797  0.00  0.00    +0.050 C 
ATOM     16  C   UNL     1      31.940 -23.520 -15.776  0.00  0.00    +0.016 C 
ATOM     17  C   UNL     1      30.382 -24.947 -13.893  0.00  0.00    +0.016 C 
ATOM     18  C   UNL     1      31.779 -25.016 -13.870  0.00  0.00    +0.016 C 
ATOM     19  C   UNL     1      29.607 -22.746 -16.649  0.00  0.00    +0.017 C 
ATOM     20  C   UNL     1      28.340 -23.049 -16.204  0.00  0.00    +0.062 C 
ATOM     21  H   UNL     1      27.707 -24.269 -14.624  0.00  0.00    +0.152 HD
ENDBRANCH   1  15
BRANCH   6  23
ATOM     22  N   UNL     1      34.959 -20.541 -20.822  0.00  0.00    -0.242 NA
ATOM     23  C   UNL     1      35.478 -21.742 -18.352  0.00  0.00    +0.031 C 
ATOM     24  C   UNL     1      36.486 -21.056 -19.020  0.00  0.00    +0.023 C 
ATOM     25  C   UNL     1      34.211 -21.829 -18.918  0.00  0.00    +0.023 C 
ATOM     26  C   UNL     1      36.178 -20.479 -20.241  0.00  0.00    +0.099 C 
ATOM     27  C   UNL     1      34.004 -21.217 -20.144  0.00  0.00    +0.099 C 
ENDBRANCH   6  23
TORSDOF 2
ENDMDL
MODEL 3
REMARK VINA RESULT:     -10.7      6.626     10.926
REMARK  Name = 44177328
REMARK  2 active torsions:
REMARK  status: ('A' for Active; 'I' for Inactive)
REMARK    1  A    between atoms: N_1  and  C_15
REMARK    2  A    between atoms: C_6  and  C_23
REMARK                            x       y       z     vdW  Elec       q    Type
REMARK                         _______ _______ _______ _____ _____    ______ ____
ROOT
ATOM      1  N   UNL     1      33.281 -13.294 -25.295  0.00  0.00    -0.286 N 
ATOM      2  N   UNL     1      33.777 -15.374 -24.280  0.00  0.00    -0.386 NA
ATOM      3  N   UNL     1      33.407 -16.645 -26.753  0.00  0.00    -0.246 NA
ATOM      4  N   UNL     1      32.915 -14.545 -27.742  0.00  0.00    -0.340 N 
ATOM      5  C   UNL     1      33.444 -14.688 -25.392  0.00  0.00    +0.214 C 
ATOM      6  C   UNL     1      33.921 -16.706 -24.426  0.00  0.00    +0.135 C 
ATOM      7  C   UNL     1      33.263 -15.312 -26.607  0.00  0.00    +0.166 C 
ATOM      8  C   UNL     1      33.739 -17.330 -25.641  0.00  0.00    +0.185 C 
ATOM      9  H   UNL     1      33.502 -12.811 -26.125  0.00  0.00    +0.155 HD
ATOM     10  H   UNL     1      32.784 -14.986 -28.613  0.00  0.00    +0.144 HD
ATOM     11  H   UNL     1      32.803 -13.571 -27.662  0.00  0.00    +0.144 HD
ENDROOT
BRANCH   1  15
ATOM     12  N   UNL     1      31.587 -10.203 -21.031  0.00  0.00    -0.312 N 
ATOM     13  C   UNL     1      31.963 -12.172 -22.009  0.00  0.00    +0.016 C 
ATOM     14  C   UNL     1      32.049 -10.790 -22.189  0.00  0.00    +0.048 C 
ATOM     15  C   UNL     1      32.862 -12.451 -24.241  0.00  0.00    +0.050 C 
ATOM     16  C   UNL     1      32.379 -13.018 -23.057  0.00  0.00    +0.016 C 
ATOM     17  C   UNL     1      32.531 -10.209 -23.366  0.00  0.00    +0.016 C 
ATOM     18  C   UNL     1      32.936 -11.069 -24.392  0.00  0.00    +0.016 C 
ATOM     19  C   UNL     1      31.435 -12.393 -20.706  0.00  0.00    +0.017 C 
ATOM     20  C   UNL     1      31.214 -11.163 -20.131  0.00  0.00    +0.062 C 
ATOM     21  H   UNL     1      31.532  -9.232 -20.876  0.00  0.00    +0.152 HD
ENDBRANCH   1  15
BRANCH   6  23
ATOM     22  N   UNL     1      34.956 -18.852 -20.924  0.00  0.00    -0.242 NA
ATOM     23  C   UNL     1      34.273 -17.436 -23.236  0.00  0.00    +0.031 C 
ATOM     24  C   UNL     1      34.076 -18.811 -23.176  0.00  0.00    +0.023 C 
ATOM     25  C   UNL     1      34.813 -16.768 -22.141  0.00  0.00    +0.023 C 
ATOM     26  C   UNL     1      34.430 -19.467 -22.008  0.00  0.00    +0.099 C 
ATOM     27  C   UNL     1      35.134 -17.516 -21.019  0.00  0.00    +0.099 C 
ENDBRANCH   6  23
TORSDOF 2
ENDMDL
MODEL 4
REMARK VINA RESULT:     -10.6      1.398      6.794
REMARK  Name = 44177328
REMARK  2 active torsions:
REMARK  status: ('A' for Active; 'I' for Inactive)
REMARK    1  A    between atoms: N_1  and  C_15
REMARK    2  A    between atoms: C_6  and  C_23
REMARK                            x       y       z     vdW  Elec       q    Type
REMARK                         _______ _______ _______ _____ _____    ______ ____
ROOT
ATOM      1  N   UNL     1      34.042 -24.532 -14.454  0.00  0.00    -0.286 N 
ATOM      2  N   UNL     1      33.745 -23.301 -16.454  0.00  0.00    -0.386 NA
ATOM      3  N   UNL     1      30.965 -23.506 -16.143  0.00  0.00    -0.246 NA
ATOM      4  N   UNL     1      31.295 -24.737 -14.141  0.00  0.00    -0.340 N 
ATOM      5  C   UNL     1      33.190 -23.947 -15.410  0.00  0.00    +0.214 C 
ATOM      6  C   UNL     1      32.887 -22.759 -17.340  0.00  0.00    +0.135 C 
ATOM      7  C   UNL     1      31.825 -24.048 -15.256  0.00  0.00    +0.166 C 
ATOM      8  C   UNL     1      31.521 -22.860 -17.186  0.00  0.00    +0.185 C 
ATOM      9  H   UNL     1      33.659 -24.562 -13.548  0.00  0.00    +0.155 HD
ATOM     10  H   UNL     1      30.320 -24.812 -14.027  0.00  0.00    +0.144 HD
ATOM     11  H   UNL     1      31.901 -25.142 -13.480  0.00  0.00    +0.144 HD
ENDROOT
BRANCH   1  15
ATOM     12  N   UNL     1      39.211 -26.494 -14.658  0.00  0.00    -0.312 N 
ATOM     13  C   UNL     1      37.705 -24.973 -14.027  0.00  0.00    +0.016 C 
ATOM     14  C   UNL     1      37.873 -26.175 -14.720  0.00  0.00    +0.048 C 
ATOM     15  C   UNL     1      35.340 -25.083 -14.541  0.00  0.00    +0.050 C 
ATOM     16  C   UNL     1      36.413 -24.418 -13.937  0.00  0.00    +0.016 C 
ATOM     17  C   UNL     1      36.809 -26.852 -15.326  0.00  0.00    +0.016 C 
ATOM     18  C   UNL     1      35.537 -26.281 -15.225  0.00  0.00    +0.016 C 
ATOM     19  C   UNL     1      38.988 -24.583 -13.550  0.00  0.00    +0.017 C 
ATOM     20  C   UNL     1      39.893 -25.538 -13.954  0.00  0.00    +0.062 C 
ATOM     21  H   UNL     1      39.618 -27.294 -15.063  0.00  0.00    +0.152 HD
ENDBRANCH   1  15
BRANCH   6  23
ATOM     22  N   UNL     1      34.638 -20.737 -20.625  0.00  0.00    -0.242 NA
ATOM     23  C   UNL     1      33.483 -22.072 -18.457  0.00  0.00    +0.031 C 
ATOM     24  C   UNL     1      34.855 -22.145 -18.670  0.00  0.00    +0.023 C 
ATOM     25  C   UNL     1      32.687 -21.333 -19.327  0.00  0.00    +0.023 C 
ATOM     26  C   UNL     1      35.378 -21.466 -19.758  0.00  0.00    +0.099 C 
ATOM     27  C   UNL     1      33.308 -20.690 -20.386  0.00  0.00    +0.099 C 
ENDBRANCH   6  23
TORSDOF 2
ENDMDL
MODEL 5
REMARK VINA RESULT:     -10.5      1.670      6.802
REMARK  Name = 44177328
REMARK  2 active torsions:
REMARK  status: ('A' for Active; 'I' for Inactive)
REMARK    1  A    between atoms: N_1  and  C_15
REMARK    2  A    between atoms: C_6  and  C_23
REMARK                            x       y       z     vdW  Elec       q    Type
REMARK                         _______ _______ _______ _____ _____    ______ ____
ROOT
ATOM      1  N   UNL     1      33.679 -24.011 -13.616  0.00  0.00    -0.286 N 
ATOM      2  N   UNL     1      33.413 -23.185 -15.819  0.00  0.00    -0.386 NA
ATOM      3  N   UNL     1      30.734 -24.013 -15.784  0.00  0.00    -0.246 NA
ATOM      4  N   UNL     1      31.030 -24.830 -13.576  0.00  0.00    -0.340 N 
ATOM      5  C   UNL     1      32.868 -23.792 -14.746  0.00  0.00    +0.214 C 
ATOM      6  C   UNL     1      32.596 -22.999 -16.874  0.00  0.00    +0.135 C 
ATOM      7  C   UNL     1      31.552 -24.198 -14.728  0.00  0.00    +0.166 C 
ATOM      8  C   UNL     1      31.280 -23.406 -16.856  0.00  0.00    +0.185 C 
ATOM      9  H   UNL     1      33.183 -24.005 -12.766  0.00  0.00    +0.155 HD
ATOM     10  H   UNL     1      30.090 -25.123 -13.558  0.00  0.00    +0.144 HD
ATOM     11  H   UNL     1      31.607 -24.977 -12.792  0.00  0.00    +0.144 HD
ENDROOT
BRANCH   1  15
ATOM     12  N   UNL     1      39.096 -25.060 -13.215  0.00  0.00    -0.312 N 
ATOM     13  C   UNL     1      37.095 -25.365 -14.154  0.00  0.00    +0.016 C 
ATOM     14  C   UNL     1      37.778 -24.667 -13.154  0.00  0.00    +0.048 C 
ATOM     15  C   UNL     1      35.065 -24.237 -13.464  0.00  0.00    +0.050 C 
ATOM     16  C   UNL     1      35.712 -25.144 -14.311  0.00  0.00    +0.016 C 
ATOM     17  C   UNL     1      37.144 -23.756 -12.303  0.00  0.00    +0.016 C 
ATOM     18  C   UNL     1      35.771 -23.555 -12.476  0.00  0.00    +0.016 C 
ATOM     19  C   UNL     1      38.049 -26.189 -14.814  0.00  0.00    +0.017 C 
ATOM     20  C   UNL     1      39.269 -25.980 -14.214  0.00  0.00    +0.062 C 
ATOM     21  H   UNL     1      39.810 -24.728 -12.624  0.00  0.00    +0.152 HD
ENDBRANCH   1  15
BRANCH   6  23
ATOM     22  N   UNL     1      34.321 -21.102 -20.245  0.00  0.00    -0.242 NA
ATOM     23  C   UNL     1      33.182 -22.354 -18.020  0.00  0.00    +0.031 C 
ATOM     24  C   UNL     1      32.378 -21.664 -18.921  0.00  0.00    +0.023 C 
ATOM     25  C   UNL     1      34.556 -22.417 -18.230  0.00  0.00    +0.023 C 
ATOM     26  C   UNL     1      32.990 -21.061 -20.007  0.00  0.00    +0.099 C 
ATOM     27  C   UNL     1      35.071 -21.780 -19.348  0.00  0.00    +0.099 C 
ENDBRANCH   6  23
TORSDOF 2
ENDMDL
MODEL 6
REMARK VINA RESULT:     -10.3      6.817     12.961
REMARK  Name = 44177328
REMARK  2 active torsions:
REMARK  status: ('A' for Active; 'I' for Inactive)
REMARK    1  A    between atoms: N_1  and  C_15
REMARK    2  A    between atoms: C_6  and  C_23
REMARK                            x       y       z     vdW  Elec       q    Type
REMARK                         _______ _______ _______ _____ _____    ______ ____
ROOT
ATOM      1  N   UNL     1      33.001 -15.447 -25.237  0.00  0.00    -0.286 N 
ATOM      2  N   UNL     1      33.408 -13.116 -25.161  0.00  0.00    -0.386 NA
ATOM      3  N   UNL     1      32.979 -12.972 -27.929  0.00  0.00    -0.246 NA
ATOM      4  N   UNL     1      32.575 -15.310 -27.973  0.00  0.00    -0.340 N 
ATOM      5  C   UNL     1      33.104 -14.206 -25.893  0.00  0.00    +0.214 C 
ATOM      6  C   UNL     1      33.494 -11.953 -25.836  0.00  0.00    +0.135 C 
ATOM      7  C   UNL     1      32.892 -14.136 -27.252  0.00  0.00    +0.166 C 
ATOM      8  C   UNL     1      33.283 -11.883 -27.196  0.00  0.00    +0.185 C 
ATOM      9  H   UNL     1      32.364 -16.066 -25.659  0.00  0.00    +0.155 HD
ATOM     10  H   UNL     1      32.423 -15.266 -28.945  0.00  0.00    +0.144 HD
ATOM     11  H   UNL     1      32.506 -16.172 -27.503  0.00  0.00    +0.144 HD
ENDROOT
BRANCH   1  15
ATOM     12  N   UNL     1      35.464 -17.751 -20.851  0.00  0.00    -0.312 N 
ATOM     13  C   UNL     1      34.505 -17.874 -22.862  0.00  0.00    +0.016 C 
ATOM     14  C   UNL     1      34.874 -16.996 -21.840  0.00  0.00    +0.048 C 
ATOM     15  C   UNL     1      33.634 -15.976 -24.090  0.00  0.00    +0.050 C 
ATOM     16  C   UNL     1      33.873 -17.352 -24.009  0.00  0.00    +0.016 C 
ATOM     17  C   UNL     1      34.643 -15.618 -21.909  0.00  0.00    +0.016 C 
ATOM     18  C   UNL     1      34.013 -15.124 -23.056  0.00  0.00    +0.016 C 
ATOM     19  C   UNL     1      34.893 -19.180 -22.451  0.00  0.00    +0.017 C 
ATOM     20  C   UNL     1      35.480 -19.072 -21.211  0.00  0.00    +0.062 C 
ATOM     21  H   UNL     1      35.821 -17.392 -20.007  0.00  0.00    +0.152 HD
ENDBRANCH   1  15
BRANCH   6  23
ATOM     22  N   UNL     1      34.460  -8.535 -23.528  0.00  0.00    -0.242 NA
ATOM     23  C   UNL     1      33.823 -10.791 -25.052  0.00  0.00    +0.031 C 
ATOM     24  C   UNL     1      35.072 -10.194 -25.177  0.00  0.00    +0.023 C 
ATOM     25  C   UNL     1      32.891 -10.260 -24.166  0.00  0.00    +0.023 C 
ATOM     26  C   UNL     1      35.339  -9.079 -24.400  0.00  0.00    +0.099 C 
ATOM     27  C   UNL     1      33.255  -9.142 -23.434  0.00  0.00    +0.099 C 
ENDBRANCH   6  23
TORSDOF 2
ENDMDL
MODEL 7
REMARK VINA RESULT:     -10.3      6.622     11.143
REMARK  Name = 44177328
REMARK  2 active torsions:
REMARK  status: ('A' for Active; 'I' for Inactive)
REMARK    1  A    between atoms: N_1  and  C_15
REMARK    2  A    between atoms: C_6  and  C_23
REMARK                            x       y       z     vdW  Elec       q    Type
REMARK                         _______ _______ _______ _____ _____    ______ ____
ROOT
ATOM      1  N   UNL     1      33.281 -13.286 -25.289  0.00  0.00    -0.286 N 
ATOM      2  N   UNL     1      33.776 -15.365 -24.271  0.00  0.00    -0.386 NA
ATOM      3  N   UNL     1      33.419 -16.637 -26.745  0.00  0.00    -0.246 NA
ATOM      4  N   UNL     1      32.928 -14.539 -27.738  0.00  0.00    -0.340 N 
ATOM      5  C   UNL     1      33.447 -14.680 -25.385  0.00  0.00    +0.214 C 
ATOM      6  C   UNL     1      33.924 -16.697 -24.416  0.00  0.00    +0.135 C 
ATOM      7  C   UNL     1      33.272 -15.304 -26.600  0.00  0.00    +0.166 C 
ATOM      8  C   UNL     1      33.748 -17.321 -25.632  0.00  0.00    +0.185 C 
ATOM      9  H   UNL     1      33.505 -12.803 -26.117  0.00  0.00    +0.155 HD
ATOM     10  H   UNL     1      32.802 -14.980 -28.609  0.00  0.00    +0.144 HD
ATOM     11  H   UNL     1      32.815 -13.564 -27.658  0.00  0.00    +0.144 HD
ENDROOT
BRANCH   1  15
ATOM     12  N   UNL     1      31.688  -9.790 -21.309  0.00  0.00    -0.312 N 
ATOM     13  C   UNL     1      32.572 -10.224 -23.311  0.00  0.00    +0.016 C 
ATOM     14  C   UNL     1      32.017 -10.812 -22.171  0.00  0.00    +0.048 C 
ATOM     15  C   UNL     1      32.855 -12.444 -24.237  0.00  0.00    +0.050 C 
ATOM     16  C   UNL     1      32.999 -11.058 -24.364  0.00  0.00    +0.016 C 
ATOM     17  C   UNL     1      31.867 -12.195 -22.032  0.00  0.00    +0.016 C 
ATOM     18  C   UNL     1      32.298 -13.003 -23.089  0.00  0.00    +0.016 C 
ATOM     19  C   UNL     1      32.564  -8.817 -23.101  0.00  0.00    +0.017 C 
ATOM     20  C   UNL     1      32.015  -8.581 -21.862  0.00  0.00    +0.062 C 
ATOM     21  H   UNL     1      31.278  -9.912 -20.422  0.00  0.00    +0.152 HD
ENDBRANCH   1  15
BRANCH   6  23
ATOM     22  N   UNL     1      34.947 -18.843 -20.911  0.00  0.00    -0.242 NA
ATOM     23  C   UNL     1      34.272 -17.426 -23.224  0.00  0.00    +0.031 C 
ATOM     24  C   UNL     1      34.808 -16.759 -22.128  0.00  0.00    +0.023 C 
ATOM     25  C   UNL     1      34.072 -18.801 -23.164  0.00  0.00    +0.023 C 
ATOM     26  C   UNL     1      35.126 -17.506 -21.006  0.00  0.00    +0.099 C 
ATOM     27  C   UNL     1      34.424 -19.458 -21.995  0.00  0.00    +0.099 C 
ENDBRANCH   6  23
TORSDOF 2
ENDMDL
MODEL 8
REMARK VINA RESULT:     -10.3      6.509     10.764
REMARK  Name = 44177328
REMARK  2 active torsions:
REMARK  status: ('A' for Active; 'I' for Inactive)
REMARK    1  A    between atoms: N_1  and  C_15
REMARK    2  A    between atoms: C_6  and  C_23
REMARK                            x       y       z     vdW  Elec       q    Type
REMARK                         _______ _______ _______ _____ _____    ______ ____
ROOT
ATOM      1  N   UNL     1      32.998 -14.410 -26.155  0.00  0.00    -0.286 N 
ATOM      2  N   UNL     1      33.612 -16.179 -24.706  0.00  0.00    -0.386 NA
ATOM      3  N   UNL     1      32.477 -18.013 -26.498  0.00  0.00    -0.246 NA
ATOM      4  N   UNL     1      31.875 -16.220 -27.930  0.00  0.00    -0.340 N 
ATOM      5  C   UNL     1      33.030 -15.785 -25.856  0.00  0.00    +0.214 C 
ATOM      6  C   UNL     1      33.617 -17.505 -24.467  0.00  0.00    +0.135 C 
ATOM      7  C   UNL     1      32.473 -16.686 -26.737  0.00  0.00    +0.166 C 
ATOM      8  C   UNL     1      33.059 -18.406 -25.348  0.00  0.00    +0.185 C 
ATOM      9  H   UNL     1      33.011 -14.214 -27.119  0.00  0.00    +0.155 HD
ATOM     10  H   UNL     1      31.475 -16.859 -28.563  0.00  0.00    +0.144 HD
ATOM     11  H   UNL     1      31.859 -15.256 -28.128  0.00  0.00    +0.144 HD
ENDROOT
BRANCH   1  15
ATOM     12  N   UNL     1      32.844  -9.751 -23.176  0.00  0.00    -0.312 N 
ATOM     13  C   UNL     1      33.044 -10.847 -25.109  0.00  0.00    +0.016 C 
ATOM     14  C   UNL     1      32.854 -11.010 -23.734  0.00  0.00    +0.048 C 
ATOM     15  C   UNL     1      32.950 -13.257 -25.341  0.00  0.00    +0.050 C 
ATOM     16  C   UNL     1      33.093 -11.994 -25.927  0.00  0.00    +0.016 C 
ATOM     17  C   UNL     1      32.709 -12.265 -23.136  0.00  0.00    +0.016 C 
ATOM     18  C   UNL     1      32.762 -13.389 -23.967  0.00  0.00    +0.016 C 
ATOM     19  C   UNL     1      33.148  -9.449 -25.354  0.00  0.00    +0.017 C 
ATOM     20  C   UNL     1      33.022  -8.802 -24.146  0.00  0.00    +0.062 C 
ATOM     21  H   UNL     1      32.729  -9.562 -22.217  0.00  0.00    +0.152 HD
ENDBRANCH   1  15
BRANCH   6  23
ATOM     22  N   UNL     1      35.438 -18.730 -20.844  0.00  0.00    -0.242 NA
ATOM     23  C   UNL     1      34.236 -17.922 -23.235  0.00  0.00    +0.031 C 
ATOM     24  C   UNL     1      34.386 -19.275 -22.952  0.00  0.00    +0.023 C 
ATOM     25  C   UNL     1      34.688 -16.972 -22.325  0.00  0.00    +0.023 C 
ATOM     26  C   UNL     1      34.988 -19.623 -21.754  0.00  0.00    +0.099 C 
ATOM     27  C   UNL     1      35.276 -17.424 -21.154  0.00  0.00    +0.099 C 
ENDBRANCH   6  23
TORSDOF 2
ENDMDL
MODEL 9
REMARK VINA RESULT:     -10.2      7.898     12.482
REMARK  Name = 44177328
REMARK  2 active torsions:
REMARK  status: ('A' for Active; 'I' for Inactive)
REMARK    1  A    between atoms: N_1  and  C_15
REMARK    2  A    between atoms: C_6  and  C_23
REMARK                            x       y       z     vdW  Elec       q    Type
REMARK                         _______ _______ _______ _____ _____    ______ ____
ROOT
ATOM      1  N   UNL     1      33.253 -10.972 -24.790  0.00  0.00    -0.286 N 
ATOM      2  N   UNL     1      33.694 -13.090 -23.830  0.00  0.00    -0.386 NA
ATOM      3  N   UNL     1      32.940 -14.315 -26.239  0.00  0.00    -0.246 NA
ATOM      4  N   UNL     1      32.508 -12.178 -27.174  0.00  0.00    -0.340 N 
ATOM      5  C   UNL     1      33.291 -12.375 -24.899  0.00  0.00    +0.214 C 
ATOM      6  C   UNL     1      33.713 -14.429 -23.986  0.00  0.00    +0.135 C 
ATOM      7  C   UNL     1      32.922 -12.975 -26.083  0.00  0.00    +0.166 C 
ATOM      8  C   UNL     1      33.342 -15.030 -25.170  0.00  0.00    +0.185 C 
ATOM      9  H   UNL     1      33.415 -10.505 -25.642  0.00  0.00    +0.155 HD
ATOM     10  H   UNL     1      32.243 -12.602 -28.021  0.00  0.00    +0.144 HD
ATOM     11  H   UNL     1      32.485 -11.197 -27.085  0.00  0.00    +0.144 HD
ENDROOT
BRANCH   1  15
ATOM     12  N   UNL     1      32.209  -7.745 -20.419  0.00  0.00    -0.312 N 
ATOM     13  C   UNL     1      31.914  -9.613 -21.604  0.00  0.00    +0.016 C 
ATOM     14  C   UNL     1      32.599  -8.396 -21.569  0.00  0.00    +0.048 C 
ATOM     15  C   UNL     1      33.027 -10.104 -23.699  0.00  0.00    +0.050 C 
ATOM     16  C   UNL     1      32.133 -10.483 -22.691  0.00  0.00    +0.016 C 
ATOM     17  C   UNL     1      33.496  -8.005 -22.569  0.00  0.00    +0.016 C 
ATOM     18  C   UNL     1      33.697  -8.884 -23.637  0.00  0.00    +0.016 C 
ATOM     19  C   UNL     1      31.101  -9.669 -20.438  0.00  0.00    +0.017 C 
ATOM     20  C   UNL     1      31.304  -8.506 -19.730  0.00  0.00    +0.062 C 
ATOM     21  H   UNL     1      32.534  -6.860 -20.136  0.00  0.00    +0.152 HD
ENDBRANCH   1  15
BRANCH   6  23
ATOM     22  N   UNL     1      34.967 -16.670 -20.618  0.00  0.00    -0.242 NA
ATOM     23  C   UNL     1      34.140 -15.191 -22.841  0.00  0.00    +0.031 C 
ATOM     24  C   UNL     1      34.558 -16.508 -22.995  0.00  0.00    +0.023 C 
ATOM     25  C   UNL     1      34.136 -14.612 -21.577  0.00  0.00    +0.023 C 
ATOM     26  C   UNL     1      34.958 -17.198 -21.863  0.00  0.00    +0.099 C 
ATOM     27  C   UNL     1      34.555 -15.387 -20.507  0.00  0.00    +0.099 C 
ENDBRANCH   6  23
TORSDOF 2
ENDMDL
