MODEL 1
REMARK VINA RESULT:     -13.5      0.000      0.000
REMARK  Name = 24794406
REMARK  5 active torsions:
REMARK  status: ('A' for Active; 'I' for Inactive)
REMARK    1  A    between atoms: C_1  and  S_24
REMARK    2  A    between atoms: C_2  and  N_8
REMARK    3  A    between atoms: C_9  and  C_11
REMARK    4  A    between atoms: C_12  and  N_18
REMARK    5  A    between atoms: S_24  and  N_28
REMARK                            x       y       z     vdW  Elec       q    Type
REMARK                         _______ _______ _______ _____ _____    ______ ____
ROOT
ATOM      1  C   UNL     1      32.340 -23.790 -14.887  0.00  0.00    +0.139 C 
ATOM      2  C   UNL     1      31.506 -23.352 -15.915  0.00  0.00    +0.070 C 
ATOM      3  C   UNL     1      31.812 -24.523 -13.824  0.00  0.00    +0.021 C 
ATOM      4  C   UNL     1      30.142 -23.646 -15.880  0.00  0.00    +0.016 C 
ATOM      5  C   UNL     1      30.449 -24.818 -13.790  0.00  0.00    +0.001 C 
ATOM      6  C   UNL     1      29.614 -24.379 -14.819  0.00  0.00    +0.001 C 
ENDROOT
BRANCH   2   8
ATOM      7  O   UNL     1      33.258 -24.201 -18.195  0.00  0.00    -0.270 OA
ATOM      8  N   UNL     1      32.016 -22.605 -17.005  0.00  0.00    -0.279 N 
ATOM      9  C   UNL     1      32.837 -23.042 -18.055  0.00  0.00    +0.250 C 
ATOM     10  H   UNL     1      31.762 -21.654 -17.028  0.00  0.00    +0.155 HD
BRANCH   9  11
ATOM     11  C   UNL     1      33.224 -22.027 -19.021  0.00  0.00    +0.054 C 
ATOM     12  C   UNL     1      33.965 -20.080 -20.877  0.00  0.00    +0.058 C 
ATOM     13  C   UNL     1      32.256 -21.193 -19.582  0.00  0.00    +0.006 C 
ATOM     14  C   UNL     1      34.562 -21.887 -19.389  0.00  0.00    +0.006 C 
ATOM     15  C   UNL     1      32.627 -20.220 -20.510  0.00  0.00    +0.015 C 
ATOM     16  C   UNL     1      34.933 -20.914 -20.317  0.00  0.00    +0.015 C 
BRANCH  12  18
ATOM     17  O   UNL     1      34.978 -17.450 -20.226  0.00  0.00    -0.269 OA
ATOM     18  N   UNL     1      34.351 -19.068 -21.841  0.00  0.00    -0.233 N 
ATOM     19  C   UNL     1      34.872 -17.827 -21.394  0.00  0.00    +0.257 C 
ATOM     20  C   UNL     1      34.191 -19.296 -23.210  0.00  0.00    +0.072 C 
ATOM     21  C   UNL     1      35.289 -16.857 -22.454  0.00  0.00    +0.059 C 
ATOM     22  C   UNL     1      34.540 -18.399 -24.139  0.00  0.00    +0.017 C 
ATOM     23  C   UNL     1      35.112 -17.146 -23.745  0.00  0.00    +0.006 C 
ENDBRANCH  12  18
ENDBRANCH   9  11
ENDBRANCH   2   8
BRANCH   1  24
ATOM     24  S   UNL     1      34.057 -23.441 -14.894  0.00  0.00    +0.076 S 
ATOM     25  O   UNL     1      34.498 -23.384 -13.507  0.00  0.00    -0.150 OA
ATOM     26  O   UNL     1      34.291 -22.293 -15.757  0.00  0.00    -0.150 OA
BRANCH  24  28
ATOM     27 CL   UNL     1      40.342 -26.069 -14.363  0.00  0.00    -0.081 Cl
ATOM     28  N   UNL     1      34.725 -24.855 -15.613  0.00  0.00    -0.199 N 
ATOM     29  N   UNL     1      36.947 -24.155 -15.186  0.00  0.00    -0.227 NA
ATOM     30  C   UNL     1      36.090 -25.193 -15.308  0.00  0.00    +0.147 C 
ATOM     31  C   UNL     1      36.453 -26.521 -15.156  0.00  0.00    +0.036 C 
ATOM     32  C   UNL     1      37.783 -26.802 -14.858  0.00  0.00    +0.016 C 
ATOM     33  C   UNL     1      38.230 -24.466 -14.897  0.00  0.00    +0.112 C 
ATOM     34  C   UNL     1      38.695 -25.760 -14.725  0.00  0.00    +0.077 C 
ATOM     35  H   UNL     1      34.189 -25.417 -16.218  0.00  0.00    +0.175 HD
ENDBRANCH  24  28
ENDBRANCH   1  24
TORSDOF 5
ENDMDL
MODEL 2
REMARK VINA RESULT:     -13.4      0.873      1.062
REMARK  Name = 24794406
REMARK  5 active torsions:
REMARK  status: ('A' for Active; 'I' for Inactive)
REMARK    1  A    between atoms: C_1  and  S_24
REMARK    2  A    between atoms: C_2  and  N_8
REMARK    3  A    between atoms: C_9  and  C_11
REMARK    4  A    between atoms: C_12  and  N_18
REMARK    5  A    between atoms: S_24  and  N_28
REMARK                            x       y       z     vdW  Elec       q    Type
REMARK                         _______ _______ _______ _____ _____    ______ ____
ROOT
ATOM      1  C   UNL     1      32.750 -23.789 -15.121  0.00  0.00    +0.139 C 
ATOM      2  C   UNL     1      31.842 -23.333 -16.077  0.00  0.00    +0.070 C 
ATOM      3  C   UNL     1      32.307 -24.579 -14.060  0.00  0.00    +0.021 C 
ATOM      4  C   UNL     1      30.491 -23.664 -15.970  0.00  0.00    +0.016 C 
ATOM      5  C   UNL     1      30.957 -24.911 -13.954  0.00  0.00    +0.001 C 
ATOM      6  C   UNL     1      30.049 -24.454 -14.910  0.00  0.00    +0.001 C 
ENDROOT
BRANCH   2   8
ATOM      7  O   UNL     1      33.264 -24.088 -18.606  0.00  0.00    -0.270 OA
ATOM      8  N   UNL     1      32.265 -22.529 -17.164  0.00  0.00    -0.279 N 
ATOM      9  C   UNL     1      32.931 -22.923 -18.334  0.00  0.00    +0.250 C 
ATOM     10  H   UNL     1      32.067 -21.568 -17.088  0.00  0.00    +0.155 HD
BRANCH   9  11
ATOM     11  C   UNL     1      33.262 -21.857 -19.265  0.00  0.00    +0.054 C 
ATOM     12  C   UNL     1      33.895 -19.811 -21.052  0.00  0.00    +0.058 C 
ATOM     13  C   UNL     1      32.247 -21.081 -19.825  0.00  0.00    +0.006 C 
ATOM     14  C   UNL     1      34.593 -21.610 -19.600  0.00  0.00    +0.006 C 
ATOM     15  C   UNL     1      32.564 -20.058 -20.719  0.00  0.00    +0.015 C 
ATOM     16  C   UNL     1      34.910 -20.588 -20.493  0.00  0.00    +0.015 C 
BRANCH  12  18
ATOM     17  O   UNL     1      34.992 -17.235 -20.324  0.00  0.00    -0.269 OA
ATOM     18  N   UNL     1      34.225 -18.747 -21.981  0.00  0.00    -0.233 N 
ATOM     19  C   UNL     1      34.796 -17.540 -21.501  0.00  0.00    +0.257 C 
ATOM     20  C   UNL     1      33.962 -18.891 -23.346  0.00  0.00    +0.072 C 
ATOM     21  C   UNL     1      35.148 -16.514 -22.531  0.00  0.00    +0.059 C 
ATOM     22  C   UNL     1      34.256 -17.944 -24.244  0.00  0.00    +0.017 C 
ATOM     23  C   UNL     1      34.873 -16.723 -23.820  0.00  0.00    +0.006 C 
ENDBRANCH  12  18
ENDBRANCH   9  11
ENDBRANCH   2   8
BRANCH   1  24
ATOM     24  S   UNL     1      34.454 -23.395 -15.219  0.00  0.00    +0.076 S 
ATOM     25  O   UNL     1      34.585 -21.960 -15.009  0.00  0.00    -0.150 OA
ATOM     26  O   UNL     1      34.994 -23.982 -16.437  0.00  0.00    -0.150 OA
BRANCH  24  28
ATOM     27 CL   UNL     1      40.460 -26.563 -14.453  0.00  0.00    -0.081 Cl
ATOM     28  N   UNL     1      35.107 -24.203 -13.847  0.00  0.00    -0.199 N 
ATOM     29  N   UNL     1      36.737 -25.326 -15.147  0.00  0.00    -0.227 NA
ATOM     30  C   UNL     1      36.425 -24.770 -13.955  0.00  0.00    +0.147 C 
ATOM     31  C   UNL     1      37.287 -24.722 -12.872  0.00  0.00    +0.036 C 
ATOM     32  C   UNL     1      38.552 -25.281 -13.021  0.00  0.00    +0.016 C 
ATOM     33  C   UNL     1      37.975 -25.859 -15.255  0.00  0.00    +0.112 C 
ATOM     34  C   UNL     1      38.910 -25.862 -14.233  0.00  0.00    +0.077 C 
ATOM     35  H   UNL     1      34.593 -24.277 -13.011  0.00  0.00    +0.175 HD
ENDBRANCH  24  28
ENDBRANCH   1  24
TORSDOF 5
ENDMDL
MODEL 3
REMARK VINA RESULT:     -12.5      7.051     13.275
REMARK  Name = 24794406
REMARK  5 active torsions:
REMARK  status: ('A' for Active; 'I' for Inactive)
REMARK    1  A    between atoms: C_1  and  S_24
REMARK    2  A    between atoms: C_2  and  N_8
REMARK    3  A    between atoms: C_9  and  C_11
REMARK    4  A    between atoms: C_12  and  N_18
REMARK    5  A    between atoms: S_24  and  N_28
REMARK                            x       y       z     vdW  Elec       q    Type
REMARK                         _______ _______ _______ _____ _____    ______ ____
ROOT
ATOM      1  C   UNL     1      32.927 -12.950 -25.408  0.00  0.00    +0.139 C 
ATOM      2  C   UNL     1      32.867 -14.284 -25.809  0.00  0.00    +0.070 C 
ATOM      3  C   UNL     1      32.585 -11.936 -26.303  0.00  0.00    +0.021 C 
ATOM      4  C   UNL     1      32.467 -14.605 -27.107  0.00  0.00    +0.016 C 
ATOM      5  C   UNL     1      32.184 -12.257 -27.600  0.00  0.00    +0.001 C 
ATOM      6  C   UNL     1      32.125 -13.592 -28.001  0.00  0.00    +0.001 C 
ENDROOT
BRANCH   2   8
ATOM      7  O   UNL     1      34.800 -16.552 -26.141  0.00  0.00    -0.270 OA
ATOM      8  N   UNL     1      33.209 -15.333 -24.921  0.00  0.00    -0.279 N 
ATOM      9  C   UNL     1      34.122 -16.379 -25.115  0.00  0.00    +0.250 C 
ATOM     10  H   UNL     1      32.744 -15.328 -24.053  0.00  0.00    +0.155 HD
BRANCH   9  11
ATOM     11  C   UNL     1      34.240 -17.330 -24.021  0.00  0.00    +0.054 C 
ATOM     12  C   UNL     1      34.464 -19.155 -21.924  0.00  0.00    +0.058 C 
ATOM     13  C   UNL     1      34.042 -18.691 -24.257  0.00  0.00    +0.006 C 
ATOM     14  C   UNL     1      34.549 -16.883 -22.737  0.00  0.00    +0.006 C 
ATOM     15  C   UNL     1      34.154 -19.603 -23.207  0.00  0.00    +0.015 C 
ATOM     16  C   UNL     1      34.661 -17.794 -21.688  0.00  0.00    +0.015 C 
BRANCH  12  18
ATOM     17  O   UNL     1      32.247 -20.373 -20.522  0.00  0.00    -0.269 OA
ATOM     18  N   UNL     1      34.581 -20.103 -20.833  0.00  0.00    -0.233 N 
ATOM     19  C   UNL     1      33.414 -20.661 -20.252  0.00  0.00    +0.257 C 
ATOM     20  C   UNL     1      35.837 -20.456 -20.331  0.00  0.00    +0.072 C 
ATOM     21  C   UNL     1      33.624 -21.666 -19.164  0.00  0.00    +0.059 C 
ATOM     22  C   UNL     1      35.998 -21.332 -19.334  0.00  0.00    +0.017 C 
ATOM     23  C   UNL     1      34.856 -21.959 -18.740  0.00  0.00    +0.006 C 
ENDBRANCH  12  18
ENDBRANCH   9  11
ENDBRANCH   2   8
BRANCH   1  24
ATOM     24  S   UNL     1      33.424 -12.505 -23.788  0.00  0.00    +0.076 S 
ATOM     25  O   UNL     1      34.497 -13.408 -23.395  0.00  0.00    -0.150 OA
ATOM     26  O   UNL     1      32.236 -12.413 -22.951  0.00  0.00    -0.150 OA
BRANCH  24  28
ATOM     27 CL   UNL     1      30.913  -6.379 -22.101  0.00  0.00    -0.081 Cl
ATOM     28  N   UNL     1      34.096 -10.938 -24.017  0.00  0.00    -0.199 N 
ATOM     29  N   UNL     1      32.009  -9.873 -23.669  0.00  0.00    -0.227 NA
ATOM     30  C   UNL     1      33.353  -9.802 -23.537  0.00  0.00    +0.147 C 
ATOM     31  C   UNL     1      34.023  -8.726 -22.980  0.00  0.00    +0.036 C 
ATOM     32  C   UNL     1      33.265  -7.651 -22.527  0.00  0.00    +0.016 C 
ATOM     33  C   UNL     1      31.306  -8.810 -23.218  0.00  0.00    +0.112 C 
ATOM     34  C   UNL     1      31.879  -7.687 -22.645  0.00  0.00    +0.077 C 
ATOM     35  H   UNL     1      34.964 -10.820 -24.465  0.00  0.00    +0.175 HD
ENDBRANCH  24  28
ENDBRANCH   1  24
TORSDOF 5
ENDMDL
MODEL 4
REMARK VINA RESULT:     -11.8      6.221     12.346
REMARK  Name = 24794406
REMARK  5 active torsions:
REMARK  status: ('A' for Active; 'I' for Inactive)
REMARK    1  A    between atoms: C_1  and  S_24
REMARK    2  A    between atoms: C_2  and  N_8
REMARK    3  A    between atoms: C_9  and  C_11
REMARK    4  A    between atoms: C_12  and  N_18
REMARK    5  A    between atoms: S_24  and  N_28
REMARK                            x       y       z     vdW  Elec       q    Type
REMARK                         _______ _______ _______ _____ _____    ______ ____
ROOT
ATOM      1  C   UNL     1      32.840 -13.161 -25.498  0.00  0.00    +0.139 C 
ATOM      2  C   UNL     1      32.824 -14.504 -25.876  0.00  0.00    +0.070 C 
ATOM      3  C   UNL     1      32.477 -12.174 -26.415  0.00  0.00    +0.021 C 
ATOM      4  C   UNL     1      32.447 -14.859 -27.171  0.00  0.00    +0.016 C 
ATOM      5  C   UNL     1      32.100 -12.531 -27.710  0.00  0.00    +0.001 C 
ATOM      6  C   UNL     1      32.084 -13.874 -28.087  0.00  0.00    +0.001 C 
ENDROOT
BRANCH   2   8
ATOM      7  O   UNL     1      34.924 -16.632 -26.089  0.00  0.00    -0.270 OA
ATOM      8  N   UNL     1      33.188 -15.526 -24.965  0.00  0.00    -0.279 N 
ATOM      9  C   UNL     1      34.180 -16.506 -25.104  0.00  0.00    +0.250 C 
ATOM     10  H   UNL     1      32.676 -15.552 -24.124  0.00  0.00    +0.155 HD
BRANCH   9  11
ATOM     11  C   UNL     1      34.303 -17.445 -24.001  0.00  0.00    +0.054 C 
ATOM     12  C   UNL     1      34.540 -19.246 -21.883  0.00  0.00    +0.058 C 
ATOM     13  C   UNL     1      34.529 -16.975 -22.707  0.00  0.00    +0.006 C 
ATOM     14  C   UNL     1      34.196 -18.816 -24.234  0.00  0.00    +0.006 C 
ATOM     15  C   UNL     1      34.648 -17.875 -21.648  0.00  0.00    +0.015 C 
ATOM     16  C   UNL     1      34.315 -19.716 -23.176  0.00  0.00    +0.015 C 
BRANCH  12  18
ATOM     17  O   UNL     1      32.330 -20.494 -20.495  0.00  0.00    -0.269 OA
ATOM     18  N   UNL     1      34.663 -20.182 -20.782  0.00  0.00    -0.233 N 
ATOM     19  C   UNL     1      33.499 -20.757 -20.209  0.00  0.00    +0.257 C 
ATOM     20  C   UNL     1      35.919 -20.505 -20.263  0.00  0.00    +0.072 C 
ATOM     21  C   UNL     1      33.717 -21.747 -19.110  0.00  0.00    +0.059 C 
ATOM     22  C   UNL     1      36.086 -21.369 -19.256  0.00  0.00    +0.017 C 
ATOM     23  C   UNL     1      34.949 -22.012 -18.669  0.00  0.00    +0.006 C 
ENDBRANCH  12  18
ENDBRANCH   9  11
ENDBRANCH   2   8
BRANCH   1  24
ATOM     24  S   UNL     1      33.306 -12.673 -23.882  0.00  0.00    +0.076 S 
ATOM     25  O   UNL     1      34.578 -11.970 -23.986  0.00  0.00    -0.150 OA
ATOM     26  O   UNL     1      33.209 -13.831 -23.004  0.00  0.00    -0.150 OA
BRANCH  24  28
ATOM     27 CL   UNL     1      31.241 -10.508 -17.739  0.00  0.00    -0.081 Cl
ATOM     28  N   UNL     1      32.090 -11.528 -23.468  0.00  0.00    -0.199 N 
ATOM     29  N   UNL     1      31.986 -12.283 -21.226  0.00  0.00    -0.227 NA
ATOM     30  C   UNL     1      31.874 -11.237 -22.075  0.00  0.00    +0.147 C 
ATOM     31  C   UNL     1      31.573  -9.945 -21.679  0.00  0.00    +0.036 C 
ATOM     32  C   UNL     1      31.375  -9.709 -20.323  0.00  0.00    +0.016 C 
ATOM     33  C   UNL     1      31.787 -12.016 -19.916  0.00  0.00    +0.112 C 
ATOM     34  C   UNL     1      31.482 -10.760 -19.418  0.00  0.00    +0.077 C 
ATOM     35  H   UNL     1      31.555 -11.083 -24.165  0.00  0.00    +0.175 HD
ENDBRANCH  24  28
ENDBRANCH   1  24
TORSDOF 5
ENDMDL
MODEL 5
REMARK VINA RESULT:     -11.4      7.007     13.370
REMARK  Name = 24794406
REMARK  5 active torsions:
REMARK  status: ('A' for Active; 'I' for Inactive)
REMARK    1  A    between atoms: C_1  and  S_24
REMARK    2  A    between atoms: C_2  and  N_8
REMARK    3  A    between atoms: C_9  and  C_11
REMARK    4  A    between atoms: C_12  and  N_18
REMARK    5  A    between atoms: S_24  and  N_28
REMARK                            x       y       z     vdW  Elec       q    Type
REMARK                         _______ _______ _______ _____ _____    ______ ____
ROOT
ATOM      1  C   UNL     1      32.753 -12.983 -25.338  0.00  0.00    +0.139 C 
ATOM      2  C   UNL     1      32.808 -14.308 -25.770  0.00  0.00    +0.070 C 
ATOM      3  C   UNL     1      32.408 -11.971 -26.234  0.00  0.00    +0.021 C 
ATOM      4  C   UNL     1      32.520 -14.621 -27.099  0.00  0.00    +0.016 C 
ATOM      5  C   UNL     1      32.119 -12.284 -27.562  0.00  0.00    +0.001 C 
ATOM      6  C   UNL     1      32.175 -13.610 -27.994  0.00  0.00    +0.001 C 
ENDROOT
BRANCH   2   8
ATOM      7  O   UNL     1      34.905 -16.438 -26.011  0.00  0.00    -0.270 OA
ATOM      8  N   UNL     1      33.157 -15.354 -24.881  0.00  0.00    -0.279 N 
ATOM      9  C   UNL     1      34.148 -16.335 -25.033  0.00  0.00    +0.250 C 
ATOM     10  H   UNL     1      32.634 -15.401 -24.049  0.00  0.00    +0.155 HD
BRANCH   9  11
ATOM     11  C   UNL     1      34.253 -17.303 -23.953  0.00  0.00    +0.054 C 
ATOM     12  C   UNL     1      34.456 -19.159 -21.880  0.00  0.00    +0.058 C 
ATOM     13  C   UNL     1      34.707 -16.899 -22.697  0.00  0.00    +0.006 C 
ATOM     14  C   UNL     1      33.901 -18.634 -24.172  0.00  0.00    +0.006 C 
ATOM     15  C   UNL     1      34.808 -17.828 -21.661  0.00  0.00    +0.015 C 
ATOM     16  C   UNL     1      34.002 -19.562 -23.136  0.00  0.00    +0.015 C 
BRANCH  12  18
ATOM     17  O   UNL     1      32.222 -20.387 -20.513  0.00  0.00    -0.269 OA
ATOM     18  N   UNL     1      34.561 -20.124 -20.803  0.00  0.00    -0.233 N 
ATOM     19  C   UNL     1      33.386 -20.685 -20.239  0.00  0.00    +0.257 C 
ATOM     20  C   UNL     1      35.811 -20.489 -20.298  0.00  0.00    +0.072 C 
ATOM     21  C   UNL     1      33.585 -21.707 -19.164  0.00  0.00    +0.059 C 
ATOM     22  C   UNL     1      35.961 -21.382 -19.313  0.00  0.00    +0.017 C 
ATOM     23  C   UNL     1      34.812 -22.011 -18.736  0.00  0.00    +0.006 C 
ENDBRANCH  12  18
ENDBRANCH   9  11
ENDBRANCH   2   8
BRANCH   1  24
ATOM     24  S   UNL     1      33.107 -12.548 -23.678  0.00  0.00    +0.076 S 
ATOM     25  O   UNL     1      34.554 -12.594 -23.512  0.00  0.00    -0.150 OA
ATOM     26  O   UNL     1      32.270 -13.354 -22.802  0.00  0.00    -0.150 OA
BRANCH  24  28
ATOM     27 CL   UNL     1      35.577  -7.079 -26.945  0.00  0.00    -0.081 Cl
ATOM     28  N   UNL     1      32.609 -10.902 -23.606  0.00  0.00    -0.199 N 
ATOM     29  N   UNL     1      34.631 -10.133 -24.570  0.00  0.00    -0.227 NA
ATOM     30  C   UNL     1      33.299  -9.946 -24.430  0.00  0.00    +0.147 C 
ATOM     31  C   UNL     1      32.594  -8.911 -25.023  0.00  0.00    +0.036 C 
ATOM     32  C   UNL     1      33.301  -8.011 -25.813  0.00  0.00    +0.016 C 
ATOM     33  C   UNL     1      35.284  -9.238 -25.344  0.00  0.00    +0.112 C 
ATOM     34  C   UNL     1      34.673  -8.171 -25.981  0.00  0.00    +0.077 C 
ATOM     35  H   UNL     1      31.872 -10.622 -23.016  0.00  0.00    +0.175 HD
ENDBRANCH  24  28
ENDBRANCH   1  24
TORSDOF 5
ENDMDL
MODEL 6
REMARK VINA RESULT:     -11.3      1.731      2.248
REMARK  Name = 24794406
REMARK  5 active torsions:
REMARK  status: ('A' for Active; 'I' for Inactive)
REMARK    1  A    between atoms: C_1  and  S_24
REMARK    2  A    between atoms: C_2  and  N_8
REMARK    3  A    between atoms: C_9  and  C_11
REMARK    4  A    between atoms: C_12  and  N_18
REMARK    5  A    between atoms: S_24  and  N_28
REMARK                            x       y       z     vdW  Elec       q    Type
REMARK                         _______ _______ _______ _____ _____    ______ ____
ROOT
ATOM      1  C   UNL     1      32.126 -24.116 -15.167  0.00  0.00    +0.139 C 
ATOM      2  C   UNL     1      31.324 -23.530 -16.146  0.00  0.00    +0.070 C 
ATOM      3  C   UNL     1      31.552 -24.932 -14.192  0.00  0.00    +0.021 C 
ATOM      4  C   UNL     1      29.948 -23.759 -16.150  0.00  0.00    +0.016 C 
ATOM      5  C   UNL     1      30.176 -25.162 -14.197  0.00  0.00    +0.001 C 
ATOM      6  C   UNL     1      29.375 -24.576 -15.177  0.00  0.00    +0.001 C 
ENDROOT
BRANCH   2   8
ATOM      7  O   UNL     1      33.113 -24.205 -18.456  0.00  0.00    -0.270 OA
ATOM      8  N   UNL     1      31.881 -22.697 -17.147  0.00  0.00    -0.279 N 
ATOM      9  C   UNL     1      32.718 -23.054 -18.215  0.00  0.00    +0.250 C 
ATOM     10  H   UNL     1      31.653 -21.741 -17.085  0.00  0.00    +0.155 HD
BRANCH   9  11
ATOM     11  C   UNL     1      33.156 -21.962 -19.070  0.00  0.00    +0.054 C 
ATOM     12  C   UNL     1      33.998 -19.867 -20.708  0.00  0.00    +0.058 C 
ATOM     13  C   UNL     1      34.518 -21.744 -19.278  0.00  0.00    +0.006 C 
ATOM     14  C   UNL     1      32.216 -21.133 -19.680  0.00  0.00    +0.006 C 
ATOM     15  C   UNL     1      34.939 -20.696 -20.097  0.00  0.00    +0.015 C 
ATOM     16  C   UNL     1      32.636 -20.085 -20.499  0.00  0.00    +0.015 C 
BRANCH  12  18
ATOM     17  O   UNL     1      34.629 -20.096 -23.522  0.00  0.00    -0.269 OA
ATOM     18  N   UNL     1      34.436 -18.779 -21.560  0.00  0.00    -0.233 N 
ATOM     19  C   UNL     1      34.677 -19.012 -22.939  0.00  0.00    +0.257 C 
ATOM     20  C   UNL     1      34.646 -17.504 -21.030  0.00  0.00    +0.072 C 
ATOM     21  C   UNL     1      35.080 -17.826 -23.755  0.00  0.00    +0.059 C 
ATOM     22  C   UNL     1      35.039 -16.465 -21.775  0.00  0.00    +0.017 C 
ATOM     23  C   UNL     1      35.255 -16.634 -23.180  0.00  0.00    +0.006 C 
ENDBRANCH  12  18
ENDBRANCH   9  11
ENDBRANCH   2   8
BRANCH   1  24
ATOM     24  S   UNL     1      33.858 -23.854 -15.127  0.00  0.00    +0.076 S 
ATOM     25  O   UNL     1      34.087 -22.421 -15.256  0.00  0.00    -0.150 OA
ATOM     26  O   UNL     1      34.483 -24.757 -16.082  0.00  0.00    -0.150 OA
BRANCH  24  28
ATOM     27 CL   UNL     1      39.758 -23.160 -11.753  0.00  0.00    -0.081 Cl
ATOM     28  N   UNL     1      34.273 -24.325 -13.525  0.00  0.00    -0.199 N 
ATOM     29  N   UNL     1      36.595 -24.155 -13.960  0.00  0.00    -0.227 NA
ATOM     30  C   UNL     1      35.601 -24.032 -13.053  0.00  0.00    +0.147 C 
ATOM     31  C   UNL     1      35.795 -23.649 -11.736  0.00  0.00    +0.036 C 
ATOM     32  C   UNL     1      37.094 -23.373 -11.323  0.00  0.00    +0.016 C 
ATOM     33  C   UNL     1      37.844 -23.879 -13.522  0.00  0.00    +0.112 C 
ATOM     34  C   UNL     1      38.144 -23.488 -12.228  0.00  0.00    +0.077 C 
ATOM     35  H   UNL     1      33.622 -24.783 -12.947  0.00  0.00    +0.175 HD
ENDBRANCH  24  28
ENDBRANCH   1  24
TORSDOF 5
ENDMDL
MODEL 7
REMARK VINA RESULT:     -11.3      3.545      5.897
REMARK  Name = 24794406
REMARK  5 active torsions:
REMARK  status: ('A' for Active; 'I' for Inactive)
REMARK    1  A    between atoms: C_1  and  S_24
REMARK    2  A    between atoms: C_2  and  N_8
REMARK    3  A    between atoms: C_9  and  C_11
REMARK    4  A    between atoms: C_12  and  N_18
REMARK    5  A    between atoms: S_24  and  N_28
REMARK                            x       y       z     vdW  Elec       q    Type
REMARK                         _______ _______ _______ _____ _____    ______ ____
ROOT
ATOM      1  C   UNL     1      34.667 -22.829 -17.219  0.00  0.00    +0.139 C 
ATOM      2  C   UNL     1      35.553 -21.957 -17.851  0.00  0.00    +0.070 C 
ATOM      3  C   UNL     1      35.045 -23.477 -16.043  0.00  0.00    +0.021 C 
ATOM      4  C   UNL     1      36.818 -21.734 -17.307  0.00  0.00    +0.016 C 
ATOM      5  C   UNL     1      36.310 -23.253 -15.499  0.00  0.00    +0.001 C 
ATOM      6  C   UNL     1      37.196 -22.380 -16.132  0.00  0.00    +0.001 C 
ENDROOT
BRANCH   2   8
ATOM      7  O   UNL     1      37.061 -19.926 -19.461  0.00  0.00    -0.270 OA
ATOM      8  N   UNL     1      35.194 -21.287 -19.046  0.00  0.00    -0.279 N 
ATOM      9  C   UNL     1      35.932 -20.339 -19.771  0.00  0.00    +0.250 C 
ATOM     10  H   UNL     1      34.312 -21.515 -19.417  0.00  0.00    +0.155 HD
BRANCH   9  11
ATOM     11  C   UNL     1      35.283 -19.802 -20.955  0.00  0.00    +0.054 C 
ATOM     12  C   UNL     1      34.041 -18.769 -23.230  0.00  0.00    +0.058 C 
ATOM     13  C   UNL     1      36.042 -19.156 -21.933  0.00  0.00    +0.006 C 
ATOM     14  C   UNL     1      33.904 -19.929 -21.116  0.00  0.00    +0.006 C 
ATOM     15  C   UNL     1      35.420 -18.640 -23.070  0.00  0.00    +0.015 C 
ATOM     16  C   UNL     1      33.283 -19.413 -22.252  0.00  0.00    +0.015 C 
BRANCH  12  18
ATOM     17  O   UNL     1      34.037 -15.985 -24.015  0.00  0.00    -0.269 OA
ATOM     18  N   UNL     1      33.394 -18.232 -24.412  0.00  0.00    -0.233 N 
ATOM     19  C   UNL     1      33.499 -16.849 -24.709  0.00  0.00    +0.257 C 
ATOM     20  C   UNL     1      32.647 -19.063 -25.250  0.00  0.00    +0.072 C 
ATOM     21  C   UNL     1      32.842 -16.387 -25.971  0.00  0.00    +0.059 C 
ATOM     22  C   UNL     1      32.041 -18.619 -26.356  0.00  0.00    +0.017 C 
ATOM     23  C   UNL     1      32.149 -17.241 -26.728  0.00  0.00    +0.006 C 
ENDBRANCH  12  18
ENDBRANCH   9  11
ENDBRANCH   2   8
BRANCH   1  24
ATOM     24  S   UNL     1      33.069 -23.136 -17.869  0.00  0.00    +0.076 S 
ATOM     25  O   UNL     1      33.192 -24.210 -18.846  0.00  0.00    -0.150 OA
ATOM     26  O   UNL     1      32.488 -21.867 -18.283  0.00  0.00    -0.150 OA
BRANCH  24  28
ATOM     27 CL   UNL     1      26.437 -22.687 -16.288  0.00  0.00    -0.081 Cl
ATOM     28  N   UNL     1      32.218 -23.746 -16.503  0.00  0.00    -0.199 N 
ATOM     29  N   UNL     1      30.358 -22.332 -16.894  0.00  0.00    -0.227 NA
ATOM     30  C   UNL     1      30.798 -23.525 -16.432  0.00  0.00    +0.147 C 
ATOM     31  C   UNL     1      29.972 -24.509 -15.914  0.00  0.00    +0.036 C 
ATOM     32  C   UNL     1      28.605 -24.253 -15.867  0.00  0.00    +0.016 C 
ATOM     33  C   UNL     1      29.024 -22.120 -16.832  0.00  0.00    +0.112 C 
ATOM     34  C   UNL     1      28.115 -23.038 -16.333  0.00  0.00    +0.077 C 
ATOM     35  H   UNL     1      32.689 -24.232 -15.788  0.00  0.00    +0.175 HD
ENDBRANCH  24  28
ENDBRANCH   1  24
TORSDOF 5
ENDMDL
MODEL 8
REMARK VINA RESULT:     -11.3      3.356      5.637
REMARK  Name = 24794406
REMARK  5 active torsions:
REMARK  status: ('A' for Active; 'I' for Inactive)
REMARK    1  A    between atoms: C_1  and  S_24
REMARK    2  A    between atoms: C_2  and  N_8
REMARK    3  A    between atoms: C_9  and  C_11
REMARK    4  A    between atoms: C_12  and  N_18
REMARK    5  A    between atoms: S_24  and  N_28
REMARK                            x       y       z     vdW  Elec       q    Type
REMARK                         _______ _______ _______ _____ _____    ______ ____
ROOT
ATOM      1  C   UNL     1      34.770 -23.231 -16.604  0.00  0.00    +0.139 C 
ATOM      2  C   UNL     1      35.735 -22.321 -17.032  0.00  0.00    +0.070 C 
ATOM      3  C   UNL     1      35.054 -24.107 -15.556  0.00  0.00    +0.021 C 
ATOM      4  C   UNL     1      36.986 -22.288 -16.415  0.00  0.00    +0.016 C 
ATOM      5  C   UNL     1      36.304 -24.073 -14.938  0.00  0.00    +0.001 C 
ATOM      6  C   UNL     1      37.270 -23.163 -15.368  0.00  0.00    +0.001 C 
ENDROOT
BRANCH   2   8
ATOM      7  O   UNL     1      35.670 -22.783 -19.994  0.00  0.00    -0.270 OA
ATOM      8  N   UNL     1      35.473 -21.420 -18.094  0.00  0.00    -0.279 N 
ATOM      9  C   UNL     1      35.453 -21.678 -19.473  0.00  0.00    +0.250 C 
ATOM     10  H   UNL     1      35.281 -20.491 -17.830  0.00  0.00    +0.155 HD
BRANCH   9  11
ATOM     11  C   UNL     1      35.177 -20.535 -20.327  0.00  0.00    +0.054 C 
ATOM     12  C   UNL     1      34.651 -18.339 -21.966  0.00  0.00    +0.058 C 
ATOM     13  C   UNL     1      36.223 -19.716 -20.755  0.00  0.00    +0.006 C 
ATOM     14  C   UNL     1      33.869 -20.254 -20.720  0.00  0.00    +0.006 C 
ATOM     15  C   UNL     1      35.960 -18.618 -21.574  0.00  0.00    +0.015 C 
ATOM     16  C   UNL     1      33.605 -19.157 -21.538  0.00  0.00    +0.015 C 
BRANCH  12  18
ATOM     17  O   UNL     1      33.852 -18.480 -24.743  0.00  0.00    -0.269 OA
ATOM     18  N   UNL     1      34.377 -17.199 -22.819  0.00  0.00    -0.233 N 
ATOM     19  C   UNL     1      33.953 -17.401 -24.157  0.00  0.00    +0.257 C 
ATOM     20  C   UNL     1      34.550 -15.898 -22.339  0.00  0.00    +0.072 C 
ATOM     21  C   UNL     1      33.647 -16.172 -24.953  0.00  0.00    +0.059 C 
ATOM     22  C   UNL     1      34.301 -14.813 -23.082  0.00  0.00    +0.017 C 
ATOM     23  C   UNL     1      33.830 -14.959 -24.426  0.00  0.00    +0.006 C 
ENDBRANCH  12  18
ENDBRANCH   9  11
ENDBRANCH   2   8
BRANCH   1  24
ATOM     24  S   UNL     1      33.188 -23.304 -17.352  0.00  0.00    +0.076 S 
ATOM     25  O   UNL     1      33.245 -24.312 -18.402  0.00  0.00    -0.150 OA
ATOM     26  O   UNL     1      32.777 -21.950 -17.695  0.00  0.00    -0.150 OA
BRANCH  24  28
ATOM     27 CL   UNL     1      26.444 -22.733 -16.412  0.00  0.00    -0.081 Cl
ATOM     28  N   UNL     1      32.197 -23.907 -16.080  0.00  0.00    -0.199 N 
ATOM     29  N   UNL     1      30.412 -22.453 -16.634  0.00  0.00    -0.227 NA
ATOM     30  C   UNL     1      30.781 -23.658 -16.144  0.00  0.00    +0.147 C 
ATOM     31  C   UNL     1      29.890 -24.629 -15.717  0.00  0.00    +0.036 C 
ATOM     32  C   UNL     1      28.531 -24.346 -15.800  0.00  0.00    +0.016 C 
ATOM     33  C   UNL     1      29.082 -22.214 -16.699  0.00  0.00    +0.112 C 
ATOM     34  C   UNL     1      28.111 -23.117 -16.299  0.00  0.00    +0.077 C 
ATOM     35  H   UNL     1      32.588 -24.408 -15.328  0.00  0.00    +0.175 HD
ENDBRANCH  24  28
ENDBRANCH   1  24
TORSDOF 5
ENDMDL
MODEL 9
REMARK VINA RESULT:     -10.5     11.903     16.256
REMARK  Name = 24794406
REMARK  5 active torsions:
REMARK  status: ('A' for Active; 'I' for Inactive)
REMARK    1  A    between atoms: C_1  and  S_24
REMARK    2  A    between atoms: C_2  and  N_8
REMARK    3  A    between atoms: C_9  and  C_11
REMARK    4  A    between atoms: C_12  and  N_18
REMARK    5  A    between atoms: S_24  and  N_28
REMARK                            x       y       z     vdW  Elec       q    Type
REMARK                         _______ _______ _______ _____ _____    ______ ____
ROOT
ATOM      1  C   UNL     1      32.993  -6.600 -25.971  0.00  0.00    +0.139 C 
ATOM      2  C   UNL     1      33.829  -7.460 -26.682  0.00  0.00    +0.070 C 
ATOM      3  C   UNL     1      33.193  -5.221 -26.037  0.00  0.00    +0.021 C 
ATOM      4  C   UNL     1      34.867  -6.942 -27.458  0.00  0.00    +0.016 C 
ATOM      5  C   UNL     1      34.229  -4.702 -26.814  0.00  0.00    +0.001 C 
ATOM      6  C   UNL     1      35.066  -5.564 -27.525  0.00  0.00    +0.001 C 
ENDROOT
BRANCH   2   8
ATOM      7  O   UNL     1      35.674  -9.617 -25.717  0.00  0.00    -0.270 OA
ATOM      8  N   UNL     1      33.649  -8.864 -26.632  0.00  0.00    -0.279 N 
ATOM      9  C   UNL     1      34.542  -9.843 -26.172  0.00  0.00    +0.250 C 
ATOM     10  H   UNL     1      32.785  -9.197 -26.966  0.00  0.00    +0.155 HD
BRANCH   9  11
ATOM     11  C   UNL     1      34.082 -11.219 -26.273  0.00  0.00    +0.054 C 
ATOM     12  C   UNL     1      33.198 -13.857 -26.470  0.00  0.00    +0.058 C 
ATOM     13  C   UNL     1      34.159 -11.891 -27.493  0.00  0.00    +0.006 C 
ATOM     14  C   UNL     1      33.561 -11.866 -25.153  0.00  0.00    +0.006 C 
ATOM     15  C   UNL     1      33.717 -13.211 -27.591  0.00  0.00    +0.015 C 
ATOM     16  C   UNL     1      33.119 -13.184 -25.251  0.00  0.00    +0.015 C 
BRANCH  12  18
ATOM     17  O   UNL     1      30.900 -14.743 -27.987  0.00  0.00    -0.269 OA
ATOM     18  N   UNL     1      32.738 -15.229 -26.572  0.00  0.00    -0.233 N 
ATOM     19  C   UNL     1      31.617 -15.542 -27.382  0.00  0.00    +0.257 C 
ATOM     20  C   UNL     1      33.377 -16.245 -25.857  0.00  0.00    +0.072 C 
ATOM     21  C   UNL     1      31.238 -16.986 -27.469  0.00  0.00    +0.059 C 
ATOM     22  C   UNL     1      32.999 -17.526 -25.924  0.00  0.00    +0.017 C 
ATOM     23  C   UNL     1      31.900 -17.905 -26.762  0.00  0.00    +0.006 C 
ENDBRANCH  12  18
ENDBRANCH   9  11
ENDBRANCH   2   8
BRANCH   1  24
ATOM     24  S   UNL     1      31.680  -7.211 -24.986  0.00  0.00    +0.076 S 
ATOM     25  O   UNL     1      31.829  -8.657 -24.903  0.00  0.00    -0.150 OA
ATOM     26  O   UNL     1      30.431  -6.657 -25.488  0.00  0.00    -0.150 OA
BRANCH  24  28
ATOM     27 CL   UNL     1      31.607 -10.172 -18.828  0.00  0.00    -0.081 Cl
ATOM     28  N   UNL     1      32.029  -6.544 -23.438  0.00  0.00    -0.199 N 
ATOM     29  N   UNL     1      30.973  -8.336 -22.306  0.00  0.00    -0.227 NA
ATOM     30  C   UNL     1      31.959  -7.412 -22.292  0.00  0.00    +0.147 C 
ATOM     31  C   UNL     1      32.873  -7.268 -21.261  0.00  0.00    +0.036 C 
ATOM     32  C   UNL     1      32.769  -8.130 -20.175  0.00  0.00    +0.016 C 
ATOM     33  C   UNL     1      30.903  -9.156 -21.233  0.00  0.00    +0.112 C 
ATOM     34  C   UNL     1      31.768  -9.095 -20.153  0.00  0.00    +0.077 C 
ATOM     35  H   UNL     1      32.270  -5.595 -23.338  0.00  0.00    +0.175 HD
ENDBRANCH  24  28
ENDBRANCH   1  24
TORSDOF 5
ENDMDL
