MODEL 1
REMARK VINA RESULT:     -12.0      0.000      0.000
REMARK  Name = 24878044
REMARK  6 active torsions:
REMARK  status: ('A' for Active; 'I' for Inactive)
REMARK    1  A    between atoms: N_2  and  C_6
REMARK    2  A    between atoms: C_3  and  C_18
REMARK    3  A    between atoms: C_7  and  S_12
REMARK    4  A    between atoms: S_12  and  N_15
REMARK    5  A    between atoms: C_18  and  S_19
REMARK    6  A    between atoms: S_19  and  C_31
REMARK                            x       y       z     vdW  Elec       q    Type
REMARK                         _______ _______ _______ _____ _____    ______ ____
ROOT
ATOM      1  O   UNL     1      34.187 -18.998 -24.521  0.00  0.00    -0.274 OA
ATOM      2  N   UNL     1      34.723 -18.076 -22.427  0.00  0.00    -0.283 N 
ATOM      3  C   UNL     1      34.569 -18.074 -23.809  0.00  0.00    +0.238 C 
ATOM      4  H   UNL     1      35.056 -17.242 -22.024  0.00  0.00    +0.155 HD
ENDROOT
BRANCH   2   6
ATOM      5 CL   UNL     1      37.138 -19.386 -21.109  0.00  0.00    -0.081 Cl
ATOM      6  C   UNL     1      34.454 -19.140 -21.533  0.00  0.00    +0.061 C 
ATOM      7  C   UNL     1      33.854 -21.228 -19.783  0.00  0.00    +0.123 C 
ATOM      8  C   UNL     1      35.481 -19.813 -20.872  0.00  0.00    +0.072 C 
ATOM      9  C   UNL     1      33.126 -19.512 -21.319  0.00  0.00    +0.017 C 
ATOM     10  C   UNL     1      35.181 -20.856 -19.997  0.00  0.00    +0.033 C 
ATOM     11  C   UNL     1      32.826 -20.555 -20.443  0.00  0.00    +0.021 C 
BRANCH   7  12
ATOM     12  S   UNL     1      33.478 -22.535 -18.687  0.00  0.00    +0.057 S 
ATOM     13  O   UNL     1      34.543 -22.627 -17.699  0.00  0.00    -0.153 OA
ATOM     14  O   UNL     1      32.096 -22.390 -18.251  0.00  0.00    -0.153 OA
BRANCH  12  15
ATOM     15  N   UNL     1      33.584 -23.879 -19.737  0.00  0.00    -0.203 NA
ATOM     16  H   UNL     1      34.168 -24.598 -19.310  0.00  0.00    +0.144 HD
ATOM     17  H   UNL     1      33.995 -23.588 -20.623  0.00  0.00    +0.144 HD
ENDBRANCH  12  15
ENDBRANCH   7  12
ENDBRANCH   2   6
BRANCH   3  18
ATOM     18  C   UNL     1      34.961 -16.745 -24.420  0.00  0.00    +0.152 C 
BRANCH  18  19
ATOM     19  S   UNL     1      33.471 -15.754 -24.665  0.00  0.00    -0.047 S 
BRANCH  19  31
ATOM     20  O   UNL     1      34.082 -15.007 -22.246  0.00  0.00    -0.262 OA
ATOM     21  N   UNL     1      33.084 -13.319 -23.542  0.00  0.00    -0.250 N 
ATOM     22  C   UNL     1      33.497 -11.229 -24.830  0.00  0.00    +0.027 C 
ATOM     23  C   UNL     1      32.475 -10.467 -24.013  0.00  0.00    +0.029 C 
ATOM     24  C   UNL     1      33.112 -12.698 -24.883  0.00  0.00    +0.099 C 
ATOM     25  C   UNL     1      32.219 -11.146 -22.693  0.00  0.00    -0.009 C 
ATOM     26  C   UNL     1      32.507 -12.514 -22.480  0.00  0.00    +0.051 C 
ATOM     27  C   UNL     1      31.635 -10.374 -21.671  0.00  0.00    -0.007 C 
ATOM     28  C   UNL     1      32.171 -13.061 -21.227  0.00  0.00    +0.014 C 
ATOM     29  C   UNL     1      31.337 -10.936 -20.435  0.00  0.00    -0.022 C 
ATOM     30  C   UNL     1      31.601 -12.281 -20.216  0.00  0.00    -0.003 C 
ATOM     31  C   UNL     1      33.592 -14.617 -23.301  0.00  0.00    +0.280 C 
ATOM     32  C   UNL     1      30.753 -10.098 -19.350  0.00  0.00    +0.031 C 
ENDBRANCH  19  31
ENDBRANCH  18  19
ENDBRANCH   3  18
TORSDOF 6
ENDMDL
MODEL 2
REMARK VINA RESULT:     -11.7      1.190      2.440
REMARK  Name = 24878044
REMARK  6 active torsions:
REMARK  status: ('A' for Active; 'I' for Inactive)
REMARK    1  A    between atoms: N_2  and  C_6
REMARK    2  A    between atoms: C_3  and  C_18
REMARK    3  A    between atoms: C_7  and  S_12
REMARK    4  A    between atoms: S_12  and  N_15
REMARK    5  A    between atoms: C_18  and  S_19
REMARK    6  A    between atoms: S_19  and  C_31
REMARK                            x       y       z     vdW  Elec       q    Type
REMARK                         _______ _______ _______ _____ _____    ______ ____
ROOT
ATOM      1  O   UNL     1      34.575 -19.199 -24.306  0.00  0.00    -0.274 OA
ATOM      2  N   UNL     1      34.303 -18.181 -22.205  0.00  0.00    -0.283 N 
ATOM      3  C   UNL     1      34.487 -18.210 -23.583  0.00  0.00    +0.238 C 
ATOM      4  H   UNL     1      34.269 -17.289 -21.790  0.00  0.00    +0.155 HD
ENDROOT
BRANCH   2   6
ATOM      5 CL   UNL     1      36.870 -19.335 -21.037  0.00  0.00    -0.081 Cl
ATOM      6  C   UNL     1      34.158 -19.286 -21.332  0.00  0.00    +0.061 C 
ATOM      7  C   UNL     1      33.801 -21.459 -19.620  0.00  0.00    +0.123 C 
ATOM      8  C   UNL     1      35.263 -19.894 -20.739  0.00  0.00    +0.072 C 
ATOM      9  C   UNL     1      32.873 -19.764 -21.070  0.00  0.00    +0.017 C 
ATOM     10  C   UNL     1      35.085 -20.981 -19.883  0.00  0.00    +0.033 C 
ATOM     11  C   UNL     1      32.695 -20.850 -20.213  0.00  0.00    +0.021 C 
BRANCH   7  12
ATOM     12  S   UNL     1      33.577 -22.819 -18.549  0.00  0.00    +0.057 S 
ATOM     13  O   UNL     1      33.535 -24.033 -19.350  0.00  0.00    -0.153 OA
ATOM     14  O   UNL     1      34.530 -22.707 -17.454  0.00  0.00    -0.153 OA
BRANCH  12  15
ATOM     15  N   UNL     1      32.010 -22.503 -17.945  0.00  0.00    -0.203 NA
ATOM     16  H   UNL     1      31.677 -21.611 -18.314  0.00  0.00    +0.144 HD
ATOM     17  H   UNL     1      32.039 -22.460 -16.927  0.00  0.00    +0.144 HD
ENDBRANCH  12  15
ENDBRANCH   7  12
ENDBRANCH   2   6
BRANCH   3  18
ATOM     18  C   UNL     1      34.600 -16.819 -24.169  0.00  0.00    +0.152 C 
BRANCH  18  19
ATOM     19  S   UNL     1      34.555 -15.614 -22.824  0.00  0.00    -0.047 S 
BRANCH  19  31
ATOM     20  O   UNL     1      33.180 -14.446 -24.704  0.00  0.00    -0.262 OA
ATOM     21  N   UNL     1      33.048 -13.371 -22.618  0.00  0.00    -0.250 N 
ATOM     22  C   UNL     1      31.614 -12.966 -20.624  0.00  0.00    +0.027 C 
ATOM     23  C   UNL     1      31.722 -11.465 -20.793  0.00  0.00    +0.029 C 
ATOM     24  C   UNL     1      32.865 -13.630 -21.174  0.00  0.00    +0.099 C 
ATOM     25  C   UNL     1      32.114 -11.103 -22.201  0.00  0.00    -0.009 C 
ATOM     26  C   UNL     1      32.756 -12.021 -23.065  0.00  0.00    +0.051 C 
ATOM     27  C   UNL     1      31.856  -9.786 -22.627  0.00  0.00    -0.007 C 
ATOM     28  C   UNL     1      33.134 -11.558 -24.339  0.00  0.00    +0.014 C 
ATOM     29  C   UNL     1      32.219  -9.365 -23.900  0.00  0.00    -0.022 C 
ATOM     30  C   UNL     1      32.861 -10.251 -24.754  0.00  0.00    -0.003 C 
ATOM     31  C   UNL     1      33.477 -14.377 -23.515  0.00  0.00    +0.280 C 
ATOM     32  C   UNL     1      31.906  -7.979 -24.350  0.00  0.00    +0.031 C 
ENDBRANCH  19  31
ENDBRANCH  18  19
ENDBRANCH   3  18
TORSDOF 6
ENDMDL
MODEL 3
REMARK VINA RESULT:     -11.5      5.498     11.849
REMARK  Name = 24878044
REMARK  6 active torsions:
REMARK  status: ('A' for Active; 'I' for Inactive)
REMARK    1  A    between atoms: N_2  and  C_6
REMARK    2  A    between atoms: C_3  and  C_18
REMARK    3  A    between atoms: C_7  and  S_12
REMARK    4  A    between atoms: S_12  and  N_15
REMARK    5  A    between atoms: C_18  and  S_19
REMARK    6  A    between atoms: S_19  and  C_31
REMARK                            x       y       z     vdW  Elec       q    Type
REMARK                         _______ _______ _______ _____ _____    ______ ____
ROOT
ATOM      1  O   UNL     1      31.370 -22.028 -17.820  0.00  0.00    -0.274 OA
ATOM      2  N   UNL     1      33.576 -22.459 -18.508  0.00  0.00    -0.283 N 
ATOM      3  C   UNL     1      32.410 -22.681 -17.783  0.00  0.00    +0.238 C 
ATOM      4  H   UNL     1      34.319 -23.082 -18.337  0.00  0.00    +0.155 HD
ENDROOT
BRANCH   2   6
ATOM      5 CL   UNL     1      36.479 -21.623 -18.903  0.00  0.00    -0.081 Cl
ATOM      6  C   UNL     1      33.815 -21.443 -19.464  0.00  0.00    +0.061 C 
ATOM      7  C   UNL     1      34.217 -19.439 -21.362  0.00  0.00    +0.123 C 
ATOM      8  C   UNL     1      35.104 -20.982 -19.728  0.00  0.00    +0.072 C 
ATOM      9  C   UNL     1      32.726 -20.902 -20.149  0.00  0.00    +0.017 C 
ATOM     10  C   UNL     1      35.305 -19.980 -20.677  0.00  0.00    +0.033 C 
ATOM     11  C   UNL     1      32.927 -19.900 -21.099  0.00  0.00    +0.021 C 
BRANCH   7  12
ATOM     12  S   UNL     1      34.469 -18.184 -22.550  0.00  0.00    +0.057 S 
ATOM     13  O   UNL     1      33.484 -18.350 -23.609  0.00  0.00    -0.153 OA
ATOM     14  O   UNL     1      34.580 -16.907 -21.858  0.00  0.00    -0.153 OA
BRANCH  12  15
ATOM     15  N   UNL     1      36.007 -18.615 -23.157  0.00  0.00    -0.203 NA
ATOM     16  H   UNL     1      36.123 -18.229 -24.094  0.00  0.00    +0.144 HD
ATOM     17  H   UNL     1      36.086 -19.630 -23.195  0.00  0.00    +0.144 HD
ENDBRANCH  12  15
ENDBRANCH   7  12
ENDBRANCH   2   6
BRANCH   3  18
ATOM     18  C   UNL     1      32.537 -23.870 -16.855  0.00  0.00    +0.152 C 
BRANCH  18  19
ATOM     19  S   UNL     1      32.672 -23.271 -15.156  0.00  0.00    -0.047 S 
BRANCH  19  31
ATOM     20  O   UNL     1      35.036 -22.355 -15.752  0.00  0.00    -0.262 OA
ATOM     21  N   UNL     1      35.032 -23.901 -13.982  0.00  0.00    -0.250 N 
ATOM     22  C   UNL     1      35.209 -24.170 -11.514  0.00  0.00    +0.027 C 
ATOM     23  C   UNL     1      36.362 -25.140 -11.655  0.00  0.00    +0.029 C 
ATOM     24  C   UNL     1      34.316 -24.260 -12.740  0.00  0.00    +0.099 C 
ATOM     25  C   UNL     1      37.037 -24.992 -12.993  0.00  0.00    -0.009 C 
ATOM     26  C   UNL     1      36.388 -24.404 -14.104  0.00  0.00    +0.051 C 
ATOM     27  C   UNL     1      38.342 -25.504 -13.120  0.00  0.00    -0.007 C 
ATOM     28  C   UNL     1      37.090 -24.372 -15.323  0.00  0.00    +0.014 C 
ATOM     29  C   UNL     1      39.019 -25.436 -14.331  0.00  0.00    -0.022 C 
ATOM     30  C   UNL     1      38.391 -24.874 -15.433  0.00  0.00    -0.003 C 
ATOM     31  C   UNL     1      34.437 -23.110 -14.993  0.00  0.00    +0.280 C 
ATOM     32  C   UNL     1      40.415 -25.948 -14.441  0.00  0.00    +0.031 C 
ENDBRANCH  19  31
ENDBRANCH  18  19
ENDBRANCH   3  18
TORSDOF 6
ENDMDL
MODEL 4
REMARK VINA RESULT:     -11.1      5.375      9.632
REMARK  Name = 24878044
REMARK  6 active torsions:
REMARK  status: ('A' for Active; 'I' for Inactive)
REMARK    1  A    between atoms: N_2  and  C_6
REMARK    2  A    between atoms: C_3  and  C_18
REMARK    3  A    between atoms: C_7  and  S_12
REMARK    4  A    between atoms: S_12  and  N_15
REMARK    5  A    between atoms: C_18  and  S_19
REMARK    6  A    between atoms: S_19  and  C_31
REMARK                            x       y       z     vdW  Elec       q    Type
REMARK                         _______ _______ _______ _____ _____    ______ ____
ROOT
ATOM      1  O   UNL     1      32.308 -10.428 -26.661  0.00  0.00    -0.274 OA
ATOM      2  N   UNL     1      33.828 -10.920 -24.937  0.00  0.00    -0.283 N 
ATOM      3  C   UNL     1      33.291 -11.016 -26.216  0.00  0.00    +0.238 C 
ATOM      4  H   UNL     1      34.616 -11.480 -24.754  0.00  0.00    +0.155 HD
ENDROOT
BRANCH   2   6
ATOM      5 CL   UNL     1      35.247  -8.251 -24.557  0.00  0.00    -0.081 Cl
ATOM      6  C   UNL     1      33.372 -10.110 -23.870  0.00  0.00    +0.061 C 
ATOM      7  C   UNL     1      32.424  -8.562 -21.752  0.00  0.00    +0.123 C 
ATOM      8  C   UNL     1      33.947  -8.868 -23.603  0.00  0.00    +0.072 C 
ATOM      9  C   UNL     1      32.323 -10.579 -23.078  0.00  0.00    +0.017 C 
ATOM     10  C   UNL     1      33.472  -8.094 -22.544  0.00  0.00    +0.033 C 
ATOM     11  C   UNL     1      31.848  -9.805 -22.019  0.00  0.00    +0.021 C 
BRANCH   7  12
ATOM     12  S   UNL     1      31.830  -7.594 -20.426  0.00  0.00    +0.057 S 
ATOM     13  O   UNL     1      31.197  -6.403 -20.974  0.00  0.00    -0.153 OA
ATOM     14  O   UNL     1      31.087  -8.457 -19.519  0.00  0.00    -0.153 OA
BRANCH  12  15
ATOM     15  N   UNL     1      33.296  -7.141 -19.673  0.00  0.00    -0.203 NA
ATOM     16  H   UNL     1      33.557  -7.848 -18.985  0.00  0.00    +0.144 HD
ATOM     17  H   UNL     1      33.176  -6.241 -19.208  0.00  0.00    +0.144 HD
ENDBRANCH  12  15
ENDBRANCH   7  12
ENDBRANCH   2   6
BRANCH   3  18
ATOM     18  C   UNL     1      34.058 -11.993 -27.082  0.00  0.00    +0.152 C 
BRANCH  18  19
ATOM     19  S   UNL     1      32.981 -13.388 -27.482  0.00  0.00    -0.047 S 
BRANCH  19  31
ATOM     20  O   UNL     1      32.952 -13.596 -24.886  0.00  0.00    -0.262 OA
ATOM     21  N   UNL     1      32.946 -15.661 -26.008  0.00  0.00    -0.250 N 
ATOM     22  C   UNL     1      31.549 -17.608 -26.682  0.00  0.00    +0.027 C 
ATOM     23  C   UNL     1      32.495 -18.580 -26.009  0.00  0.00    +0.029 C 
ATOM     24  C   UNL     1      32.320 -16.381 -27.137  0.00  0.00    +0.099 C 
ATOM     25  C   UNL     1      33.336 -17.888 -24.970  0.00  0.00    -0.009 C 
ATOM     26  C   UNL     1      33.553 -16.491 -24.982  0.00  0.00    +0.051 C 
ATOM     27  C   UNL     1      33.948 -18.694 -23.991  0.00  0.00    -0.007 C 
ATOM     28  C   UNL     1      34.407 -15.957 -23.999  0.00  0.00    +0.014 C 
ATOM     29  C   UNL     1      34.767 -18.135 -23.017  0.00  0.00    -0.022 C 
ATOM     30  C   UNL     1      34.999 -16.767 -23.025  0.00  0.00    -0.003 C 
ATOM     31  C   UNL     1      32.951 -14.249 -25.924  0.00  0.00    +0.280 C 
ATOM     32  C   UNL     1      35.377 -18.995 -21.965  0.00  0.00    +0.031 C 
ENDBRANCH  19  31
ENDBRANCH  18  19
ENDBRANCH   3  18
TORSDOF 6
ENDMDL
MODEL 5
REMARK VINA RESULT:     -11.1      3.366      5.276
REMARK  Name = 24878044
REMARK  6 active torsions:
REMARK  status: ('A' for Active; 'I' for Inactive)
REMARK    1  A    between atoms: N_2  and  C_6
REMARK    2  A    between atoms: C_3  and  C_18
REMARK    3  A    between atoms: C_7  and  S_12
REMARK    4  A    between atoms: S_12  and  N_15
REMARK    5  A    between atoms: C_18  and  S_19
REMARK    6  A    between atoms: S_19  and  C_31
REMARK                            x       y       z     vdW  Elec       q    Type
REMARK                         _______ _______ _______ _____ _____    ______ ____
ROOT
ATOM      1  O   UNL     1      36.483 -19.831 -19.779  0.00  0.00    -0.274 OA
ATOM      2  N   UNL     1      34.743 -21.373 -19.431  0.00  0.00    -0.283 N 
ATOM      3  C   UNL     1      35.443 -20.390 -20.121  0.00  0.00    +0.238 C 
ATOM      4  H   UNL     1      33.916 -21.697 -19.856  0.00  0.00    +0.155 HD
ENDROOT
BRANCH   2   6
ATOM      5 CL   UNL     1      32.505 -22.827 -17.961  0.00  0.00    -0.081 Cl
ATOM      6  C   UNL     1      35.083 -21.961 -18.190  0.00  0.00    +0.061 C 
ATOM      7  C   UNL     1      35.819 -23.098 -15.751  0.00  0.00    +0.123 C 
ATOM      8  C   UNL     1      34.140 -22.652 -17.430  0.00  0.00    +0.072 C 
ATOM      9  C   UNL     1      36.395 -21.838 -17.730  0.00  0.00    +0.017 C 
ATOM     10  C   UNL     1      34.508 -23.220 -16.211  0.00  0.00    +0.033 C 
ATOM     11  C   UNL     1      36.763 -22.407 -16.511  0.00  0.00    +0.021 C 
BRANCH   7  12
ATOM     12  S   UNL     1      36.280 -23.809 -14.225  0.00  0.00    +0.057 S 
ATOM     13  O   UNL     1      36.283 -25.257 -14.374  0.00  0.00    -0.153 OA
ATOM     14  O   UNL     1      37.473 -23.129 -13.739  0.00  0.00    -0.153 OA
BRANCH  12  15
ATOM     15  N   UNL     1      34.955 -23.359 -13.243  0.00  0.00    -0.203 NA
ATOM     16  H   UNL     1      34.407 -22.643 -13.720  0.00  0.00    +0.144 HD
ATOM     17  H   UNL     1      35.298 -22.992 -12.356  0.00  0.00    +0.144 HD
ENDBRANCH  12  15
ENDBRANCH   7  12
ENDBRANCH   2   6
BRANCH   3  18
ATOM     18  C   UNL     1      34.763 -20.015 -21.421  0.00  0.00    +0.152 C 
BRANCH  18  19
ATOM     19  S   UNL     1      35.616 -18.593 -22.137  0.00  0.00    -0.047 S 
BRANCH  19  31
ATOM     20  O   UNL     1      33.508 -18.593 -23.667  0.00  0.00    -0.262 OA
ATOM     21  N   UNL     1      34.296 -16.445 -23.129  0.00  0.00    -0.250 N 
ATOM     22  C   UNL     1      33.901 -14.422 -21.732  0.00  0.00    +0.027 C 
ATOM     23  C   UNL     1      33.875 -13.526 -22.952  0.00  0.00    +0.029 C 
ATOM     24  C   UNL     1      34.790 -15.624 -22.003  0.00  0.00    +0.099 C 
ATOM     25  C   UNL     1      33.580 -14.316 -24.200  0.00  0.00    -0.009 C 
ATOM     26  C   UNL     1      33.792 -15.712 -24.277  0.00  0.00    +0.051 C 
ATOM     27  C   UNL     1      33.118 -13.604 -25.323  0.00  0.00    -0.007 C 
ATOM     28  C   UNL     1      33.542 -16.341 -25.511  0.00  0.00    +0.014 C 
ATOM     29  C   UNL     1      32.855 -14.256 -26.522  0.00  0.00    -0.022 C 
ATOM     30  C   UNL     1      33.072 -15.623 -26.616  0.00  0.00    -0.003 C 
ATOM     31  C   UNL     1      34.305 -17.859 -23.092  0.00  0.00    +0.280 C 
ATOM     32  C   UNL     1      32.331 -13.495 -27.691  0.00  0.00    +0.031 C 
ENDBRANCH  19  31
ENDBRANCH  18  19
ENDBRANCH   3  18
TORSDOF 6
ENDMDL
MODEL 6
REMARK VINA RESULT:     -10.9      3.909      6.087
REMARK  Name = 24878044
REMARK  6 active torsions:
REMARK  status: ('A' for Active; 'I' for Inactive)
REMARK    1  A    between atoms: N_2  and  C_6
REMARK    2  A    between atoms: C_3  and  C_18
REMARK    3  A    between atoms: C_7  and  S_12
REMARK    4  A    between atoms: S_12  and  N_15
REMARK    5  A    between atoms: C_18  and  S_19
REMARK    6  A    between atoms: S_19  and  C_31
REMARK                            x       y       z     vdW  Elec       q    Type
REMARK                         _______ _______ _______ _____ _____    ______ ____
ROOT
ATOM      1  O   UNL     1      36.812 -20.513 -18.259  0.00  0.00    -0.274 OA
ATOM      2  N   UNL     1      35.310 -22.320 -18.235  0.00  0.00    -0.283 N 
ATOM      3  C   UNL     1      36.037 -21.286 -18.815  0.00  0.00    +0.238 C 
ATOM      4  H   UNL     1      34.724 -22.831 -18.839  0.00  0.00    +0.155 HD
ENDROOT
BRANCH   2   6
ATOM      5 CL   UNL     1      32.635 -23.192 -17.065  0.00  0.00    -0.081 Cl
ATOM      6  C   UNL     1      35.316 -22.721 -16.878  0.00  0.00    +0.061 C 
ATOM      7  C   UNL     1      35.398 -23.500 -14.201  0.00  0.00    +0.123 C 
ATOM      8  C   UNL     1      34.150 -23.140 -16.238  0.00  0.00    +0.072 C 
ATOM      9  C   UNL     1      36.523 -22.691 -16.179  0.00  0.00    +0.017 C 
ATOM     10  C   UNL     1      34.191 -23.530 -14.899  0.00  0.00    +0.033 C 
ATOM     11  C   UNL     1      36.565 -23.080 -14.840  0.00  0.00    +0.021 C 
BRANCH   7  12
ATOM     12  S   UNL     1      35.450 -23.987 -12.525  0.00  0.00    +0.057 S 
ATOM     13  O   UNL     1      36.485 -23.214 -11.853  0.00  0.00    -0.153 OA
ATOM     14  O   UNL     1      34.091 -23.987 -12.000  0.00  0.00    -0.153 OA
BRANCH  12  15
ATOM     15  N   UNL     1      35.980 -25.605 -12.673  0.00  0.00    -0.203 NA
ATOM     16  H   UNL     1      36.985 -25.651 -12.499  0.00  0.00    +0.144 HD
ATOM     17  H   UNL     1      35.782 -25.943 -13.614  0.00  0.00    +0.144 HD
ENDBRANCH  12  15
ENDBRANCH   7  12
ENDBRANCH   2   6
BRANCH   3  18
ATOM     18  C   UNL     1      35.764 -21.164 -20.299  0.00  0.00    +0.152 C 
BRANCH  18  19
ATOM     19  S   UNL     1      34.254 -20.201 -20.536  0.00  0.00    -0.047 S 
BRANCH  19  31
ATOM     20  O   UNL     1      35.775 -18.087 -20.509  0.00  0.00    -0.262 OA
ATOM     21  N   UNL     1      34.387 -18.238 -22.399  0.00  0.00    -0.250 N 
ATOM     22  C   UNL     1      34.309 -18.766 -24.831  0.00  0.00    +0.027 C 
ATOM     23  C   UNL     1      33.703 -17.417 -25.153  0.00  0.00    +0.029 C 
ATOM     24  C   UNL     1      33.903 -19.184 -23.428  0.00  0.00    +0.099 C 
ATOM     25  C   UNL     1      33.967 -16.426 -24.051  0.00  0.00    -0.009 C 
ATOM     26  C   UNL     1      34.287 -16.829 -22.733  0.00  0.00    +0.051 C 
ATOM     27  C   UNL     1      33.843 -15.059 -24.366  0.00  0.00    -0.007 C 
ATOM     28  C   UNL     1      34.454 -15.819 -21.767  0.00  0.00    +0.014 C 
ATOM     29  C   UNL     1      34.039 -14.083 -23.396  0.00  0.00    -0.022 C 
ATOM     30  C   UNL     1      34.340 -14.464 -22.096  0.00  0.00    -0.003 C 
ATOM     31  C   UNL     1      34.921 -18.675 -21.165  0.00  0.00    +0.280 C 
ATOM     32  C   UNL     1      33.942 -12.640 -23.753  0.00  0.00    +0.031 C 
ENDBRANCH  19  31
ENDBRANCH  18  19
ENDBRANCH   3  18
TORSDOF 6
ENDMDL
MODEL 7
REMARK VINA RESULT:     -10.9      4.567      7.128
REMARK  Name = 24878044
REMARK  6 active torsions:
REMARK  status: ('A' for Active; 'I' for Inactive)
REMARK    1  A    between atoms: N_2  and  C_6
REMARK    2  A    between atoms: C_3  and  C_18
REMARK    3  A    between atoms: C_7  and  S_12
REMARK    4  A    between atoms: S_12  and  N_15
REMARK    5  A    between atoms: C_18  and  S_19
REMARK    6  A    between atoms: S_19  and  C_31
REMARK                            x       y       z     vdW  Elec       q    Type
REMARK                         _______ _______ _______ _____ _____    ______ ____
ROOT
ATOM      1  O   UNL     1      36.584 -21.022 -17.716  0.00  0.00    -0.274 OA
ATOM      2  N   UNL     1      34.962 -22.683 -17.352  0.00  0.00    -0.283 N 
ATOM      3  C   UNL     1      35.636 -21.711 -18.083  0.00  0.00    +0.238 C 
ATOM      4  H   UNL     1      34.212 -23.128 -17.809  0.00  0.00    +0.155 HD
ENDROOT
BRANCH   2   6
ATOM      5 CL   UNL     1      32.550 -23.452 -15.657  0.00  0.00    -0.081 Cl
ATOM      6  C   UNL     1      35.230 -23.105 -16.028  0.00  0.00    +0.061 C 
ATOM      7  C   UNL     1      35.830 -23.929 -13.432  0.00  0.00    +0.123 C 
ATOM      8  C   UNL     1      34.205 -23.481 -15.162  0.00  0.00    +0.072 C 
ATOM      9  C   UNL     1      36.557 -23.140 -15.596  0.00  0.00    +0.017 C 
ATOM     10  C   UNL     1      34.504 -23.894 -13.864  0.00  0.00    +0.033 C 
ATOM     11  C   UNL     1      36.857 -23.553 -14.297  0.00  0.00    +0.021 C 
BRANCH   7  12
ATOM     12  S   UNL     1      36.205 -24.445 -11.806  0.00  0.00    +0.057 S 
ATOM     13  O   UNL     1      34.956 -24.723 -11.112  0.00  0.00    -0.153 OA
ATOM     14  O   UNL     1      37.240 -25.467 -11.872  0.00  0.00    -0.153 OA
BRANCH  12  15
ATOM     15  N   UNL     1      36.886 -23.016 -11.161  0.00  0.00    -0.203 NA
ATOM     16  H   UNL     1      36.173 -22.287 -11.123  0.00  0.00    +0.144 HD
ATOM     17  H   UNL     1      37.656 -22.708 -11.754  0.00  0.00    +0.144 HD
ENDBRANCH  12  15
ENDBRANCH   7  12
ENDBRANCH   2   6
BRANCH   3  18
ATOM     18  C   UNL     1      35.054 -21.540 -19.470  0.00  0.00    +0.152 C 
BRANCH  18  19
ATOM     19  S   UNL     1      35.857 -20.133 -20.270  0.00  0.00    -0.047 S 
BRANCH  19  31
ATOM     20  O   UNL     1      33.636 -20.327 -21.617  0.00  0.00    -0.262 OA
ATOM     21  N   UNL     1      34.683 -18.231 -21.801  0.00  0.00    -0.250 N 
ATOM     22  C   UNL     1      34.618 -15.852 -21.071  0.00  0.00    +0.027 C 
ATOM     23  C   UNL     1      34.579 -15.363 -22.504  0.00  0.00    +0.029 C 
ATOM     24  C   UNL     1      35.353 -17.179 -21.007  0.00  0.00    +0.099 C 
ATOM     25  C   UNL     1      34.100 -16.446 -23.434  0.00  0.00    -0.009 C 
ATOM     26  C   UNL     1      34.160 -17.817 -23.091  0.00  0.00    +0.051 C 
ATOM     27  C   UNL     1      33.618 -16.049 -24.696  0.00  0.00    -0.007 C 
ATOM     28  C   UNL     1      33.742 -18.748 -24.061  0.00  0.00    +0.014 C 
ATOM     29  C   UNL     1      33.188 -16.990 -25.623  0.00  0.00    -0.022 C 
ATOM     30  C   UNL     1      33.255 -18.339 -25.306  0.00  0.00    -0.003 C 
ATOM     31  C   UNL     1      34.551 -19.559 -21.335  0.00  0.00    +0.280 C 
ATOM     32  C   UNL     1      32.646 -16.552 -26.941  0.00  0.00    +0.031 C 
ENDBRANCH  19  31
ENDBRANCH  18  19
ENDBRANCH   3  18
TORSDOF 6
ENDMDL
MODEL 8
REMARK VINA RESULT:     -10.9      4.206     10.830
REMARK  Name = 24878044
REMARK  6 active torsions:
REMARK  status: ('A' for Active; 'I' for Inactive)
REMARK    1  A    between atoms: N_2  and  C_6
REMARK    2  A    between atoms: C_3  and  C_18
REMARK    3  A    between atoms: C_7  and  S_12
REMARK    4  A    between atoms: S_12  and  N_15
REMARK    5  A    between atoms: C_18  and  S_19
REMARK    6  A    between atoms: S_19  and  C_31
REMARK                            x       y       z     vdW  Elec       q    Type
REMARK                         _______ _______ _______ _____ _____    ______ ____
ROOT
ATOM      1  O   UNL     1      33.520 -19.950 -20.869  0.00  0.00    -0.274 OA
ATOM      2  N   UNL     1      35.404 -19.082 -21.973  0.00  0.00    -0.283 N 
ATOM      3  C   UNL     1      34.733 -19.854 -21.031  0.00  0.00    +0.238 C 
ATOM      4  H   UNL     1      36.388 -19.119 -21.945  0.00  0.00    +0.155 HD
ENDROOT
BRANCH   2   6
ATOM      5 CL   UNL     1      34.858 -16.192 -21.174  0.00  0.00    -0.081 Cl
ATOM      6  C   UNL     1      34.836 -18.249 -22.967  0.00  0.00    +0.061 C 
ATOM      7  C   UNL     1      33.717 -16.664 -24.971  0.00  0.00    +0.123 C 
ATOM      8  C   UNL     1      34.544 -16.910 -22.714  0.00  0.00    +0.072 C 
ATOM      9  C   UNL     1      34.569 -18.797 -24.222  0.00  0.00    +0.017 C 
ATOM     10  C   UNL     1      33.985 -16.117 -23.716  0.00  0.00    +0.033 C 
ATOM     11  C   UNL     1      34.010 -18.005 -25.224  0.00  0.00    +0.021 C 
BRANCH   7  12
ATOM     12  S   UNL     1      33.017 -15.673 -26.226  0.00  0.00    +0.057 S 
ATOM     13  O   UNL     1      34.065 -15.321 -27.173  0.00  0.00    -0.153 OA
ATOM     14  O   UNL     1      31.800 -16.317 -26.699  0.00  0.00    -0.153 OA
BRANCH  12  15
ATOM     15  N   UNL     1      32.589 -14.277 -25.336  0.00  0.00    -0.203 NA
ATOM     16  H   UNL     1      33.434 -13.817 -24.998  0.00  0.00    +0.144 HD
ATOM     17  H   UNL     1      32.006 -14.545 -24.543  0.00  0.00    +0.144 HD
ENDBRANCH  12  15
ENDBRANCH   7  12
ENDBRANCH   2   6
BRANCH   3  18
ATOM     18  C   UNL     1      35.689 -20.611 -20.134  0.00  0.00    +0.152 C 
BRANCH  18  19
ATOM     19  S   UNL     1      34.815 -22.012 -19.401  0.00  0.00    -0.047 S 
BRANCH  19  31
ATOM     20  O   UNL     1      36.413 -21.252 -17.490  0.00  0.00    -0.262 OA
ATOM     21  N   UNL     1      34.818 -22.843 -16.822  0.00  0.00    -0.250 N 
ATOM     22  C   UNL     1      32.687 -23.194 -15.583  0.00  0.00    +0.027 C 
ATOM     23  C   UNL     1      33.322 -24.240 -14.692  0.00  0.00    +0.029 C 
ATOM     24  C   UNL     1      33.384 -23.185 -16.933  0.00  0.00    +0.099 C 
ATOM     25  C   UNL     1      34.822 -24.103 -14.677  0.00  0.00    -0.009 C 
ATOM     26  C   UNL     1      35.529 -23.439 -15.706  0.00  0.00    +0.051 C 
ATOM     27  C   UNL     1      35.516 -24.704 -13.610  0.00  0.00    -0.007 C 
ATOM     28  C   UNL     1      36.934 -23.423 -15.623  0.00  0.00    +0.014 C 
ATOM     29  C   UNL     1      36.903 -24.651 -13.541  0.00  0.00    -0.022 C 
ATOM     30  C   UNL     1      37.611 -24.014 -14.551  0.00  0.00    -0.003 C 
ATOM     31  C   UNL     1      35.461 -21.983 -17.743  0.00  0.00    +0.280 C 
ATOM     32  C   UNL     1      37.622 -25.259 -12.386  0.00  0.00    +0.031 C 
ENDBRANCH  19  31
ENDBRANCH  18  19
ENDBRANCH   3  18
TORSDOF 6
ENDMDL
MODEL 9
REMARK VINA RESULT:     -10.8      5.244      8.367
REMARK  Name = 24878044
REMARK  6 active torsions:
REMARK  status: ('A' for Active; 'I' for Inactive)
REMARK    1  A    between atoms: N_2  and  C_6
REMARK    2  A    between atoms: C_3  and  C_18
REMARK    3  A    between atoms: C_7  and  S_12
REMARK    4  A    between atoms: S_12  and  N_15
REMARK    5  A    between atoms: C_18  and  S_19
REMARK    6  A    between atoms: S_19  and  C_31
REMARK                            x       y       z     vdW  Elec       q    Type
REMARK                         _______ _______ _______ _____ _____    ______ ____
ROOT
ATOM      1  O   UNL     1      31.684 -23.292 -15.713  0.00  0.00    -0.274 OA
ATOM      2  N   UNL     1      33.884 -23.131 -16.522  0.00  0.00    -0.283 N 
ATOM      3  C   UNL     1      32.499 -23.048 -16.599  0.00  0.00    +0.238 C 
ATOM      4  H   UNL     1      34.380 -22.909 -17.343  0.00  0.00    +0.155 HD
ENDROOT
BRANCH   2   6
ATOM      5 CL   UNL     1      36.788 -22.207 -16.526  0.00  0.00    -0.081 Cl
ATOM      6  C   UNL     1      34.664 -23.496 -15.398  0.00  0.00    +0.061 C 
ATOM      7  C   UNL     1      36.143 -24.247 -13.156  0.00  0.00    +0.123 C 
ATOM      8  C   UNL     1      36.005 -23.128 -15.293  0.00  0.00    +0.072 C 
ATOM      9  C   UNL     1      34.062 -24.241 -14.383  0.00  0.00    +0.017 C 
ATOM     10  C   UNL     1      36.744 -23.503 -14.171  0.00  0.00    +0.033 C 
ATOM     11  C   UNL     1      34.802 -24.616 -13.262  0.00  0.00    +0.021 C 
BRANCH   7  12
ATOM     12  S   UNL     1      37.068 -24.718 -11.752  0.00  0.00    +0.057 S 
ATOM     13  O   UNL     1      37.096 -26.172 -11.686  0.00  0.00    -0.153 OA
ATOM     14  O   UNL     1      38.317 -23.969 -11.749  0.00  0.00    -0.153 OA
BRANCH  12  15
ATOM     15  N   UNL     1      36.073 -24.129 -10.494  0.00  0.00    -0.203 NA
ATOM     16  H   UNL     1      36.573 -23.407  -9.975  0.00  0.00    +0.144 HD
ATOM     17  H   UNL     1      35.830 -24.894  -9.865  0.00  0.00    +0.144 HD
ENDBRANCH  12  15
ENDBRANCH   7  12
ENDBRANCH   2   6
BRANCH   3  18
ATOM     18  C   UNL     1      32.032 -22.622 -17.975  0.00  0.00    +0.152 C 
BRANCH  18  19
ATOM     19  S   UNL     1      33.432 -22.693 -19.114  0.00  0.00    -0.047 S 
BRANCH  19  31
ATOM     20  O   UNL     1      32.280 -20.472 -19.840  0.00  0.00    -0.262 OA
ATOM     21  N   UNL     1      34.550 -20.608 -20.435  0.00  0.00    -0.250 N 
ATOM     22  C   UNL     1      36.848 -19.823 -19.888  0.00  0.00    +0.027 C 
ATOM     23  C   UNL     1      37.059 -19.308 -21.297  0.00  0.00    +0.029 C 
ATOM     24  C   UNL     1      35.879 -20.992 -19.914  0.00  0.00    +0.099 C 
ATOM     25  C   UNL     1      35.744 -19.080 -21.994  0.00  0.00    -0.009 C 
ATOM     26  C   UNL     1      34.549 -19.712 -21.578  0.00  0.00    +0.051 C 
ATOM     27  C   UNL     1      35.746 -18.234 -23.119  0.00  0.00    -0.007 C 
ATOM     28  C   UNL     1      33.389 -19.475 -22.339  0.00  0.00    +0.014 C 
ATOM     29  C   UNL     1      34.580 -17.998 -23.836  0.00  0.00    -0.022 C 
ATOM     30  C   UNL     1      33.403 -18.623 -23.449  0.00  0.00    -0.003 C 
ATOM     31  C   UNL     1      33.348 -21.076 -19.855  0.00  0.00    +0.280 C 
ATOM     32  C   UNL     1      34.590 -17.071 -25.003  0.00  0.00    +0.031 C 
ENDBRANCH  19  31
ENDBRANCH  18  19
ENDBRANCH   3  18
TORSDOF 6
ENDMDL
