MODEL 1
REMARK VINA RESULT:     -11.7      0.000      0.000
REMARK  Name = 3168
REMARK  6 active torsions:
REMARK  status: ('A' for Active; 'I' for Inactive)
REMARK    1  A    between atoms: N_1  and  C_19
REMARK    2  A    between atoms: C_5  and  N_9
REMARK    3  A    between atoms: C_19  and  C_20
REMARK    4  A    between atoms: C_20  and  C_21
REMARK    5  A    between atoms: C_21  and  C_23
REMARK    6  A    between atoms: C_23  and  C_25
REMARK                            x       y       z     vdW  Elec       q    Type
REMARK                         _______ _______ _______ _____ _____    ______ ____
ROOT
ATOM      1  N   UNL     1      34.423 -15.867 -24.536  0.00  0.00    +0.390 N 
ATOM      2  C   UNL     1      33.164 -15.397 -25.126  0.00  0.00    -0.071 C 
ATOM      3  C   UNL     1      33.116 -13.861 -25.125  0.00  0.00    +0.021 C 
ATOM      4  C   UNL     1      34.528 -15.454 -23.127  0.00  0.00    -0.049 C 
ATOM      5  C   UNL     1      33.554 -13.269 -23.815  0.00  0.00    +0.037 C 
ATOM      6  C   UNL     1      34.188 -14.008 -22.893  0.00  0.00    -0.036 C 
ATOM      7  H   UNL     1      35.189 -15.437 -25.054  0.00  0.00    -0.079 HD
ENDROOT
BRANCH   5   9
ATOM      8  O   UNL     1      31.412 -12.091 -22.089  0.00  0.00    -0.246 OA
ATOM      9  N   UNL     1      33.262 -11.953 -23.598  0.00  0.00    -0.263 N 
ATOM     10  N   UNL     1      32.294 -10.034 -22.839  0.00  0.00    -0.305 N 
ATOM     11  C   UNL     1      33.937 -10.854 -24.164  0.00  0.00    +0.083 A 
ATOM     12  C   UNL     1      32.217 -11.452 -22.755  0.00  0.00    +0.332 A 
ATOM     13  C   UNL     1      33.338  -9.687 -23.694  0.00  0.00    +0.076 A 
ATOM     14  C   UNL     1      35.006 -10.806 -25.036  0.00  0.00    +0.019 C 
ATOM     15  C   UNL     1      33.768  -8.431 -24.063  0.00  0.00    +0.019 C 
ATOM     16  C   UNL     1      35.461  -9.542 -25.426  0.00  0.00    +0.002 C 
ATOM     17  C   UNL     1      34.848  -8.367 -24.945  0.00  0.00    +0.002 C 
ATOM     18  H   UNL     1      31.706  -9.399 -22.369  0.00  0.00    +0.170 HD
ENDBRANCH   5   9
BRANCH   1  19
ATOM     19  C   UNL     1      34.552 -17.318 -24.662  0.00  0.00    -0.076 C 
BRANCH  19  20
ATOM     20  C   UNL     1      34.089 -18.003 -23.375  0.00  0.00    -0.015 C 
BRANCH  20  21
ATOM     21  C   UNL     1      35.054 -19.102 -22.921  0.00  0.00    +0.067 C 
BRANCH  21  23
ATOM     22  O   UNL     1      36.017 -18.278 -20.866  0.00  0.00    -0.291 OA
ATOM     23  C   UNL     1      35.299 -19.108 -21.419  0.00  0.00    +0.173 C 
BRANCH  23  25
ATOM     24  F   UNL     1      32.781 -23.011 -18.320  0.00  0.00    -0.204 F 
ATOM     25  C   UNL     1      34.625 -20.149 -20.590  0.00  0.00    +0.035 C 
ATOM     26  C   UNL     1      35.406 -21.039 -19.887  0.00  0.00    +0.005 C 
ATOM     27  C   UNL     1      33.250 -20.183 -20.560  0.00  0.00    +0.005 C 
ATOM     28  C   UNL     1      34.777 -22.015 -19.113  0.00  0.00    +0.030 C 
ATOM     29  C   UNL     1      32.620 -21.159 -19.787  0.00  0.00    +0.030 C 
ATOM     30  C   UNL     1      33.385 -22.075 -19.063  0.00  0.00    +0.140 C 
ENDBRANCH  23  25
ENDBRANCH  21  23
ENDBRANCH  20  21
ENDBRANCH  19  20
ENDBRANCH   1  19
TORSDOF 6
ENDMDL
MODEL 2
REMARK VINA RESULT:     -11.5      3.902      7.000
REMARK  Name = 3168
REMARK  6 active torsions:
REMARK  status: ('A' for Active; 'I' for Inactive)
REMARK    1  A    between atoms: N_1  and  C_19
REMARK    2  A    between atoms: C_5  and  N_9
REMARK    3  A    between atoms: C_19  and  C_20
REMARK    4  A    between atoms: C_20  and  C_21
REMARK    5  A    between atoms: C_21  and  C_23
REMARK    6  A    between atoms: C_23  and  C_25
REMARK                            x       y       z     vdW  Elec       q    Type
REMARK                         _______ _______ _______ _____ _____    ______ ____
ROOT
ATOM      1  N   UNL     1      35.014 -21.147 -19.031  0.00  0.00    +0.390 N 
ATOM      2  C   UNL     1      36.174 -21.072 -19.927  0.00  0.00    -0.071 C 
ATOM      3  C   UNL     1      36.185 -19.728 -20.673  0.00  0.00    +0.021 C 
ATOM      4  C   UNL     1      33.757 -21.092 -19.796  0.00  0.00    -0.049 C 
ATOM      5  C   UNL     1      34.835 -19.360 -21.223  0.00  0.00    +0.037 C 
ATOM      6  C   UNL     1      33.724 -20.000 -20.829  0.00  0.00    -0.036 C 
ATOM      7  H   UNL     1      35.046 -20.339 -18.410  0.00  0.00    -0.079 HD
ENDROOT
BRANCH   5   9
ATOM      8  O   UNL     1      34.963 -19.575 -24.205  0.00  0.00    -0.246 OA
ATOM      9  N   UNL     1      34.792 -18.360 -22.152  0.00  0.00    -0.263 N 
ATOM     10  N   UNL     1      34.777 -17.223 -24.127  0.00  0.00    -0.305 N 
ATOM     11  C   UNL     1      34.674 -16.984 -21.877  0.00  0.00    +0.083 A 
ATOM     12  C   UNL     1      34.859 -18.532 -23.574  0.00  0.00    +0.332 A 
ATOM     13  C   UNL     1      34.666 -16.299 -23.091  0.00  0.00    +0.076 A 
ATOM     14  C   UNL     1      34.577 -16.311 -20.677  0.00  0.00    +0.019 C 
ATOM     15  C   UNL     1      34.562 -14.927 -23.168  0.00  0.00    +0.019 C 
ATOM     16  C   UNL     1      34.471 -14.917 -20.728  0.00  0.00    +0.002 C 
ATOM     17  C   UNL     1      34.463 -14.232 -21.961  0.00  0.00    +0.002 C 
ATOM     18  H   UNL     1      34.795 -17.006 -25.087  0.00  0.00    +0.170 HD
ENDBRANCH   5   9
BRANCH   1  19
ATOM     19  C   UNL     1      35.066 -22.352 -18.205  0.00  0.00    -0.076 C 
BRANCH  19  20
ATOM     20  C   UNL     1      36.061 -22.165 -17.059  0.00  0.00    -0.015 C 
BRANCH  20  21
ATOM     21  C   UNL     1      35.430 -22.440 -15.691  0.00  0.00    +0.067 C 
BRANCH  21  23
ATOM     22  O   UNL     1      34.948 -24.801 -15.822  0.00  0.00    -0.291 OA
ATOM     23  C   UNL     1      34.518 -23.659 -15.680  0.00  0.00    +0.173 C 
BRANCH  23  25
ATOM     24  F   UNL     1      29.043 -22.903 -14.891  0.00  0.00    -0.204 F 
ATOM     25  C   UNL     1      33.056 -23.455 -15.470  0.00  0.00    +0.035 C 
ATOM     26  C   UNL     1      32.566 -23.471 -14.183  0.00  0.00    +0.005 C 
ATOM     27  C   UNL     1      32.251 -23.261 -16.569  0.00  0.00    +0.005 C 
ATOM     28  C   UNL     1      31.198 -23.283 -13.986  0.00  0.00    +0.030 C 
ATOM     29  C   UNL     1      30.883 -23.073 -16.372  0.00  0.00    +0.030 C 
ATOM     30  C   UNL     1      30.356 -23.084 -15.080  0.00  0.00    +0.140 C 
ENDBRANCH  23  25
ENDBRANCH  21  23
ENDBRANCH  20  21
ENDBRANCH  19  20
ENDBRANCH   1  19
TORSDOF 6
ENDMDL
MODEL 3
REMARK VINA RESULT:     -11.5      4.250      7.108
REMARK  Name = 3168
REMARK  6 active torsions:
REMARK  status: ('A' for Active; 'I' for Inactive)
REMARK    1  A    between atoms: N_1  and  C_19
REMARK    2  A    between atoms: C_5  and  N_9
REMARK    3  A    between atoms: C_19  and  C_20
REMARK    4  A    between atoms: C_20  and  C_21
REMARK    5  A    between atoms: C_21  and  C_23
REMARK    6  A    between atoms: C_23  and  C_25
REMARK                            x       y       z     vdW  Elec       q    Type
REMARK                         _______ _______ _______ _____ _____    ______ ____
ROOT
ATOM      1  N   UNL     1      34.902 -21.086 -19.131  0.00  0.00    +0.390 N 
ATOM      2  C   UNL     1      36.041 -20.925 -20.044  0.00  0.00    -0.071 C 
ATOM      3  C   UNL     1      36.019 -19.527 -20.681  0.00  0.00    +0.021 C 
ATOM      4  C   UNL     1      33.627 -20.988 -19.861  0.00  0.00    -0.049 C 
ATOM      5  C   UNL     1      34.652 -19.135 -21.170  0.00  0.00    +0.037 C 
ATOM      6  C   UNL     1      33.558 -19.819 -20.804  0.00  0.00    -0.036 C 
ATOM      7  H   UNL     1      34.940 -20.329 -18.449  0.00  0.00    -0.079 HD
ENDROOT
BRANCH   5   9
ATOM      8  O   UNL     1      34.898 -16.224 -20.524  0.00  0.00    -0.246 OA
ATOM      9  N   UNL     1      34.577 -18.066 -22.015  0.00  0.00    -0.263 N 
ATOM     10  N   UNL     1      34.558 -15.942 -22.843  0.00  0.00    -0.305 N 
ATOM     11  C   UNL     1      34.361 -18.126 -23.405  0.00  0.00    +0.083 A 
ATOM     12  C   UNL     1      34.704 -16.688 -21.640  0.00  0.00    +0.332 A 
ATOM     13  C   UNL     1      34.351 -16.824 -23.901  0.00  0.00    +0.076 A 
ATOM     14  C   UNL     1      34.179 -19.209 -24.242  0.00  0.00    +0.019 C 
ATOM     15  C   UNL     1      34.162 -16.539 -25.235  0.00  0.00    +0.019 C 
ATOM     16  C   UNL     1      33.983 -18.946 -25.602  0.00  0.00    +0.002 C 
ATOM     17  C   UNL     1      33.975 -17.624 -26.093  0.00  0.00    +0.002 C 
ATOM     18  H   UNL     1      34.596 -14.960 -22.916  0.00  0.00    +0.170 HD
ENDBRANCH   5   9
BRANCH   1  19
ATOM     19  C   UNL     1      34.987 -22.352 -18.404  0.00  0.00    -0.076 C 
BRANCH  19  20
ATOM     20  C   UNL     1      35.961 -22.225 -17.232  0.00  0.00    -0.015 C 
BRANCH  20  21
ATOM     21  C   UNL     1      35.263 -22.376 -15.877  0.00  0.00    +0.067 C 
BRANCH  21  23
ATOM     22  O   UNL     1      34.828 -24.750 -15.881  0.00  0.00    -0.291 OA
ATOM     23  C   UNL     1      34.377 -23.610 -15.789  0.00  0.00    +0.173 C 
BRANCH  23  25
ATOM     24  F   UNL     1      28.902 -22.912 -14.946  0.00  0.00    -0.204 F 
ATOM     25  C   UNL     1      32.915 -23.425 -15.563  0.00  0.00    +0.035 C 
ATOM     26  C   UNL     1      32.103 -23.196 -16.651  0.00  0.00    +0.005 C 
ATOM     27  C   UNL     1      32.431 -23.489 -14.276  0.00  0.00    +0.005 C 
ATOM     28  C   UNL     1      30.735 -23.021 -16.440  0.00  0.00    +0.030 C 
ATOM     29  C   UNL     1      31.063 -23.314 -14.065  0.00  0.00    +0.030 C 
ATOM     30  C   UNL     1      30.215 -23.080 -15.148  0.00  0.00    +0.140 C 
ENDBRANCH  23  25
ENDBRANCH  21  23
ENDBRANCH  20  21
ENDBRANCH  19  20
ENDBRANCH   1  19
TORSDOF 6
ENDMDL
MODEL 4
REMARK VINA RESULT:     -11.4      4.474      7.716
REMARK  Name = 3168
REMARK  6 active torsions:
REMARK  status: ('A' for Active; 'I' for Inactive)
REMARK    1  A    between atoms: N_1  and  C_19
REMARK    2  A    between atoms: C_5  and  N_9
REMARK    3  A    between atoms: C_19  and  C_20
REMARK    4  A    between atoms: C_20  and  C_21
REMARK    5  A    between atoms: C_21  and  C_23
REMARK    6  A    between atoms: C_23  and  C_25
REMARK                            x       y       z     vdW  Elec       q    Type
REMARK                         _______ _______ _______ _____ _____    ______ ____
ROOT
ATOM      1  N   UNL     1      33.967 -21.712 -19.117  0.00  0.00    +0.390 N 
ATOM      2  C   UNL     1      35.165 -21.733 -19.966  0.00  0.00    -0.071 C 
ATOM      3  C   UNL     1      35.470 -20.322 -20.491  0.00  0.00    +0.021 C 
ATOM      4  C   UNL     1      32.785 -21.297 -19.890  0.00  0.00    -0.049 C 
ATOM      5  C   UNL     1      34.246 -19.618 -21.005  0.00  0.00    +0.037 C 
ATOM      6  C   UNL     1      33.014 -20.078 -20.739  0.00  0.00    -0.036 C 
ATOM      7  H   UNL     1      34.122 -21.029 -18.376  0.00  0.00    -0.079 HD
ENDROOT
BRANCH   5   9
ATOM      8  O   UNL     1      35.082 -16.882 -20.125  0.00  0.00    -0.246 OA
ATOM      9  N   UNL     1      34.443 -18.501 -21.766  0.00  0.00    -0.263 N 
ATOM     10  N   UNL     1      34.921 -16.372 -22.424  0.00  0.00    -0.305 N 
ATOM     11  C   UNL     1      34.286 -18.416 -23.162  0.00  0.00    +0.083 A 
ATOM     12  C   UNL     1      34.845 -17.214 -21.279  0.00  0.00    +0.332 A 
ATOM     13  C   UNL     1      34.580 -17.112 -23.554  0.00  0.00    +0.076 A 
ATOM     14  C   UNL     1      33.914 -19.372 -24.086  0.00  0.00    +0.019 C 
ATOM     15  C   UNL     1      34.521 -16.700 -24.867  0.00  0.00    +0.019 C 
ATOM     16  C   UNL     1      33.846 -18.978 -25.427  0.00  0.00    +0.002 C 
ATOM     17  C   UNL     1      34.146 -17.656 -25.813  0.00  0.00    +0.002 C 
ATOM     18  H   UNL     1      35.174 -15.420 -22.418  0.00  0.00    +0.170 HD
ENDBRANCH   5   9
BRANCH   1  19
ATOM     19  C   UNL     1      33.745 -23.014 -18.490  0.00  0.00    -0.076 C 
BRANCH  19  20
ATOM     20  C   UNL     1      32.656 -22.906 -17.421  0.00  0.00    -0.015 C 
BRANCH  20  21
ATOM     21  C   UNL     1      33.189 -23.204 -16.016  0.00  0.00    +0.067 C 
BRANCH  21  23
ATOM     22  O   UNL     1      32.557 -24.744 -14.268  0.00  0.00    -0.291 OA
ATOM     23  C   UNL     1      32.197 -23.958 -15.142  0.00  0.00    +0.173 C 
BRANCH  23  25
ATOM     24  F   UNL     1      26.738 -23.053 -15.887  0.00  0.00    -0.204 F 
ATOM     25  C   UNL     1      30.740 -23.717 -15.343  0.00  0.00    +0.035 C 
ATOM     26  C   UNL     1      30.222 -22.487 -15.004  0.00  0.00    +0.005 C 
ATOM     27  C   UNL     1      29.966 -24.732 -15.857  0.00  0.00    +0.005 C 
ATOM     28  C   UNL     1      28.857 -22.260 -15.190  0.00  0.00    +0.030 C 
ATOM     29  C   UNL     1      28.602 -24.507 -16.042  0.00  0.00    +0.030 C 
ATOM     30  C   UNL     1      28.047 -23.270 -15.709  0.00  0.00    +0.140 C 
ENDBRANCH  23  25
ENDBRANCH  21  23
ENDBRANCH  20  21
ENDBRANCH  19  20
ENDBRANCH   1  19
TORSDOF 6
ENDMDL
MODEL 5
REMARK VINA RESULT:     -11.4      1.368      2.690
REMARK  Name = 3168
REMARK  6 active torsions:
REMARK  status: ('A' for Active; 'I' for Inactive)
REMARK    1  A    between atoms: N_1  and  C_19
REMARK    2  A    between atoms: C_5  and  N_9
REMARK    3  A    between atoms: C_19  and  C_20
REMARK    4  A    between atoms: C_20  and  C_21
REMARK    5  A    between atoms: C_21  and  C_23
REMARK    6  A    between atoms: C_23  and  C_25
REMARK                            x       y       z     vdW  Elec       q    Type
REMARK                         _______ _______ _______ _____ _____    ______ ____
ROOT
ATOM      1  N   UNL     1      33.560 -16.086 -24.305  0.00  0.00    +0.390 N 
ATOM      2  C   UNL     1      34.562 -15.472 -23.425  0.00  0.00    -0.071 C 
ATOM      3  C   UNL     1      34.050 -14.123 -22.894  0.00  0.00    +0.021 C 
ATOM      4  C   UNL     1      33.317 -15.245 -25.489  0.00  0.00    -0.049 C 
ATOM      5  C   UNL     1      33.432 -13.275 -23.970  0.00  0.00    +0.037 C 
ATOM      6  C   UNL     1      33.111 -13.790 -25.166  0.00  0.00    -0.036 C 
ATOM      7  H   UNL     1      32.688 -16.161 -23.781  0.00  0.00    -0.079 HD
ENDROOT
BRANCH   5   9
ATOM      8  O   UNL     1      34.740 -10.875 -25.187  0.00  0.00    -0.246 OA
ATOM      9  N   UNL     1      33.227 -11.956 -23.682  0.00  0.00    -0.263 N 
ATOM     10  N   UNL     1      33.359  -9.681 -23.690  0.00  0.00    -0.305 N 
ATOM     11  C   UNL     1      32.329 -11.450 -22.724  0.00  0.00    +0.083 A 
ATOM     12  C   UNL     1      33.891 -10.848 -24.306  0.00  0.00    +0.332 A 
ATOM     13  C   UNL     1      32.417 -10.060 -22.736  0.00  0.00    +0.076 A 
ATOM     14  C   UNL     1      31.465 -12.102 -21.867  0.00  0.00    +0.019 C 
ATOM     15  C   UNL     1      31.661  -9.260 -21.908  0.00  0.00    +0.019 C 
ATOM     16  C   UNL     1      30.686 -11.312 -21.015  0.00  0.00    +0.002 C 
ATOM     17  C   UNL     1      30.783  -9.906 -21.035  0.00  0.00    +0.002 C 
ATOM     18  H   UNL     1      33.616  -8.754 -23.903  0.00  0.00    +0.170 HD
ENDBRANCH   5   9
BRANCH   1  19
ATOM     19  C   UNL     1      33.964 -17.433 -24.701  0.00  0.00    -0.076 C 
BRANCH  19  20
ATOM     20  C   UNL     1      35.019 -17.974 -23.735  0.00  0.00    -0.015 C 
BRANCH  20  21
ATOM     21  C   UNL     1      34.512 -19.177 -22.934  0.00  0.00    +0.067 C 
BRANCH  21  23
ATOM     22  O   UNL     1      35.020 -17.946 -20.920  0.00  0.00    -0.291 OA
ATOM     23  C   UNL     1      34.656 -19.004 -21.428  0.00  0.00    +0.173 C 
BRANCH  23  25
ATOM     24  F   UNL     1      33.418 -23.317 -18.106  0.00  0.00    -0.204 F 
ATOM     25  C   UNL     1      34.326 -20.157 -20.542  0.00  0.00    +0.035 C 
ATOM     26  C   UNL     1      33.002 -20.443 -20.297  0.00  0.00    +0.005 C 
ATOM     27  C   UNL     1      35.357 -20.892 -20.001  0.00  0.00    +0.005 C 
ATOM     28  C   UNL     1      32.692 -21.520 -19.466  0.00  0.00    +0.030 C 
ATOM     29  C   UNL     1      35.048 -21.969 -19.170  0.00  0.00    +0.030 C 
ATOM     30  C   UNL     1      33.715 -22.283 -18.903  0.00  0.00    +0.140 C 
ENDBRANCH  23  25
ENDBRANCH  21  23
ENDBRANCH  20  21
ENDBRANCH  19  20
ENDBRANCH   1  19
TORSDOF 6
ENDMDL
MODEL 6
REMARK VINA RESULT:     -11.3      4.455      7.497
REMARK  Name = 3168
REMARK  6 active torsions:
REMARK  status: ('A' for Active; 'I' for Inactive)
REMARK    1  A    between atoms: N_1  and  C_19
REMARK    2  A    between atoms: C_5  and  N_9
REMARK    3  A    between atoms: C_19  and  C_20
REMARK    4  A    between atoms: C_20  and  C_21
REMARK    5  A    between atoms: C_21  and  C_23
REMARK    6  A    between atoms: C_23  and  C_25
REMARK                            x       y       z     vdW  Elec       q    Type
REMARK                         _______ _______ _______ _____ _____    ______ ____
ROOT
ATOM      1  N   UNL     1      35.003 -20.907 -19.335  0.00  0.00    +0.390 N 
ATOM      2  C   UNL     1      36.130 -20.682 -20.248  0.00  0.00    -0.071 C 
ATOM      3  C   UNL     1      36.051 -19.272 -20.855  0.00  0.00    +0.021 C 
ATOM      4  C   UNL     1      33.722 -20.843 -20.059  0.00  0.00    -0.049 C 
ATOM      5  C   UNL     1      34.669 -18.924 -21.331  0.00  0.00    +0.037 C 
ATOM      6  C   UNL     1      33.603 -19.657 -20.976  0.00  0.00    -0.036 C 
ATOM      7  H   UNL     1      35.013 -20.164 -18.637  0.00  0.00    -0.079 HD
ENDROOT
BRANCH   5   9
ATOM      8  O   UNL     1      34.890 -16.021 -20.638  0.00  0.00    -0.246 OA
ATOM      9  N   UNL     1      34.548 -17.840 -22.153  0.00  0.00    -0.263 N 
ATOM     10  N   UNL     1      34.468 -15.702 -22.938  0.00  0.00    -0.305 N 
ATOM     11  C   UNL     1      34.288 -17.878 -23.536  0.00  0.00    +0.083 A 
ATOM     12  C   UNL     1      34.666 -16.467 -21.755  0.00  0.00    +0.332 A 
ATOM     13  C   UNL     1      34.241 -16.567 -24.006  0.00  0.00    +0.076 A 
ATOM     14  C   UNL     1      34.094 -18.948 -24.386  0.00  0.00    +0.019 C 
ATOM     15  C   UNL     1      34.002 -16.260 -25.327  0.00  0.00    +0.019 C 
ATOM     16  C   UNL     1      33.850 -18.663 -25.734  0.00  0.00    +0.002 C 
ATOM     17  C   UNL     1      33.805 -17.332 -26.199  0.00  0.00    +0.002 C 
ATOM     18  H   UNL     1      34.489 -14.718 -22.993  0.00  0.00    +0.170 HD
ENDBRANCH   5   9
BRANCH   1  19
ATOM     19  C   UNL     1      35.139 -22.184 -18.637  0.00  0.00    -0.076 C 
BRANCH  19  20
ATOM     20  C   UNL     1      36.071 -22.031 -17.433  0.00  0.00    -0.015 C 
BRANCH  20  21
ATOM     21  C   UNL     1      35.542 -22.757 -16.193  0.00  0.00    +0.067 C 
BRANCH  21  23
ATOM     22  O   UNL     1      37.821 -23.254 -15.571  0.00  0.00    -0.291 OA
ATOM     23  C   UNL     1      36.641 -23.193 -15.234  0.00  0.00    +0.173 C 
BRANCH  23  25
ATOM     24  F   UNL     1      35.255 -24.498  -9.985  0.00  0.00    -0.204 F 
ATOM     25  C   UNL     1      36.269 -23.540 -13.832  0.00  0.00    +0.035 C 
ATOM     26  C   UNL     1      37.242 -23.485 -12.859  0.00  0.00    +0.005 C 
ATOM     27  C   UNL     1      34.970 -23.905 -13.563  0.00  0.00    +0.005 C 
ATOM     28  C   UNL     1      36.896 -23.811 -11.548  0.00  0.00    +0.030 C 
ATOM     29  C   UNL     1      34.623 -24.232 -12.252  0.00  0.00    +0.030 C 
ATOM     30  C   UNL     1      35.587 -24.185 -11.244  0.00  0.00    +0.140 C 
ENDBRANCH  23  25
ENDBRANCH  21  23
ENDBRANCH  20  21
ENDBRANCH  19  20
ENDBRANCH   1  19
TORSDOF 6
ENDMDL
MODEL 7
REMARK VINA RESULT:     -11.3      4.533      7.841
REMARK  Name = 3168
REMARK  6 active torsions:
REMARK  status: ('A' for Active; 'I' for Inactive)
REMARK    1  A    between atoms: N_1  and  C_19
REMARK    2  A    between atoms: C_5  and  N_9
REMARK    3  A    between atoms: C_19  and  C_20
REMARK    4  A    between atoms: C_20  and  C_21
REMARK    5  A    between atoms: C_21  and  C_23
REMARK    6  A    between atoms: C_23  and  C_25
REMARK                            x       y       z     vdW  Elec       q    Type
REMARK                         _______ _______ _______ _____ _____    ______ ____
ROOT
ATOM      1  N   UNL     1      34.083 -21.607 -19.105  0.00  0.00    +0.390 N 
ATOM      2  C   UNL     1      35.257 -21.618 -19.986  0.00  0.00    -0.071 C 
ATOM      3  C   UNL     1      35.534 -20.205 -20.524  0.00  0.00    +0.021 C 
ATOM      4  C   UNL     1      32.876 -21.207 -19.847  0.00  0.00    -0.049 C 
ATOM      5  C   UNL     1      34.289 -19.516 -21.006  0.00  0.00    +0.037 C 
ATOM      6  C   UNL     1      33.069 -19.988 -20.707  0.00  0.00    -0.036 C 
ATOM      7  H   UNL     1      34.250 -20.919 -18.371  0.00  0.00    -0.079 HD
ENDROOT
BRANCH   5   9
ATOM      8  O   UNL     1      35.026 -16.747 -20.145  0.00  0.00    -0.246 OA
ATOM      9  N   UNL     1      34.453 -18.400 -21.776  0.00  0.00    -0.263 N 
ATOM     10  N   UNL     1      34.864 -16.262 -22.450  0.00  0.00    -0.305 N 
ATOM     11  C   UNL     1      34.303 -18.332 -23.174  0.00  0.00    +0.083 A 
ATOM     12  C   UNL     1      34.809 -17.096 -21.298  0.00  0.00    +0.332 A 
ATOM     13  C   UNL     1      34.556 -17.022 -23.575  0.00  0.00    +0.076 A 
ATOM     14  C   UNL     1      33.970 -19.308 -24.092  0.00  0.00    +0.019 C 
ATOM     15  C   UNL     1      34.492 -16.623 -24.892  0.00  0.00    +0.019 C 
ATOM     16  C   UNL     1      33.897 -18.928 -25.436  0.00  0.00    +0.002 C 
ATOM     17  C   UNL     1      34.156 -17.600 -25.832  0.00  0.00    +0.002 C 
ATOM     18  H   UNL     1      35.085 -15.302 -22.451  0.00  0.00    +0.170 HD
ENDBRANCH   5   9
BRANCH   1  19
ATOM     19  C   UNL     1      33.892 -22.909 -18.468  0.00  0.00    -0.076 C 
BRANCH  19  20
ATOM     20  C   UNL     1      34.277 -22.835 -16.990  0.00  0.00    -0.015 C 
BRANCH  20  21
ATOM     21  C   UNL     1      33.593 -23.922 -16.156  0.00  0.00    +0.067 C 
BRANCH  21  23
ATOM     22  O   UNL     1      33.446 -23.615 -13.766  0.00  0.00    -0.291 OA
ATOM     23  C   UNL     1      34.109 -24.001 -14.726  0.00  0.00    +0.173 C 
BRANCH  23  25
ATOM     24  F   UNL     1      39.161 -26.199 -13.822  0.00  0.00    -0.204 F 
ATOM     25  C   UNL     1      35.459 -24.587 -14.486  0.00  0.00    +0.035 C 
ATOM     26  C   UNL     1      35.778 -25.781 -15.091  0.00  0.00    +0.005 C 
ATOM     27  C   UNL     1      36.335 -23.913 -13.666  0.00  0.00    +0.005 C 
ATOM     28  C   UNL     1      37.040 -26.331 -14.865  0.00  0.00    +0.030 C 
ATOM     29  C   UNL     1      37.598 -24.462 -13.439  0.00  0.00    +0.030 C 
ATOM     30  C   UNL     1      37.950 -25.672 -14.039  0.00  0.00    +0.140 C 
ENDBRANCH  23  25
ENDBRANCH  21  23
ENDBRANCH  20  21
ENDBRANCH  19  20
ENDBRANCH   1  19
TORSDOF 6
ENDMDL
MODEL 8
REMARK VINA RESULT:     -11.2      4.516      7.410
REMARK  Name = 3168
REMARK  6 active torsions:
REMARK  status: ('A' for Active; 'I' for Inactive)
REMARK    1  A    between atoms: N_1  and  C_19
REMARK    2  A    between atoms: C_5  and  N_9
REMARK    3  A    between atoms: C_19  and  C_20
REMARK    4  A    between atoms: C_20  and  C_21
REMARK    5  A    between atoms: C_21  and  C_23
REMARK    6  A    between atoms: C_23  and  C_25
REMARK                            x       y       z     vdW  Elec       q    Type
REMARK                         _______ _______ _______ _____ _____    ______ ____
ROOT
ATOM      1  N   UNL     1      34.952 -20.959 -19.348  0.00  0.00    +0.390 N 
ATOM      2  C   UNL     1      36.104 -20.811 -20.246  0.00  0.00    -0.071 C 
ATOM      3  C   UNL     1      36.067 -19.438 -20.937  0.00  0.00    +0.021 C 
ATOM      4  C   UNL     1      33.690 -20.915 -20.104  0.00  0.00    -0.049 C 
ATOM      5  C   UNL     1      34.703 -19.093 -21.465  0.00  0.00    +0.037 C 
ATOM      6  C   UNL     1      33.615 -19.784 -21.093  0.00  0.00    -0.036 C 
ATOM      7  H   UNL     1      34.962 -20.176 -18.695  0.00  0.00    -0.079 HD
ENDROOT
BRANCH   5   9
ATOM      8  O   UNL     1      34.635 -19.200 -24.455  0.00  0.00    -0.246 OA
ATOM      9  N   UNL     1      34.622 -18.059 -22.353  0.00  0.00    -0.263 N 
ATOM     10  N   UNL     1      34.505 -16.849 -24.281  0.00  0.00    -0.305 N 
ATOM     11  C   UNL     1      34.552 -16.692 -22.023  0.00  0.00    +0.083 A 
ATOM     12  C   UNL     1      34.594 -18.179 -23.782  0.00  0.00    +0.332 A 
ATOM     13  C   UNL     1      34.481 -15.962 -23.208  0.00  0.00    +0.076 A 
ATOM     14  C   UNL     1      34.547 -16.062 -20.795  0.00  0.00    +0.019 C 
ATOM     15  C   UNL     1      34.402 -14.587 -23.229  0.00  0.00    +0.019 C 
ATOM     16  C   UNL     1      34.468 -14.665 -20.789  0.00  0.00    +0.002 C 
ATOM     17  C   UNL     1      34.396 -13.935 -21.994  0.00  0.00    +0.002 C 
ATOM     18  H   UNL     1      34.467 -16.597 -25.233  0.00  0.00    +0.170 HD
ENDBRANCH   5   9
BRANCH   1  19
ATOM     19  C   UNL     1      35.047 -22.195 -18.572  0.00  0.00    -0.076 C 
BRANCH  19  20
ATOM     20  C   UNL     1      35.942 -21.982 -17.349  0.00  0.00    -0.015 C 
BRANCH  20  21
ATOM     21  C   UNL     1      35.462 -22.779 -16.132  0.00  0.00    +0.067 C 
BRANCH  21  23
ATOM     22  O   UNL     1      37.764 -23.188 -15.532  0.00  0.00    -0.291 OA
ATOM     23  C   UNL     1      36.586 -23.165 -15.182  0.00  0.00    +0.173 C 
BRANCH  23  25
ATOM     24  F   UNL     1      35.297 -24.445  -9.902  0.00  0.00    -0.204 F 
ATOM     25  C   UNL     1      36.243 -23.508 -13.772  0.00  0.00    +0.035 C 
ATOM     26  C   UNL     1      35.025 -24.095 -13.513  0.00  0.00    +0.005 C 
ATOM     27  C   UNL     1      37.156 -23.224 -12.781  0.00  0.00    +0.005 C 
ATOM     28  C   UNL     1      34.702 -24.414 -12.194  0.00  0.00    +0.030 C 
ATOM     29  C   UNL     1      36.834 -23.543 -11.462  0.00  0.00    +0.030 C 
ATOM     30  C   UNL     1      35.606 -24.138 -11.168  0.00  0.00    +0.140 C 
ENDBRANCH  23  25
ENDBRANCH  21  23
ENDBRANCH  20  21
ENDBRANCH  19  20
ENDBRANCH   1  19
TORSDOF 6
ENDMDL
MODEL 9
REMARK VINA RESULT:     -11.2      6.157     12.563
REMARK  Name = 3168
REMARK  6 active torsions:
REMARK  status: ('A' for Active; 'I' for Inactive)
REMARK    1  A    between atoms: N_1  and  C_19
REMARK    2  A    between atoms: C_5  and  N_9
REMARK    3  A    between atoms: C_19  and  C_20
REMARK    4  A    between atoms: C_20  and  C_21
REMARK    5  A    between atoms: C_21  and  C_23
REMARK    6  A    between atoms: C_23  and  C_25
REMARK                            x       y       z     vdW  Elec       q    Type
REMARK                         _______ _______ _______ _____ _____    ______ ____
ROOT
ATOM      1  N   UNL     1      33.791 -22.753 -18.343  0.00  0.00    +0.390 N 
ATOM      2  C   UNL     1      34.868 -22.026 -17.662  0.00  0.00    -0.071 C 
ATOM      3  C   UNL     1      35.475 -22.894 -16.548  0.00  0.00    +0.021 C 
ATOM      4  C   UNL     1      32.690 -23.053 -17.412  0.00  0.00    -0.049 C 
ATOM      5  C   UNL     1      34.429 -23.570 -15.706  0.00  0.00    +0.037 C 
ATOM      6  C   UNL     1      33.148 -23.627 -16.099  0.00  0.00    -0.036 C 
ATOM      7  H   UNL     1      34.174 -23.636 -18.680  0.00  0.00    -0.079 HD
ENDROOT
BRANCH   5   9
ATOM      8  O   UNL     1      32.909 -23.791 -13.138  0.00  0.00    -0.246 OA
ATOM      9  N   UNL     1      34.836 -24.107 -14.519  0.00  0.00    -0.263 N 
ATOM     10  N   UNL     1      34.885 -24.815 -12.353  0.00  0.00    -0.305 N 
ATOM     11  C   UNL     1      36.095 -24.682 -14.262  0.00  0.00    +0.083 A 
ATOM     12  C   UNL     1      34.055 -24.182 -13.319  0.00  0.00    +0.332 A 
ATOM     13  C   UNL     1      36.115 -25.111 -12.937  0.00  0.00    +0.076 A 
ATOM     14  C   UNL     1      37.192 -24.851 -15.083  0.00  0.00    +0.019 C 
ATOM     15  C   UNL     1      37.212 -25.722 -12.370  0.00  0.00    +0.019 C 
ATOM     16  C   UNL     1      38.320 -25.468 -14.531  0.00  0.00    +0.002 C 
ATOM     17  C   UNL     1      38.329 -25.899 -13.189  0.00  0.00    +0.002 C 
ATOM     18  H   UNL     1      34.632 -25.012 -11.422  0.00  0.00    +0.170 HD
ENDBRANCH   5   9
BRANCH   1  19
ATOM     19  C   UNL     1      33.301 -22.004 -19.499  0.00  0.00    -0.076 C 
BRANCH  19  20
ATOM     20  C   UNL     1      34.387 -21.059 -20.015  0.00  0.00    -0.015 C 
BRANCH  20  21
ATOM     21  C   UNL     1      33.803 -19.795 -20.654  0.00  0.00    +0.067 C 
BRANCH  21  23
ATOM     22  O   UNL     1      35.862 -18.544 -20.501  0.00  0.00    -0.291 OA
ATOM     23  C   UNL     1      34.864 -18.829 -21.160  0.00  0.00    +0.173 C 
BRANCH  23  25
ATOM     24  F   UNL     1      34.225 -16.563 -26.223  0.00  0.00    -0.204 F 
ATOM     25  C   UNL     1      34.692 -18.223 -22.511  0.00  0.00    +0.035 C 
ATOM     26  C   UNL     1      34.389 -19.048 -23.571  0.00  0.00    +0.005 C 
ATOM     27  C   UNL     1      34.845 -16.862 -22.650  0.00  0.00    +0.005 C 
ATOM     28  C   UNL     1      34.230 -18.482 -24.836  0.00  0.00    +0.030 C 
ATOM     29  C   UNL     1      34.686 -16.295 -23.915  0.00  0.00    +0.030 C 
ATOM     30  C   UNL     1      34.378 -17.106 -25.009  0.00  0.00    +0.140 C 
ENDBRANCH  23  25
ENDBRANCH  21  23
ENDBRANCH  20  21
ENDBRANCH  19  20
ENDBRANCH   1  19
TORSDOF 6
ENDMDL
