MODEL 1
REMARK VINA RESULT:     -13.6      0.000      0.000
REMARK  Name = 5073
REMARK  4 active torsions:
REMARK  status: ('A' for Active; 'I' for Inactive)
REMARK    1  A    between atoms: N_1  and  C_18
REMARK    2  A    between atoms: C_2  and  C_11
REMARK    3  A    between atoms: C_18  and  C_19
REMARK    4  A    between atoms: C_19  and  C_23
REMARK                            x       y       z     vdW  Elec       q    Type
REMARK                         _______ _______ _______ _____ _____    ______ ____
ROOT
ATOM      1  N   UNL     1      33.831 -21.933 -18.724  0.00  0.00    +0.387 N 
ATOM      2  C   UNL     1      34.236 -20.123 -20.999  0.00  0.00    +0.039 C 
ATOM      3  C   UNL     1      32.907 -20.198 -20.229  0.00  0.00    -0.017 C 
ATOM      4  C   UNL     1      35.390 -20.581 -20.092  0.00  0.00    -0.017 C 
ATOM      5  C   UNL     1      32.705 -21.579 -19.601  0.00  0.00    -0.077 C 
ATOM      6  C   UNL     1      35.098 -21.948 -19.469  0.00  0.00    -0.077 C 
ATOM      7  H   UNL     1      33.901 -21.219 -17.999  0.00  0.00    -0.080 HD
ENDROOT
BRANCH   2  11
ATOM      8  F   UNL     1      34.218 -16.123 -26.403  0.00  0.00    -0.204 F 
ATOM      9  O   UNL     1      35.024 -16.678 -21.695  0.00  0.00    -0.354 OA
ATOM     10  N   UNL     1      34.903 -17.765 -20.840  0.00  0.00    -0.081 NA
ATOM     11  C   UNL     1      34.478 -18.763 -21.613  0.00  0.00    +0.100 A 
ATOM     12  C   UNL     1      34.309 -18.387 -22.953  0.00  0.00    +0.054 A 
ATOM     13  C   UNL     1      34.669 -17.050 -22.955  0.00  0.00    +0.179 A 
ATOM     14  C   UNL     1      33.904 -18.984 -24.156  0.00  0.00    +0.007 C 
ATOM     15  C   UNL     1      34.658 -16.236 -24.084  0.00  0.00    +0.070 C 
ATOM     16  C   UNL     1      33.882 -18.194 -25.314  0.00  0.00    +0.030 C 
ATOM     17  C   UNL     1      34.252 -16.846 -25.276  0.00  0.00    +0.143 C 
ENDBRANCH   2  11
BRANCH   1  18
ATOM     18  C   UNL     1      33.596 -23.229 -18.088  0.00  0.00    -0.076 C 
BRANCH  18  19
ATOM     19  C   UNL     1      32.571 -23.079 -16.973  0.00  0.00    -0.007 C 
BRANCH  19  23
ATOM     20  O   UNL     1      35.316 -23.001 -16.520  0.00  0.00    -0.274 OA
ATOM     21  N   UNL     1      35.192 -23.729 -14.310  0.00  0.00    -0.237 N 
ATOM     22  N   UNL     1      33.083 -24.272 -13.385  0.00  0.00    -0.399 NA
ATOM     23  C   UNL     1      33.164 -23.460 -15.648  0.00  0.00    +0.123 C 
ATOM     24  C   UNL     1      36.654 -23.734 -14.199  0.00  0.00    +0.100 C 
ATOM     25  C   UNL     1      37.182 -23.771 -12.777  0.00  0.00    +0.022 C 
ATOM     26  C   UNL     1      34.372 -24.183 -13.293  0.00  0.00    +0.165 C 
ATOM     27  C   UNL     1      36.468 -24.865 -12.011  0.00  0.00    +0.011 C 
ATOM     28  C   UNL     1      34.990 -24.541 -11.954  0.00  0.00    +0.075 C 
ATOM     29  C   UNL     1      34.654 -23.366 -15.548  0.00  0.00    +0.237 C 
ATOM     30  C   UNL     1      32.490 -23.902 -14.568  0.00  0.00    +0.096 C 
ATOM     31  C   UNL     1      30.988 -24.014 -14.531  0.00  0.00    +0.062 C 
ENDBRANCH  19  23
ENDBRANCH  18  19
ENDBRANCH   1  18
TORSDOF 4
ENDMDL
MODEL 2
REMARK VINA RESULT:     -13.6      3.564     10.934
REMARK  Name = 5073
REMARK  4 active torsions:
REMARK  status: ('A' for Active; 'I' for Inactive)
REMARK    1  A    between atoms: N_1  and  C_18
REMARK    2  A    between atoms: C_2  and  C_11
REMARK    3  A    between atoms: C_18  and  C_19
REMARK    4  A    between atoms: C_19  and  C_23
REMARK                            x       y       z     vdW  Elec       q    Type
REMARK                         _______ _______ _______ _____ _____    ______ ____
ROOT
ATOM      1  N   UNL     1      33.975 -19.562 -21.156  0.00  0.00    +0.387 N 
ATOM      2  C   UNL     1      34.039 -21.863 -19.336  0.00  0.00    +0.039 C 
ATOM      3  C   UNL     1      35.303 -21.074 -19.714  0.00  0.00    -0.017 C 
ATOM      4  C   UNL     1      32.799 -20.967 -19.491  0.00  0.00    -0.017 C 
ATOM      5  C   UNL     1      35.163 -20.427 -21.093  0.00  0.00    -0.077 C 
ATOM      6  C   UNL     1      32.750 -20.324 -20.879  0.00  0.00    -0.077 C 
ATOM      7  H   UNL     1      34.071 -18.846 -20.436  0.00  0.00    -0.080 HD
ENDROOT
BRANCH   2  11
ATOM      8  F   UNL     1      30.995 -24.489 -13.946  0.00  0.00    -0.204 F 
ATOM      9  O   UNL     1      35.074 -23.287 -16.193  0.00  0.00    -0.354 OA
ATOM     10  N   UNL     1      35.333 -22.704 -17.426  0.00  0.00    -0.081 NA
ATOM     11  C   UNL     1      34.134 -22.496 -17.966  0.00  0.00    +0.100 A 
ATOM     12  C   UNL     1      33.080 -22.919 -17.144  0.00  0.00    +0.054 A 
ATOM     13  C   UNL     1      33.729 -23.415 -16.026  0.00  0.00    +0.179 A 
ATOM     14  C   UNL     1      31.678 -22.951 -17.188  0.00  0.00    +0.007 C 
ATOM     15  C   UNL     1      33.082 -23.956 -14.919  0.00  0.00    +0.070 C 
ATOM     16  C   UNL     1      30.993 -23.489 -16.088  0.00  0.00    +0.030 C 
ATOM     17  C   UNL     1      31.684 -23.982 -14.977  0.00  0.00    +0.143 C 
ENDBRANCH   2  11
BRANCH   1  18
ATOM     18  C   UNL     1      33.888 -18.907 -22.461  0.00  0.00    -0.076 C 
BRANCH  18  19
ATOM     19  C   UNL     1      35.009 -17.888 -22.604  0.00  0.00    -0.007 C 
BRANCH  19  23
ATOM     20  O   UNL     1      34.268 -17.542 -25.264  0.00  0.00    -0.274 OA
ATOM     21  N   UNL     1      33.631 -15.314 -25.024  0.00  0.00    -0.237 N 
ATOM     22  N   UNL     1      33.874 -14.259 -22.921  0.00  0.00    -0.399 NA
ATOM     23  C   UNL     1      34.479 -16.579 -23.113  0.00  0.00    +0.123 C 
ATOM     24  C   UNL     1      33.348 -15.210 -26.460  0.00  0.00    +0.100 C 
ATOM     25  C   UNL     1      32.495 -14.019 -26.854  0.00  0.00    +0.022 C 
ATOM     26  C   UNL     1      33.552 -14.225 -24.175  0.00  0.00    +0.165 C 
ATOM     27  C   UNL     1      33.060 -12.770 -26.210  0.00  0.00    +0.011 C 
ATOM     28  C   UNL     1      32.992 -12.918 -24.704  0.00  0.00    +0.075 C 
ATOM     29  C   UNL     1      34.118 -16.540 -24.565  0.00  0.00    +0.237 C 
ATOM     30  C   UNL     1      34.333 -15.445 -22.400  0.00  0.00    +0.096 C 
ATOM     31  C   UNL     1      34.633 -15.360 -20.927  0.00  0.00    +0.062 C 
ENDBRANCH  19  23
ENDBRANCH  18  19
ENDBRANCH   1  18
TORSDOF 4
ENDMDL
MODEL 3
REMARK VINA RESULT:     -13.3      4.523     11.997
REMARK  Name = 5073
REMARK  4 active torsions:
REMARK  status: ('A' for Active; 'I' for Inactive)
REMARK    1  A    between atoms: N_1  and  C_18
REMARK    2  A    between atoms: C_2  and  C_11
REMARK    3  A    between atoms: C_18  and  C_19
REMARK    4  A    between atoms: C_19  and  C_23
REMARK                            x       y       z     vdW  Elec       q    Type
REMARK                         _______ _______ _______ _____ _____    ______ ____
ROOT
ATOM      1  N   UNL     1      34.773 -16.893 -24.431  0.00  0.00    +0.387 N 
ATOM      2  C   UNL     1      34.532 -18.540 -22.014  0.00  0.00    +0.039 C 
ATOM      3  C   UNL     1      34.565 -19.146 -23.427  0.00  0.00    -0.017 C 
ATOM      4  C   UNL     1      35.241 -17.175 -22.016  0.00  0.00    -0.017 C 
ATOM      5  C   UNL     1      34.028 -18.159 -24.467  0.00  0.00    -0.077 C 
ATOM      6  C   UNL     1      34.679 -16.260 -23.108  0.00  0.00    -0.077 C 
ATOM      7  H   UNL     1      35.755 -17.101 -24.612  0.00  0.00    -0.080 HD
ENDROOT
BRANCH   2  11
ATOM      8  F   UNL     1      33.509 -23.480 -17.569  0.00  0.00    -0.204 F 
ATOM      9  O   UNL     1      36.544 -20.403 -19.677  0.00  0.00    -0.354 OA
ATOM     10  N   UNL     1      36.373 -19.431 -20.655  0.00  0.00    -0.081 NA
ATOM     11  C   UNL     1      35.079 -19.480 -20.963  0.00  0.00    +0.100 A 
ATOM     12  C   UNL     1      34.375 -20.446 -20.231  0.00  0.00    +0.054 A 
ATOM     13  C   UNL     1      35.351 -21.008 -19.426  0.00  0.00    +0.179 A 
ATOM     14  C   UNL     1      33.059 -20.923 -20.138  0.00  0.00    +0.007 C 
ATOM     15  C   UNL     1      35.121 -22.031 -18.511  0.00  0.00    +0.070 C 
ATOM     16  C   UNL     1      32.790 -21.953 -19.225  0.00  0.00    +0.030 C 
ATOM     17  C   UNL     1      33.804 -22.496 -18.429  0.00  0.00    +0.143 C 
ENDBRANCH   2  11
BRANCH   1  18
ATOM     18  C   UNL     1      34.286 -15.984 -25.468  0.00  0.00    -0.076 C 
BRANCH  18  19
ATOM     19  C   UNL     1      33.065 -15.228 -24.962  0.00  0.00    -0.007 C 
BRANCH  19  23
ATOM     20  O   UNL     1      34.082 -13.232 -23.312  0.00  0.00    -0.274 OA
ATOM     21  N   UNL     1      33.714 -11.495 -24.820  0.00  0.00    -0.237 N 
ATOM     22  N   UNL     1      32.685 -11.962 -26.898  0.00  0.00    -0.399 NA
ATOM     23  C   UNL     1      33.109 -13.792 -25.395  0.00  0.00    +0.123 C 
ATOM     24  C   UNL     1      34.191 -10.508 -23.845  0.00  0.00    +0.100 C 
ATOM     25  C   UNL     1      34.550  -9.157 -24.433  0.00  0.00    +0.022 C 
ATOM     26  C   UNL     1      33.191 -11.128 -26.047  0.00  0.00    +0.165 C 
ATOM     27  C   UNL     1      33.423  -8.692 -25.331  0.00  0.00    +0.011 C 
ATOM     28  C   UNL     1      33.267  -9.674 -26.474  0.00  0.00    +0.075 C 
ATOM     29  C   UNL     1      33.686 -12.829 -24.405  0.00  0.00    +0.237 C 
ATOM     30  C   UNL     1      32.653 -13.294 -26.561  0.00  0.00    +0.096 C 
ATOM     31  C   UNL     1      32.078 -14.160 -27.651  0.00  0.00    +0.062 C 
ENDBRANCH  19  23
ENDBRANCH  18  19
ENDBRANCH   1  18
TORSDOF 4
ENDMDL
MODEL 4
REMARK VINA RESULT:     -13.3      2.152      3.589
REMARK  Name = 5073
REMARK  4 active torsions:
REMARK  status: ('A' for Active; 'I' for Inactive)
REMARK    1  A    between atoms: N_1  and  C_18
REMARK    2  A    between atoms: C_2  and  C_11
REMARK    3  A    between atoms: C_18  and  C_19
REMARK    4  A    between atoms: C_19  and  C_23
REMARK                            x       y       z     vdW  Elec       q    Type
REMARK                         _______ _______ _______ _____ _____    ______ ____
ROOT
ATOM      1  N   UNL     1      35.612 -19.793 -20.086  0.00  0.00    +0.387 N 
ATOM      2  C   UNL     1      34.917 -18.726 -22.729  0.00  0.00    +0.039 C 
ATOM      3  C   UNL     1      33.853 -19.165 -21.710  0.00  0.00    -0.017 C 
ATOM      4  C   UNL     1      36.212 -18.338 -21.996  0.00  0.00    -0.017 C 
ATOM      5  C   UNL     1      34.394 -20.247 -20.773  0.00  0.00    -0.077 C 
ATOM      6  C   UNL     1      36.667 -19.451 -21.048  0.00  0.00    -0.077 C 
ATOM      7  H   UNL     1      35.380 -18.951 -19.559  0.00  0.00    -0.080 HD
ENDROOT
BRANCH   2  11
ATOM      8  F   UNL     1      31.131 -16.858 -27.962  0.00  0.00    -0.204 F 
ATOM      9  O   UNL     1      34.222 -15.655 -24.480  0.00  0.00    -0.354 OA
ATOM     10  N   UNL     1      34.852 -16.390 -23.485  0.00  0.00    -0.081 NA
ATOM     11  C   UNL     1      34.423 -17.639 -23.657  0.00  0.00    +0.100 A 
ATOM     12  C   UNL     1      33.529 -17.770 -24.729  0.00  0.00    +0.054 A 
ATOM     13  C   UNL     1      33.432 -16.479 -25.221  0.00  0.00    +0.179 A 
ATOM     14  C   UNL     1      32.792 -18.791 -25.346  0.00  0.00    +0.007 C 
ATOM     15  C   UNL     1      32.642 -16.111 -26.306  0.00  0.00    +0.070 C 
ATOM     16  C   UNL     1      31.985 -18.456 -26.444  0.00  0.00    +0.030 C 
ATOM     17  C   UNL     1      31.913 -17.140 -26.912  0.00  0.00    +0.143 C 
ENDBRANCH   2  11
BRANCH   1  18
ATOM     18  C   UNL     1      36.083 -20.816 -19.152  0.00  0.00    -0.076 C 
BRANCH  18  19
ATOM     19  C   UNL     1      35.230 -22.070 -19.285  0.00  0.00    -0.007 C 
BRANCH  19  23
ATOM     20  O   UNL     1      32.517 -22.589 -18.944  0.00  0.00    -0.274 OA
ATOM     21  N   UNL     1      32.677 -23.097 -16.677  0.00  0.00    -0.237 N 
ATOM     22  N   UNL     1      34.777 -22.943 -15.598  0.00  0.00    -0.399 NA
ATOM     23  C   UNL     1      34.665 -22.475 -17.955  0.00  0.00    +0.123 C 
ATOM     24  C   UNL     1      31.223 -23.267 -16.582  0.00  0.00    +0.100 C 
ATOM     25  C   UNL     1      30.749 -24.010 -15.347  0.00  0.00    +0.022 C 
ATOM     26  C   UNL     1      33.502 -23.168 -15.569  0.00  0.00    +0.165 C 
ATOM     27  C   UNL     1      31.415 -23.415 -14.124  0.00  0.00    +0.011 C 
ATOM     28  C   UNL     1      32.914 -23.603 -14.239  0.00  0.00    +0.075 C 
ATOM     29  C   UNL     1      33.189 -22.726 -17.922  0.00  0.00    +0.237 C 
ATOM     30  C   UNL     1      35.348 -22.600 -16.801  0.00  0.00    +0.096 C 
ATOM     31  C   UNL     1      36.838 -22.404 -16.707  0.00  0.00    +0.062 C 
ENDBRANCH  19  23
ENDBRANCH  18  19
ENDBRANCH   1  18
TORSDOF 4
ENDMDL
MODEL 5
REMARK VINA RESULT:     -13.3      2.348      4.155
REMARK  Name = 5073
REMARK  4 active torsions:
REMARK  status: ('A' for Active; 'I' for Inactive)
REMARK    1  A    between atoms: N_1  and  C_18
REMARK    2  A    between atoms: C_2  and  C_11
REMARK    3  A    between atoms: C_18  and  C_19
REMARK    4  A    between atoms: C_19  and  C_23
REMARK                            x       y       z     vdW  Elec       q    Type
REMARK                         _______ _______ _______ _____ _____    ______ ____
ROOT
ATOM      1  N   UNL     1      35.313 -19.982 -20.967  0.00  0.00    +0.387 N 
ATOM      2  C   UNL     1      34.394 -17.959 -22.884  0.00  0.00    +0.039 C 
ATOM      3  C   UNL     1      35.883 -18.277 -22.668  0.00  0.00    -0.017 C 
ATOM      4  C   UNL     1      33.540 -19.177 -22.495  0.00  0.00    -0.017 C 
ATOM      5  C   UNL     1      36.140 -18.801 -21.254  0.00  0.00    -0.077 C 
ATOM      6  C   UNL     1      33.883 -19.669 -21.087  0.00  0.00    -0.077 C 
ATOM      7  H   UNL     1      35.538 -20.698 -21.658  0.00  0.00    -0.080 HD
ENDROOT
BRANCH   2  11
ATOM      8  F   UNL     1      32.702 -12.914 -26.994  0.00  0.00    -0.204 F 
ATOM      9  O   UNL     1      33.849 -17.549 -26.421  0.00  0.00    -0.354 OA
ATOM     10  N   UNL     1      34.168 -18.310 -25.303  0.00  0.00    -0.081 NA
ATOM     11  C   UNL     1      34.100 -17.460 -24.280  0.00  0.00    +0.100 A 
ATOM     12  C   UNL     1      33.749 -16.160 -24.668  0.00  0.00    +0.054 A 
ATOM     13  C   UNL     1      33.600 -16.267 -26.040  0.00  0.00    +0.179 A 
ATOM     14  C   UNL     1      33.538 -14.915 -24.055  0.00  0.00    +0.007 C 
ATOM     15  C   UNL     1      33.249 -15.211 -26.876  0.00  0.00    +0.070 C 
ATOM     16  C   UNL     1      33.183 -13.829 -24.868  0.00  0.00    +0.030 C 
ATOM     17  C   UNL     1      33.042 -13.976 -26.251  0.00  0.00    +0.143 C 
ENDBRANCH   2  11
BRANCH   1  18
ATOM     18  C   UNL     1      35.613 -20.505 -19.634  0.00  0.00    -0.076 C 
BRANCH  18  19
ATOM     19  C   UNL     1      35.316 -21.997 -19.585  0.00  0.00    -0.007 C 
BRANCH  19  23
ATOM     20  O   UNL     1      32.597 -22.506 -19.286  0.00  0.00    -0.274 OA
ATOM     21  N   UNL     1      32.714 -22.980 -17.008  0.00  0.00    -0.237 N 
ATOM     22  N   UNL     1      34.795 -22.814 -15.894  0.00  0.00    -0.399 NA
ATOM     23  C   UNL     1      34.726 -22.381 -18.260  0.00  0.00    +0.123 C 
ATOM     24  C   UNL     1      31.258 -23.145 -16.938  0.00  0.00    +0.100 C 
ATOM     25  C   UNL     1      30.760 -23.868 -15.701  0.00  0.00    +0.022 C 
ATOM     26  C   UNL     1      33.519 -23.036 -15.885  0.00  0.00    +0.165 C 
ATOM     27  C   UNL     1      31.405 -23.256 -14.475  0.00  0.00    +0.011 C 
ATOM     28  C   UNL     1      32.905 -23.450 -14.559  0.00  0.00    +0.075 C 
ATOM     29  C   UNL     1      33.249 -22.628 -18.250  0.00  0.00    +0.237 C 
ATOM     30  C   UNL     1      35.388 -22.491 -17.091  0.00  0.00    +0.096 C 
ATOM     31  C   UNL     1      36.877 -22.297 -16.974  0.00  0.00    +0.062 C 
ENDBRANCH  19  23
ENDBRANCH  18  19
ENDBRANCH   1  18
TORSDOF 4
ENDMDL
MODEL 6
REMARK VINA RESULT:     -13.2      3.613     11.205
REMARK  Name = 5073
REMARK  4 active torsions:
REMARK  status: ('A' for Active; 'I' for Inactive)
REMARK    1  A    between atoms: N_1  and  C_18
REMARK    2  A    between atoms: C_2  and  C_11
REMARK    3  A    between atoms: C_18  and  C_19
REMARK    4  A    between atoms: C_19  and  C_23
REMARK                            x       y       z     vdW  Elec       q    Type
REMARK                         _______ _______ _______ _____ _____    ______ ____
ROOT
ATOM      1  N   UNL     1      33.780 -19.503 -21.375  0.00  0.00    +0.387 N 
ATOM      2  C   UNL     1      34.304 -21.707 -19.510  0.00  0.00    +0.039 C 
ATOM      3  C   UNL     1      35.423 -20.808 -20.061  0.00  0.00    -0.017 C 
ATOM      4  C   UNL     1      32.966 -20.951 -19.540  0.00  0.00    -0.017 C 
ATOM      5  C   UNL     1      35.052 -20.238 -21.432  0.00  0.00    -0.077 C 
ATOM      6  C   UNL     1      32.684 -20.375 -20.930  0.00  0.00    -0.077 C 
ATOM      7  H   UNL     1      33.882 -18.752 -20.693  0.00  0.00    -0.080 HD
ENDROOT
BRANCH   2  11
ATOM      8  F   UNL     1      32.236 -24.572 -13.789  0.00  0.00    -0.204 F 
ATOM      9  O   UNL     1      35.844 -22.843 -16.458  0.00  0.00    -0.354 OA
ATOM     10  N   UNL     1      35.890 -22.272 -17.722  0.00  0.00    -0.081 NA
ATOM     11  C   UNL     1      34.627 -22.269 -18.144  0.00  0.00    +0.100 A 
ATOM     12  C   UNL     1      33.735 -22.818 -17.212  0.00  0.00    +0.054 A 
ATOM     13  C   UNL     1      34.558 -23.169 -16.154  0.00  0.00    +0.179 A 
ATOM     14  C   UNL     1      32.358 -23.066 -17.114  0.00  0.00    +0.007 C 
ATOM     15  C   UNL     1      34.112 -23.763 -14.977  0.00  0.00    +0.070 C 
ATOM     16  C   UNL     1      31.873 -23.662 -15.941  0.00  0.00    +0.030 C 
ATOM     17  C   UNL     1      32.736 -24.003 -14.894  0.00  0.00    +0.143 C 
ENDBRANCH   2  11
BRANCH   1  18
ATOM     18  C   UNL     1      33.470 -18.916 -22.679  0.00  0.00    -0.076 C 
BRANCH  18  19
ATOM     19  C   UNL     1      34.558 -17.928 -23.073  0.00  0.00    -0.007 C 
BRANCH  19  23
ATOM     20  O   UNL     1      34.082 -15.193 -22.877  0.00  0.00    -0.274 OA
ATOM     21  N   UNL     1      33.520 -14.909 -25.120  0.00  0.00    -0.237 N 
ATOM     22  N   UNL     1      33.484 -16.791 -26.554  0.00  0.00    -0.399 NA
ATOM     23  C   UNL     1      34.135 -17.113 -24.260  0.00  0.00    +0.123 C 
ATOM     24  C   UNL     1      33.214 -13.493 -24.894  0.00  0.00    +0.100 C 
ATOM     25  C   UNL     1      33.145 -12.650 -26.154  0.00  0.00    +0.022 C 
ATOM     26  C   UNL     1      33.305 -15.527 -26.339  0.00  0.00    +0.165 C 
ATOM     27  C   UNL     1      32.270 -13.350 -27.172  0.00  0.00    +0.011 C 
ATOM     28  C   UNL     1      32.900 -14.680 -27.532  0.00  0.00    +0.075 C 
ATOM     29  C   UNL     1      33.919 -15.654 -24.007  0.00  0.00    +0.237 C 
ATOM     30  C   UNL     1      33.904 -17.574 -25.505  0.00  0.00    +0.096 C 
ATOM     31  C   UNL     1      34.113 -19.014 -25.896  0.00  0.00    +0.062 C 
ENDBRANCH  19  23
ENDBRANCH  18  19
ENDBRANCH   1  18
TORSDOF 4
ENDMDL
MODEL 7
REMARK VINA RESULT:     -13.1      1.572      2.186
REMARK  Name = 5073
REMARK  4 active torsions:
REMARK  status: ('A' for Active; 'I' for Inactive)
REMARK    1  A    between atoms: N_1  and  C_18
REMARK    2  A    between atoms: C_2  and  C_11
REMARK    3  A    between atoms: C_18  and  C_19
REMARK    4  A    between atoms: C_19  and  C_23
REMARK                            x       y       z     vdW  Elec       q    Type
REMARK                         _______ _______ _______ _____ _____    ______ ____
ROOT
ATOM      1  N   UNL     1      33.969 -22.398 -19.273  0.00  0.00    +0.387 N 
ATOM      2  C   UNL     1      34.332 -19.819 -20.625  0.00  0.00    +0.039 C 
ATOM      3  C   UNL     1      35.454 -20.866 -20.528  0.00  0.00    -0.017 C 
ATOM      4  C   UNL     1      32.963 -20.511 -20.521  0.00  0.00    -0.017 C 
ATOM      5  C   UNL     1      35.286 -21.746 -19.287  0.00  0.00    -0.077 C 
ATOM      6  C   UNL     1      32.886 -21.404 -19.280  0.00  0.00    -0.077 C 
ATOM      7  H   UNL     1      33.887 -22.959 -20.121  0.00  0.00    -0.080 HD
ENDROOT
BRANCH   2  11
ATOM      8  F   UNL     1      34.651 -13.686 -23.364  0.00  0.00    -0.204 F 
ATOM      9  O   UNL     1      34.651 -18.460 -23.946  0.00  0.00    -0.354 OA
ATOM     10  N   UNL     1      34.558 -19.518 -23.052  0.00  0.00    -0.081 NA
ATOM     11  C   UNL     1      34.454 -18.946 -21.854  0.00  0.00    +0.100 A 
ATOM     12  C   UNL     1      34.474 -17.546 -21.910  0.00  0.00    +0.054 A 
ATOM     13  C   UNL     1      34.601 -17.284 -23.264  0.00  0.00    +0.179 A 
ATOM     14  C   UNL     1      34.403 -16.470 -21.012  0.00  0.00    +0.007 C 
ATOM     15  C   UNL     1      34.666 -16.007 -23.813  0.00  0.00    +0.070 C 
ATOM     16  C   UNL     1      34.465 -15.169 -21.531  0.00  0.00    +0.030 C 
ATOM     17  C   UNL     1      34.595 -14.944 -22.906  0.00  0.00    +0.143 C 
ENDBRANCH   2  11
BRANCH   1  18
ATOM     18  C   UNL     1      33.847 -23.279 -18.112  0.00  0.00    -0.076 C 
BRANCH  18  19
ATOM     19  C   UNL     1      33.989 -22.470 -16.831  0.00  0.00    -0.007 C 
BRANCH  19  23
ATOM     20  O   UNL     1      36.731 -22.870 -16.576  0.00  0.00    -0.274 OA
ATOM     21  N   UNL     1      36.578 -24.223 -14.686  0.00  0.00    -0.237 N 
ATOM     22  N   UNL     1      34.445 -24.764 -13.816  0.00  0.00    -0.399 NA
ATOM     23  C   UNL     1      34.565 -23.310 -15.729  0.00  0.00    +0.123 C 
ATOM     24  C   UNL     1      38.029 -24.441 -14.688  0.00  0.00    +0.100 C 
ATOM     25  C   UNL     1      38.592 -24.979 -13.386  0.00  0.00    +0.022 C 
ATOM     26  C   UNL     1      35.736 -24.866 -13.796  0.00  0.00    +0.165 C 
ATOM     27  C   UNL     1      37.758 -26.160 -12.936  0.00  0.00    +0.011 C 
ATOM     28  C   UNL     1      36.341 -25.692 -12.676  0.00  0.00    +0.075 C 
ATOM     29  C   UNL     1      36.057 -23.434 -15.714  0.00  0.00    +0.237 C 
ATOM     30  C   UNL     1      33.871 -23.978 -14.787  0.00  0.00    +0.096 C 
ATOM     31  C   UNL     1      32.371 -23.912 -14.676  0.00  0.00    +0.062 C 
ENDBRANCH  19  23
ENDBRANCH  18  19
ENDBRANCH   1  18
TORSDOF 4
ENDMDL
MODEL 8
REMARK VINA RESULT:     -13.1      1.641      2.374
REMARK  Name = 5073
REMARK  4 active torsions:
REMARK  status: ('A' for Active; 'I' for Inactive)
REMARK    1  A    between atoms: N_1  and  C_18
REMARK    2  A    between atoms: C_2  and  C_11
REMARK    3  A    between atoms: C_18  and  C_19
REMARK    4  A    between atoms: C_19  and  C_23
REMARK                            x       y       z     vdW  Elec       q    Type
REMARK                         _______ _______ _______ _____ _____    ______ ____
ROOT
ATOM      1  N   UNL     1      34.164 -21.498 -19.114  0.00  0.00    +0.387 N 
ATOM      2  C   UNL     1      34.314 -19.820 -21.516  0.00  0.00    +0.039 C 
ATOM      3  C   UNL     1      33.039 -19.930 -20.664  0.00  0.00    -0.017 C 
ATOM      4  C   UNL     1      35.546 -20.140 -20.654  0.00  0.00    -0.017 C 
ATOM      5  C   UNL     1      32.969 -21.277 -19.940  0.00  0.00    -0.077 C 
ATOM      6  C   UNL     1      35.385 -21.479 -19.931  0.00  0.00    -0.077 C 
ATOM      7  H   UNL     1      34.225 -20.735 -18.439  0.00  0.00    -0.080 HD
ENDROOT
BRANCH   2  11
ATOM      8  F   UNL     1      33.351 -16.104 -27.037  0.00  0.00    -0.204 F 
ATOM      9  O   UNL     1      34.908 -16.405 -22.497  0.00  0.00    -0.354 OA
ATOM     10  N   UNL     1      34.948 -17.448 -21.582  0.00  0.00    -0.081 NA
ATOM     11  C   UNL     1      34.427 -18.490 -22.227  0.00  0.00    +0.100 A 
ATOM     12  C   UNL     1      34.038 -18.186 -23.539  0.00  0.00    +0.054 A 
ATOM     13  C   UNL     1      34.365 -16.846 -23.664  0.00  0.00    +0.179 A 
ATOM     14  C   UNL     1      33.459 -18.850 -24.631  0.00  0.00    +0.007 C 
ATOM     15  C   UNL     1      34.157 -16.092 -24.816  0.00  0.00    +0.070 C 
ATOM     16  C   UNL     1      33.237 -18.121 -25.808  0.00  0.00    +0.030 C 
ATOM     17  C   UNL     1      33.580 -16.768 -25.896  0.00  0.00    +0.143 C 
ENDBRANCH   2  11
BRANCH   1  18
ATOM     18  C   UNL     1      34.055 -22.762 -18.385  0.00  0.00    -0.076 C 
BRANCH  18  19
ATOM     19  C   UNL     1      34.008 -22.493 -16.888  0.00  0.00    -0.007 C 
BRANCH  19  23
ATOM     20  O   UNL     1      33.832 -24.736 -15.249  0.00  0.00    -0.274 OA
ATOM     21  N   UNL     1      36.100 -24.797 -14.722  0.00  0.00    -0.237 N 
ATOM     22  N   UNL     1      37.537 -23.126 -15.583  0.00  0.00    -0.399 NA
ATOM     23  C   UNL     1      35.214 -23.068 -16.204  0.00  0.00    +0.123 C 
ATOM     24  C   UNL     1      35.888 -25.929 -13.813  0.00  0.00    +0.100 C 
ATOM     25  C   UNL     1      37.148 -26.686 -13.437  0.00  0.00    +0.022 C 
ATOM     26  C   UNL     1      37.330 -24.178 -14.856  0.00  0.00    +0.165 C 
ATOM     27  C   UNL     1      38.211 -25.697 -13.007  0.00  0.00    +0.011 C 
ATOM     28  C   UNL     1      38.540 -24.789 -14.174  0.00  0.00    +0.075 C 
ATOM     29  C   UNL     1      34.970 -24.277 -15.356  0.00  0.00    +0.237 C 
ATOM     30  C   UNL     1      36.470 -22.582 -16.256  0.00  0.00    +0.096 C 
ATOM     31  C   UNL     1      36.852 -21.391 -17.094  0.00  0.00    +0.062 C 
ENDBRANCH  19  23
ENDBRANCH  18  19
ENDBRANCH   1  18
TORSDOF 4
ENDMDL
MODEL 9
REMARK VINA RESULT:     -12.9      1.509      1.956
REMARK  Name = 5073
REMARK  4 active torsions:
REMARK  status: ('A' for Active; 'I' for Inactive)
REMARK    1  A    between atoms: N_1  and  C_18
REMARK    2  A    between atoms: C_2  and  C_11
REMARK    3  A    between atoms: C_18  and  C_19
REMARK    4  A    between atoms: C_19  and  C_23
REMARK                            x       y       z     vdW  Elec       q    Type
REMARK                         _______ _______ _______ _____ _____    ______ ____
ROOT
ATOM      1  N   UNL     1      34.816 -20.880 -19.397  0.00  0.00    +0.387 N 
ATOM      2  C   UNL     1      34.726 -19.362 -21.906  0.00  0.00    +0.039 C 
ATOM      3  C   UNL     1      33.459 -19.726 -21.115  0.00  0.00    -0.017 C 
ATOM      4  C   UNL     1      35.938 -19.322 -20.960  0.00  0.00    -0.017 C 
ATOM      5  C   UNL     1      33.662 -21.005 -20.299  0.00  0.00    -0.077 C 
ATOM      6  C   UNL     1      36.050 -20.616 -20.149  0.00  0.00    -0.077 C 
ATOM      7  H   UNL     1      34.648 -20.087 -18.778  0.00  0.00    -0.080 HD
ENDROOT
BRANCH   2  11
ATOM      8  F   UNL     1      32.494 -16.228 -27.420  0.00  0.00    -0.204 F 
ATOM      9  O   UNL     1      34.747 -15.992 -23.178  0.00  0.00    -0.354 OA
ATOM     10  N   UNL     1      35.052 -16.948 -22.219  0.00  0.00    -0.081 NA
ATOM     11  C   UNL     1      34.568 -18.089 -22.706  0.00  0.00    +0.100 A 
ATOM     12  C   UNL     1      33.951 -17.935 -23.956  0.00  0.00    +0.054 A 
ATOM     13  C   UNL     1      34.090 -16.582 -24.214  0.00  0.00    +0.179 A 
ATOM     14  C   UNL     1      33.298 -18.744 -24.897  0.00  0.00    +0.007 C 
ATOM     15  C   UNL     1      33.620 -15.950 -25.361  0.00  0.00    +0.070 C 
ATOM     16  C   UNL     1      32.813 -18.140 -26.067  0.00  0.00    +0.030 C 
ATOM     17  C   UNL     1      32.972 -16.769 -26.292  0.00  0.00    +0.143 C 
ENDBRANCH   2  11
BRANCH   1  18
ATOM     18  C   UNL     1      34.961 -22.087 -18.583  0.00  0.00    -0.076 C 
BRANCH  18  19
ATOM     19  C   UNL     1      36.088 -21.901 -17.578  0.00  0.00    -0.007 C 
BRANCH  19  23
ATOM     20  O   UNL     1      38.240 -22.794 -16.055  0.00  0.00    -0.274 OA
ATOM     21  N   UNL     1      36.949 -24.030 -14.560  0.00  0.00    -0.237 N 
ATOM     22  N   UNL     1      34.605 -24.135 -14.863  0.00  0.00    -0.399 NA
ATOM     23  C   UNL     1      35.896 -22.795 -16.388  0.00  0.00    +0.123 C 
ATOM     24  C   UNL     1      38.153 -24.512 -13.874  0.00  0.00    +0.100 C 
ATOM     25  C   UNL     1      37.907 -25.101 -12.498  0.00  0.00    +0.022 C 
ATOM     26  C   UNL     1      35.682 -24.474 -14.228  0.00  0.00    +0.165 C 
ATOM     27  C   UNL     1      36.763 -26.090 -12.579  0.00  0.00    +0.011 C 
ATOM     28  C   UNL     1      35.508 -25.358 -13.007  0.00  0.00    +0.075 C 
ATOM     29  C   UNL     1      37.144 -23.193 -15.662  0.00  0.00    +0.237 C 
ATOM     30  C   UNL     1      34.726 -23.290 -15.941  0.00  0.00    +0.096 C 
ATOM     31  C   UNL     1      33.399 -22.943 -16.564  0.00  0.00    +0.062 C 
ENDBRANCH  19  23
ENDBRANCH  18  19
ENDBRANCH   1  18
TORSDOF 4
ENDMDL
