MODEL 1
REMARK VINA RESULT:     -11.9      0.000      0.000
REMARK  Name = 42628063
REMARK  6 active torsions:
REMARK  status: ('A' for Active; 'I' for Inactive)
REMARK    1  A    between atoms: C_1  and  N_3
REMARK    2  A    between atoms: C_1  and  C_21
REMARK    3  A    between atoms: C_4  and  N_10
REMARK    4  A    between atoms: C_11  and  C_15
REMARK    5  A    between atoms: N_20  and  C_24
REMARK    6  A    between atoms: C_27  and  N_31
REMARK                            x       y       z     vdW  Elec       q    Type
REMARK                         _______ _______ _______ _____ _____    ______ ____
ROOT
ATOM      1  C   UNL     1      32.749 -15.253 -27.426  0.00  0.00    +0.010 C 
ENDROOT
BRANCH   1   3
ATOM      2  F   UNL     1      34.736 -11.248 -27.196  0.00  0.00    -0.238 F 
ATOM      3  N   UNL     1      33.422 -14.060 -26.936  0.00  0.00    +0.396 N 
ATOM      4  C   UNL     1      33.589 -12.298 -25.439  0.00  0.00    +0.082 C 
ATOM      5  C   UNL     1      33.507 -11.714 -26.846  0.00  0.00    +0.156 C 
ATOM      6  C   UNL     1      33.007 -13.700 -25.580  0.00  0.00    -0.054 C 
ATOM      7  C   UNL     1      33.133 -12.878 -27.755  0.00  0.00    -0.039 C 
ATOM      8  H   UNL     1      34.412 -14.303 -26.971  0.00  0.00    -0.079 HD
BRANCH   4  10
ATOM      9  O   UNL     1      34.508  -9.887 -24.182  0.00  0.00    -0.270 OA
ATOM     10  N   UNL     1      32.880 -11.515 -24.465  0.00  0.00    -0.302 N 
ATOM     11  C   UNL     1      33.406 -10.355 -23.908  0.00  0.00    +0.252 C 
ATOM     12  H   UNL     1      31.985 -11.811 -24.182  0.00  0.00    +0.150 HD
BRANCH  11  15
ATOM     13 CL   UNL     1      31.244  -6.553 -20.521  0.00  0.00    -0.075 Cl
ATOM     14  S   UNL     1      32.870  -8.031 -22.518  0.00  0.00    -0.071 S 
ATOM     15  C   UNL     1      32.559  -9.672 -22.896  0.00  0.00    +0.084 C 
ATOM     16  C   UNL     1      31.500 -10.178 -22.174  0.00  0.00    +0.012 C 
ATOM     17  C   UNL     1      30.937  -9.206 -21.297  0.00  0.00    +0.019 C 
ATOM     18  C   UNL     1      31.587  -7.993 -21.384  0.00  0.00    +0.087 C 
ENDBRANCH  11  15
ENDBRANCH   4  10
ENDBRANCH   1   3
BRANCH   1  21
ATOM     19  O   UNL     1      31.577 -16.849 -26.047  0.00  0.00    -0.277 OA
ATOM     20  N   UNL     1      33.846 -16.403 -25.641  0.00  0.00    -0.284 N 
ATOM     21  C   UNL     1      32.626 -16.263 -26.297  0.00  0.00    +0.205 C 
ATOM     22  H   UNL     1      34.589 -15.855 -25.981  0.00  0.00    +0.155 HD
BRANCH  20  24
ATOM     23  F   UNL     1      33.855 -19.180 -25.888  0.00  0.00    -0.203 F 
ATOM     24  C   UNL     1      34.143 -17.243 -24.541  0.00  0.00    +0.078 C 
ATOM     25  C   UNL     1      34.139 -18.630 -24.698  0.00  0.00    +0.155 C 
ATOM     26  C   UNL     1      34.440 -16.684 -23.299  0.00  0.00    +0.018 C 
ATOM     27  C   UNL     1      34.729 -18.896 -22.371  0.00  0.00    +0.061 C 
ATOM     28  C   UNL     1      34.432 -19.455 -23.614  0.00  0.00    +0.046 C 
ATOM     29  C   UNL     1      34.733 -17.510 -22.214  0.00  0.00    +0.017 C 
BRANCH  27  31
ATOM     30  O   UNL     1      37.312 -19.117 -21.088  0.00  0.00    -0.269 OA
ATOM     31  N   UNL     1      35.034 -19.754 -21.243  0.00  0.00    -0.233 N 
ATOM     32  C   UNL     1      36.355 -19.803 -20.727  0.00  0.00    +0.257 C 
ATOM     33  C   UNL     1      34.031 -20.519 -20.643  0.00  0.00    +0.072 C 
ATOM     34  C   UNL     1      36.594 -20.748 -19.594  0.00  0.00    +0.059 C 
ATOM     35  C   UNL     1      34.262 -21.333 -19.608  0.00  0.00    +0.017 C 
ATOM     36  C   UNL     1      35.586 -21.454 -19.074  0.00  0.00    +0.006 C 
ENDBRANCH  27  31
ENDBRANCH  20  24
ENDBRANCH   1  21
TORSDOF 6
ENDMDL
MODEL 2
REMARK VINA RESULT:     -11.9      0.846      1.193
REMARK  Name = 42628063
REMARK  6 active torsions:
REMARK  status: ('A' for Active; 'I' for Inactive)
REMARK    1  A    between atoms: C_1  and  N_3
REMARK    2  A    between atoms: C_1  and  C_21
REMARK    3  A    between atoms: C_4  and  N_10
REMARK    4  A    between atoms: C_11  and  C_15
REMARK    5  A    between atoms: N_20  and  C_24
REMARK    6  A    between atoms: C_27  and  N_31
REMARK                            x       y       z     vdW  Elec       q    Type
REMARK                         _______ _______ _______ _____ _____    ______ ____
ROOT
ATOM      1  C   UNL     1      32.780 -15.175 -27.385  0.00  0.00    +0.010 C 
ENDROOT
BRANCH   1   3
ATOM      2  F   UNL     1      34.878 -11.232 -27.074  0.00  0.00    -0.238 F 
ATOM      3  N   UNL     1      33.470 -14.003 -26.868  0.00  0.00    +0.396 N 
ATOM      4  C   UNL     1      33.630 -12.246 -25.365  0.00  0.00    +0.082 C 
ATOM      5  C   UNL     1      33.623 -11.661 -26.774  0.00  0.00    +0.156 C 
ATOM      6  C   UNL     1      33.013 -13.629 -25.529  0.00  0.00    -0.054 C 
ATOM      7  C   UNL     1      33.250 -12.813 -27.697  0.00  0.00    -0.039 C 
ATOM      8  H   UNL     1      34.452 -14.276 -26.863  0.00  0.00    -0.079 HD
BRANCH   4  10
ATOM      9  O   UNL     1      34.594  -9.897 -24.025  0.00  0.00    -0.270 OA
ATOM     10  N   UNL     1      32.908 -11.441 -24.419  0.00  0.00    -0.302 N 
ATOM     11  C   UNL     1      33.458 -10.314 -23.817  0.00  0.00    +0.252 C 
ATOM     12  H   UNL     1      31.986 -11.696 -24.189  0.00  0.00    +0.150 HD
BRANCH  11  15
ATOM     13 CL   UNL     1      31.292  -6.450 -20.505  0.00  0.00    -0.075 Cl
ATOM     14  S   UNL     1      32.952  -7.981 -22.432  0.00  0.00    -0.071 S 
ATOM     15  C   UNL     1      32.590  -9.603 -22.843  0.00  0.00    +0.084 C 
ATOM     16  C   UNL     1      31.475 -10.068 -22.182  0.00  0.00    +0.012 C 
ATOM     17  C   UNL     1      30.910  -9.079 -21.324  0.00  0.00    +0.019 C 
ATOM     18  C   UNL     1      31.615  -7.896 -21.365  0.00  0.00    +0.087 C 
ENDBRANCH  11  15
ENDBRANCH   4  10
ENDBRANCH   1   3
BRANCH   1  21
ATOM     19  O   UNL     1      31.605 -16.827 -26.076  0.00  0.00    -0.277 OA
ATOM     20  N   UNL     1      33.846 -16.332 -25.585  0.00  0.00    -0.284 N 
ATOM     21  C   UNL     1      32.645 -16.210 -26.280  0.00  0.00    +0.205 C 
ATOM     22  H   UNL     1      34.586 -15.759 -25.890  0.00  0.00    +0.155 HD
BRANCH  20  24
ATOM     23  F   UNL     1      34.352 -15.320 -23.037  0.00  0.00    -0.203 F 
ATOM     24  C   UNL     1      34.128 -17.186 -24.492  0.00  0.00    +0.078 C 
ATOM     25  C   UNL     1      34.377 -16.648 -23.228  0.00  0.00    +0.155 C 
ATOM     26  C   UNL     1      34.156 -18.568 -24.678  0.00  0.00    +0.018 C 
ATOM     27  C   UNL     1      34.681 -18.872 -22.340  0.00  0.00    +0.061 C 
ATOM     28  C   UNL     1      34.653 -17.490 -22.153  0.00  0.00    +0.046 C 
ATOM     29  C   UNL     1      34.433 -19.411 -23.602  0.00  0.00    +0.017 C 
BRANCH  27  31
ATOM     30  O   UNL     1      37.267 -19.186 -21.083  0.00  0.00    -0.269 OA
ATOM     31  N   UNL     1      34.969 -19.749 -21.221  0.00  0.00    -0.233 N 
ATOM     32  C   UNL     1      36.293 -19.844 -20.719  0.00  0.00    +0.257 C 
ATOM     33  C   UNL     1      33.948 -20.488 -20.618  0.00  0.00    +0.072 C 
ATOM     34  C   UNL     1      36.511 -20.806 -19.595  0.00  0.00    +0.059 C 
ATOM     35  C   UNL     1      34.163 -21.317 -19.592  0.00  0.00    +0.017 C 
ATOM     36  C   UNL     1      35.487 -21.484 -19.072  0.00  0.00    +0.006 C 
ENDBRANCH  27  31
ENDBRANCH  20  24
ENDBRANCH   1  21
TORSDOF 6
ENDMDL
MODEL 3
REMARK VINA RESULT:     -11.8      2.310      3.050
REMARK  Name = 42628063
REMARK  6 active torsions:
REMARK  status: ('A' for Active; 'I' for Inactive)
REMARK    1  A    between atoms: C_1  and  N_3
REMARK    2  A    between atoms: C_1  and  C_21
REMARK    3  A    between atoms: C_4  and  N_10
REMARK    4  A    between atoms: C_11  and  C_15
REMARK    5  A    between atoms: N_20  and  C_24
REMARK    6  A    between atoms: C_27  and  N_31
REMARK                            x       y       z     vdW  Elec       q    Type
REMARK                         _______ _______ _______ _____ _____    ______ ____
ROOT
ATOM      1  C   UNL     1      33.458 -12.576 -24.923  0.00  0.00    +0.010 C 
ENDROOT
BRANCH   1   3
ATOM      2  F   UNL     1      35.949  -8.897 -24.375  0.00  0.00    -0.238 F 
ATOM      3  N   UNL     1      34.014 -11.338 -24.400  0.00  0.00    +0.396 N 
ATOM      4  C   UNL     1      33.752  -9.179 -23.599  0.00  0.00    +0.082 C 
ATOM      5  C   UNL     1      34.680  -9.123 -24.809  0.00  0.00    +0.156 C 
ATOM      6  C   UNL     1      33.003 -10.496 -23.761  0.00  0.00    -0.054 C 
ATOM      7  C   UNL     1      34.605 -10.502 -25.451  0.00  0.00    -0.039 C 
ATOM      8  H   UNL     1      34.719 -11.647 -23.731  0.00  0.00    -0.079 HD
BRANCH   4  10
ATOM      9  O   UNL     1      33.139  -7.631 -21.261  0.00  0.00    -0.270 OA
ATOM     10  N   UNL     1      32.860  -8.055 -23.524  0.00  0.00    -0.302 N 
ATOM     11  C   UNL     1      32.623  -7.362 -22.342  0.00  0.00    +0.252 C 
ATOM     12  H   UNL     1      32.399  -7.763 -24.342  0.00  0.00    +0.150 HD
BRANCH  11  15
ATOM     13 CL   UNL     1      29.884  -2.859 -24.018  0.00  0.00    -0.075 Cl
ATOM     14  S   UNL     1      31.763  -5.140 -23.734  0.00  0.00    -0.071 S 
ATOM     15  C   UNL     1      31.655  -6.238 -22.425  0.00  0.00    +0.084 C 
ATOM     16  C   UNL     1      30.623  -5.923 -21.569  0.00  0.00    +0.012 C 
ATOM     17  C   UNL     1      29.912  -4.763 -21.992  0.00  0.00    +0.019 C 
ATOM     18  C   UNL     1      30.427  -4.237 -23.157  0.00  0.00    +0.087 C 
ENDBRANCH  11  15
ENDBRANCH   4  10
ENDBRANCH   1   3
BRANCH   1  21
ATOM     19  O   UNL     1      32.689 -13.421 -22.798  0.00  0.00    -0.277 OA
ATOM     20  N   UNL     1      34.137 -14.719 -24.113  0.00  0.00    -0.284 N 
ATOM     21  C   UNL     1      33.366 -13.601 -23.805  0.00  0.00    +0.205 C 
ATOM     22  H   UNL     1      34.614 -14.696 -24.973  0.00  0.00    +0.155 HD
BRANCH  20  24
ATOM     23  F   UNL     1      33.839 -17.265 -25.209  0.00  0.00    -0.203 F 
ATOM     24  C   UNL     1      34.314 -15.887 -23.332  0.00  0.00    +0.078 C 
ATOM     25  C   UNL     1      34.157 -17.147 -23.911  0.00  0.00    +0.155 C 
ATOM     26  C   UNL     1      34.644 -15.777 -21.982  0.00  0.00    +0.018 C 
ATOM     27  C   UNL     1      34.663 -18.186 -21.790  0.00  0.00    +0.061 C 
ATOM     28  C   UNL     1      34.332 -18.296 -23.141  0.00  0.00    +0.046 C 
ATOM     29  C   UNL     1      34.819 -16.926 -21.211  0.00  0.00    +0.017 C 
BRANCH  27  31
ATOM     30  O   UNL     1      37.204 -19.197 -20.849  0.00  0.00    -0.269 OA
ATOM     31  N   UNL     1      34.845 -19.380 -20.989  0.00  0.00    -0.233 N 
ATOM     32  C   UNL     1      36.152 -19.794 -20.622  0.00  0.00    +0.257 C 
ATOM     33  C   UNL     1      33.741 -20.116 -20.553  0.00  0.00    +0.072 C 
ATOM     34  C   UNL     1      36.253 -21.062 -19.835  0.00  0.00    +0.059 C 
ATOM     35  C   UNL     1      33.855 -21.229 -19.821  0.00  0.00    +0.017 C 
ATOM     36  C   UNL     1      35.152 -21.717 -19.459  0.00  0.00    +0.006 C 
ENDBRANCH  27  31
ENDBRANCH  20  24
ENDBRANCH   1  21
TORSDOF 6
ENDMDL
MODEL 4
REMARK VINA RESULT:     -11.6      6.301     12.144
REMARK  Name = 42628063
REMARK  6 active torsions:
REMARK  status: ('A' for Active; 'I' for Inactive)
REMARK    1  A    between atoms: C_1  and  N_3
REMARK    2  A    between atoms: C_1  and  C_21
REMARK    3  A    between atoms: C_4  and  N_10
REMARK    4  A    between atoms: C_11  and  C_15
REMARK    5  A    between atoms: N_20  and  C_24
REMARK    6  A    between atoms: C_27  and  N_31
REMARK                            x       y       z     vdW  Elec       q    Type
REMARK                         _______ _______ _______ _____ _____    ______ ____
ROOT
ATOM      1  C   UNL     1      35.494 -20.752 -20.740  0.00  0.00    +0.010 C 
ENDROOT
BRANCH   1   3
ATOM      2  F   UNL     1      33.021 -22.429 -17.406  0.00  0.00    -0.238 F 
ATOM      3  N   UNL     1      35.011 -21.134 -19.421  0.00  0.00    +0.396 N 
ATOM      4  C   UNL     1      35.346 -22.111 -17.347  0.00  0.00    +0.082 C 
ATOM      5  C   UNL     1      34.172 -22.819 -18.017  0.00  0.00    +0.156 C 
ATOM      6  C   UNL     1      36.100 -21.460 -18.500  0.00  0.00    -0.054 C 
ATOM      7  C   UNL     1      34.166 -22.332 -19.460  0.00  0.00    -0.039 C 
ATOM      8  H   UNL     1      34.486 -20.319 -19.105  0.00  0.00    -0.079 HD
BRANCH   4  10
ATOM      9  O   UNL     1      34.967 -22.911 -14.616  0.00  0.00    -0.270 OA
ATOM     10  N   UNL     1      36.180 -23.003 -16.591  0.00  0.00    -0.302 N 
ATOM     11  C   UNL     1      35.918 -23.335 -15.266  0.00  0.00    +0.252 C 
ATOM     12  H   UNL     1      36.969 -23.395 -17.028  0.00  0.00    +0.150 HD
BRANCH  11  15
ATOM     13 CL   UNL     1      40.381 -26.433 -14.230  0.00  0.00    -0.075 Cl
ATOM     14  S   UNL     1      38.354 -24.623 -15.424  0.00  0.00    -0.071 S 
ATOM     15  C   UNL     1      36.891 -24.251 -14.616  0.00  0.00    +0.084 C 
ATOM     16  C   UNL     1      36.799 -24.883 -13.396  0.00  0.00    +0.012 C 
ATOM     17  C   UNL     1      37.944 -25.685 -13.120  0.00  0.00    +0.019 C 
ATOM     18  C   UNL     1      38.869 -25.634 -14.141  0.00  0.00    +0.087 C 
ENDBRANCH  11  15
ENDBRANCH   4  10
ENDBRANCH   1   3
BRANCH   1  21
ATOM     19  O   UNL     1      33.512 -19.378 -20.829  0.00  0.00    -0.277 OA
ATOM     20  N   UNL     1      35.241 -19.032 -22.380  0.00  0.00    -0.284 N 
ATOM     21  C   UNL     1      34.612 -19.649 -21.301  0.00  0.00    +0.205 C 
ATOM     22  H   UNL     1      36.131 -19.377 -22.620  0.00  0.00    +0.155 HD
BRANCH  20  24
ATOM     23  F   UNL     1      33.888 -19.491 -24.773  0.00  0.00    -0.203 F 
ATOM     24  C   UNL     1      34.750 -17.964 -23.169  0.00  0.00    +0.078 C 
ATOM     25  C   UNL     1      34.077 -18.228 -24.363  0.00  0.00    +0.155 C 
ATOM     26  C   UNL     1      34.941 -16.647 -22.753  0.00  0.00    +0.018 C 
ATOM     27  C   UNL     1      33.784 -15.858 -24.722  0.00  0.00    +0.061 C 
ATOM     28  C   UNL     1      33.594 -17.175 -25.138  0.00  0.00    +0.046 C 
ATOM     29  C   UNL     1      34.457 -15.593 -23.529  0.00  0.00    +0.017 C 
BRANCH  27  31
ATOM     30  O   UNL     1      32.949 -16.061 -27.483  0.00  0.00    -0.269 OA
ATOM     31  N   UNL     1      33.282 -14.762 -25.529  0.00  0.00    -0.233 N 
ATOM     32  C   UNL     1      32.942 -14.984 -26.889  0.00  0.00    +0.257 C 
ATOM     33  C   UNL     1      33.109 -13.493 -24.972  0.00  0.00    +0.072 C 
ATOM     34  C   UNL     1      32.476 -13.791 -27.661  0.00  0.00    +0.059 C 
ATOM     35  C   UNL     1      32.659 -12.449 -25.676  0.00  0.00    +0.017 C 
ATOM     36  C   UNL     1      32.341 -12.604 -27.063  0.00  0.00    +0.006 C 
ENDBRANCH  27  31
ENDBRANCH  20  24
ENDBRANCH   1  21
TORSDOF 6
ENDMDL
MODEL 5
REMARK VINA RESULT:     -11.5      1.716      2.135
REMARK  Name = 42628063
REMARK  6 active torsions:
REMARK  status: ('A' for Active; 'I' for Inactive)
REMARK    1  A    between atoms: C_1  and  N_3
REMARK    2  A    between atoms: C_1  and  C_21
REMARK    3  A    between atoms: C_4  and  N_10
REMARK    4  A    between atoms: C_11  and  C_15
REMARK    5  A    between atoms: N_20  and  C_24
REMARK    6  A    between atoms: C_27  and  N_31
REMARK                            x       y       z     vdW  Elec       q    Type
REMARK                         _______ _______ _______ _____ _____    ______ ____
ROOT
ATOM      1  C   UNL     1      33.036 -14.135 -27.314  0.00  0.00    +0.010 C 
ENDROOT
BRANCH   1   3
ATOM      2  F   UNL     1      35.662 -10.717 -26.104  0.00  0.00    -0.238 F 
ATOM      3  N   UNL     1      33.699 -13.095 -26.541  0.00  0.00    +0.396 N 
ATOM      4  C   UNL     1      33.623 -11.289 -25.092  0.00  0.00    +0.082 C 
ATOM      5  C   UNL     1      34.333 -10.841 -26.366  0.00  0.00    +0.156 C 
ATOM      6  C   UNL     1      32.829 -12.518 -25.516  0.00  0.00    -0.054 C 
ATOM      7  C   UNL     1      34.121 -11.963 -27.373  0.00  0.00    -0.039 C 
ATOM      8  H   UNL     1      34.500 -13.570 -26.126  0.00  0.00    -0.079 HD
BRANCH   4  10
ATOM      9  O   UNL     1      34.482  -8.954 -23.659  0.00  0.00    -0.270 OA
ATOM     10  N   UNL     1      32.781 -10.269 -24.531  0.00  0.00    -0.302 N 
ATOM     11  C   UNL     1      33.288  -9.167 -23.850  0.00  0.00    +0.252 C 
ATOM     12  H   UNL     1      31.806 -10.352 -24.634  0.00  0.00    +0.150 HD
BRANCH  11  15
ATOM     13 CL   UNL     1      30.678  -5.500 -20.635  0.00  0.00    -0.075 Cl
ATOM     14  S   UNL     1      32.599  -7.429 -21.820  0.00  0.00    -0.071 S 
ATOM     15  C   UNL     1      32.284  -8.214 -23.308  0.00  0.00    +0.084 C 
ATOM     16  C   UNL     1      31.073  -7.839 -23.846  0.00  0.00    +0.012 C 
ATOM     17  C   UNL     1      30.392  -6.895 -23.024  0.00  0.00    +0.019 C 
ATOM     18  C   UNL     1      31.111  -6.584 -21.890  0.00  0.00    +0.087 C 
ENDBRANCH  11  15
ENDBRANCH   4  10
ENDBRANCH   1   3
BRANCH   1  21
ATOM     19  O   UNL     1      31.949 -16.178 -26.631  0.00  0.00    -0.277 OA
ATOM     20  N   UNL     1      33.842 -15.421 -25.468  0.00  0.00    -0.284 N 
ATOM     21  C   UNL     1      32.853 -15.370 -26.447  0.00  0.00    +0.205 C 
ATOM     22  H   UNL     1      34.495 -14.685 -25.470  0.00  0.00    +0.155 HD
BRANCH  20  24
ATOM     23  F   UNL     1      34.775 -14.773 -22.922  0.00  0.00    -0.203 F 
ATOM     24  C   UNL     1      34.018 -16.409 -24.470  0.00  0.00    +0.078 C 
ATOM     25  C   UNL     1      34.487 -16.052 -23.205  0.00  0.00    +0.155 C 
ATOM     26  C   UNL     1      33.722 -17.743 -24.753  0.00  0.00    +0.018 C 
ATOM     27  C   UNL     1      34.362 -18.361 -22.506  0.00  0.00    +0.061 C 
ATOM     28  C   UNL     1      34.659 -17.028 -22.224  0.00  0.00    +0.046 C 
ATOM     29  C   UNL     1      33.894 -18.719 -23.771  0.00  0.00    +0.017 C 
BRANCH  27  31
ATOM     30  O   UNL     1      32.237 -19.889 -21.278  0.00  0.00    -0.269 OA
ATOM     31  N   UNL     1      34.541 -19.376 -21.486  0.00  0.00    -0.233 N 
ATOM     32  C   UNL     1      33.410 -20.029 -20.932  0.00  0.00    +0.257 C 
ATOM     33  C   UNL     1      35.822 -19.732 -21.058  0.00  0.00    +0.072 C 
ATOM     34  C   UNL     1      33.680 -21.028 -19.853  0.00  0.00    +0.059 C 
ATOM     35  C   UNL     1      36.039 -20.654 -20.114  0.00  0.00    +0.017 C 
ATOM     36  C   UNL     1      34.933 -21.315 -19.490  0.00  0.00    +0.006 C 
ENDBRANCH  27  31
ENDBRANCH  20  24
ENDBRANCH   1  21
TORSDOF 6
ENDMDL
MODEL 6
REMARK VINA RESULT:     -11.3      3.031      3.658
REMARK  Name = 42628063
REMARK  6 active torsions:
REMARK  status: ('A' for Active; 'I' for Inactive)
REMARK    1  A    between atoms: C_1  and  N_3
REMARK    2  A    between atoms: C_1  and  C_21
REMARK    3  A    between atoms: C_4  and  N_10
REMARK    4  A    between atoms: C_11  and  C_15
REMARK    5  A    between atoms: N_20  and  C_24
REMARK    6  A    between atoms: C_27  and  N_31
REMARK                            x       y       z     vdW  Elec       q    Type
REMARK                         _______ _______ _______ _____ _____    ______ ____
ROOT
ATOM      1  C   UNL     1      33.502 -14.830 -26.398  0.00  0.00    +0.010 C 
ENDROOT
BRANCH   1   3
ATOM      2  F   UNL     1      32.426 -11.578 -23.515  0.00  0.00    -0.238 F 
ATOM      3  N   UNL     1      33.010 -13.588 -25.822  0.00  0.00    +0.396 N 
ATOM      4  C   UNL     1      32.895 -11.273 -25.794  0.00  0.00    +0.082 C 
ATOM      5  C   UNL     1      33.414 -11.735 -24.436  0.00  0.00    +0.156 C 
ATOM      6  C   UNL     1      33.177 -12.447 -26.724  0.00  0.00    -0.054 C 
ATOM      7  C   UNL     1      33.723 -13.218 -24.595  0.00  0.00    -0.039 C 
ATOM      8  H   UNL     1      32.025 -13.775 -25.636  0.00  0.00    -0.079 HD
BRANCH   4  10
ATOM      9  O   UNL     1      32.118  -8.591 -25.130  0.00  0.00    -0.270 OA
ATOM     10  N   UNL     1      33.518 -10.062 -26.251  0.00  0.00    -0.302 N 
ATOM     11  C   UNL     1      33.072  -8.799 -25.875  0.00  0.00    +0.252 C 
ATOM     12  H   UNL     1      34.293 -10.128 -26.853  0.00  0.00    +0.150 HD
BRANCH  11  15
ATOM     13 CL   UNL     1      34.503  -3.692 -27.443  0.00  0.00    -0.075 Cl
ATOM     14  S   UNL     1      33.128  -6.079 -26.337  0.00  0.00    -0.071 S 
ATOM     15  C   UNL     1      33.809  -7.646 -26.453  0.00  0.00    +0.084 C 
ATOM     16  C   UNL     1      35.023  -7.635 -27.101  0.00  0.00    +0.012 C 
ATOM     17  C   UNL     1      35.400  -6.323 -27.511  0.00  0.00    +0.019 C 
ATOM     18  C   UNL     1      34.459  -5.381 -27.157  0.00  0.00    +0.087 C 
ENDBRANCH  11  15
ENDBRANCH   4  10
ENDBRANCH   1   3
BRANCH   1  21
ATOM     19  O   UNL     1      32.110 -16.574 -25.481  0.00  0.00    -0.277 OA
ATOM     20  N   UNL     1      34.271 -16.238 -24.627  0.00  0.00    -0.284 N 
ATOM     21  C   UNL     1      33.185 -15.983 -25.460  0.00  0.00    +0.205 C 
ATOM     22  H   UNL     1      35.060 -15.664 -24.752  0.00  0.00    +0.155 HD
BRANCH  20  24
ATOM     23  F   UNL     1      34.848 -15.574 -21.981  0.00  0.00    -0.203 F 
ATOM     24  C   UNL     1      34.372 -17.228 -23.620  0.00  0.00    +0.078 C 
ATOM     25  C   UNL     1      34.662 -16.862 -22.304  0.00  0.00    +0.155 C 
ATOM     26  C   UNL     1      34.181 -18.571 -23.944  0.00  0.00    +0.018 C 
ATOM     27  C   UNL     1      34.569 -19.182 -21.639  0.00  0.00    +0.061 C 
ATOM     28  C   UNL     1      34.760 -17.839 -21.315  0.00  0.00    +0.046 C 
ATOM     29  C   UNL     1      34.279 -19.548 -22.953  0.00  0.00    +0.017 C 
BRANCH  27  31
ATOM     30  O   UNL     1      32.345 -20.643 -20.504  0.00  0.00    -0.269 OA
ATOM     31  N   UNL     1      34.671 -20.198 -20.609  0.00  0.00    -0.233 N 
ATOM     32  C   UNL     1      33.497 -20.816 -20.106  0.00  0.00    +0.257 C 
ATOM     33  C   UNL     1      35.920 -20.592 -20.123  0.00  0.00    +0.072 C 
ATOM     34  C   UNL     1      33.688 -21.819 -19.013  0.00  0.00    +0.059 C 
ATOM     35  C   UNL     1      36.067 -21.516 -19.168  0.00  0.00    +0.017 C 
ATOM     36  C   UNL     1      34.915 -22.141 -18.594  0.00  0.00    +0.006 C 
ENDBRANCH  27  31
ENDBRANCH  20  24
ENDBRANCH   1  21
TORSDOF 6
ENDMDL
MODEL 7
REMARK VINA RESULT:     -11.2      4.705     10.512
REMARK  Name = 42628063
REMARK  6 active torsions:
REMARK  status: ('A' for Active; 'I' for Inactive)
REMARK    1  A    between atoms: C_1  and  N_3
REMARK    2  A    between atoms: C_1  and  C_21
REMARK    3  A    between atoms: C_4  and  N_10
REMARK    4  A    between atoms: C_11  and  C_15
REMARK    5  A    between atoms: N_20  and  C_24
REMARK    6  A    between atoms: C_27  and  N_31
REMARK                            x       y       z     vdW  Elec       q    Type
REMARK                         _______ _______ _______ _____ _____    ______ ____
ROOT
ATOM      1  C   UNL     1      33.188 -17.449 -24.850  0.00  0.00    +0.010 C 
ENDROOT
BRANCH   1   3
ATOM      2  F   UNL     1      36.583 -17.947 -21.975  0.00  0.00    -0.238 F 
ATOM      3  N   UNL     1      34.199 -18.026 -23.977  0.00  0.00    +0.396 N 
ATOM      4  C   UNL     1      34.816 -19.463 -22.267  0.00  0.00    +0.082 C 
ATOM      5  C   UNL     1      35.232 -18.051 -21.867  0.00  0.00    +0.156 C 
ATOM      6  C   UNL     1      33.741 -19.254 -23.326  0.00  0.00    -0.054 C 
ATOM      7  C   UNL     1      34.574 -17.125 -22.882  0.00  0.00    -0.039 C 
ATOM      8  H   UNL     1      34.988 -18.205 -24.597  0.00  0.00    -0.079 HD
BRANCH   4  10
ATOM      9  O   UNL     1      36.418 -20.830 -20.316  0.00  0.00    -0.270 OA
ATOM     10  N   UNL     1      34.339 -20.242 -21.158  0.00  0.00    -0.302 N 
ATOM     11  C   UNL     1      35.193 -20.871 -20.259  0.00  0.00    +0.252 C 
ATOM     12  H   UNL     1      33.367 -20.333 -21.029  0.00  0.00    +0.150 HD
BRANCH  11  15
ATOM     13 CL   UNL     1      34.262 -23.640 -15.562  0.00  0.00    -0.075 Cl
ATOM     14  S   UNL     1      35.448 -22.076 -17.789  0.00  0.00    -0.071 S 
ATOM     15  C   UNL     1      34.542 -21.660 -19.180  0.00  0.00    +0.084 C 
ATOM     16  C   UNL     1      33.250 -22.133 -19.118  0.00  0.00    +0.012 C 
ATOM     17  C   UNL     1      33.001 -22.850 -17.911  0.00  0.00    +0.019 C 
ATOM     18  C   UNL     1      34.112 -22.894 -17.097  0.00  0.00    +0.087 C 
ENDBRANCH  11  15
ENDBRANCH   4  10
ENDBRANCH   1   3
BRANCH   1  21
ATOM     19  O   UNL     1      34.561 -16.058 -26.265  0.00  0.00    -0.277 OA
ATOM     20  N   UNL     1      33.026 -15.065 -24.793  0.00  0.00    -0.284 N 
ATOM     21  C   UNL     1      33.693 -16.126 -25.402  0.00  0.00    +0.205 C 
ATOM     22  H   UNL     1      32.349 -15.305 -24.120  0.00  0.00    +0.155 HD
BRANCH  20  24
ATOM     23  F   UNL     1      34.270 -13.414 -22.922  0.00  0.00    -0.203 F 
ATOM     24  C   UNL     1      33.207 -13.682 -25.031  0.00  0.00    +0.078 C 
ATOM     25  C   UNL     1      33.834 -12.882 -24.074  0.00  0.00    +0.155 C 
ATOM     26  C   UNL     1      32.758 -13.116 -26.225  0.00  0.00    +0.018 C 
ATOM     27  C   UNL     1      33.564 -10.956 -25.505  0.00  0.00    +0.061 C 
ATOM     28  C   UNL     1      34.012 -11.520 -24.311  0.00  0.00    +0.046 C 
ATOM     29  C   UNL     1      32.937 -11.754 -26.462  0.00  0.00    +0.017 C 
BRANCH  27  31
ATOM     30  O   UNL     1      31.978  -8.835 -24.341  0.00  0.00    -0.269 OA
ATOM     31  N   UNL     1      33.749  -9.539 -25.751  0.00  0.00    -0.233 N 
ATOM     32  C   UNL     1      32.876  -8.596 -25.148  0.00  0.00    +0.257 C 
ATOM     33  C   UNL     1      34.794  -9.090 -26.561  0.00  0.00    +0.072 C 
ATOM     34  C   UNL     1      33.107  -7.159 -25.492  0.00  0.00    +0.059 C 
ATOM     35  C   UNL     1      35.001  -7.796 -26.827  0.00  0.00    +0.017 C 
ATOM     36  C   UNL     1      34.125  -6.804 -26.280  0.00  0.00    +0.006 C 
ENDBRANCH  27  31
ENDBRANCH  20  24
ENDBRANCH   1  21
TORSDOF 6
ENDMDL
MODEL 8
REMARK VINA RESULT:     -11.2      3.005      4.373
REMARK  Name = 42628063
REMARK  6 active torsions:
REMARK  status: ('A' for Active; 'I' for Inactive)
REMARK    1  A    between atoms: C_1  and  N_3
REMARK    2  A    between atoms: C_1  and  C_21
REMARK    3  A    between atoms: C_4  and  N_10
REMARK    4  A    between atoms: C_11  and  C_15
REMARK    5  A    between atoms: N_20  and  C_24
REMARK    6  A    between atoms: C_27  and  N_31
REMARK                            x       y       z     vdW  Elec       q    Type
REMARK                         _______ _______ _______ _____ _____    ______ ____
ROOT
ATOM      1  C   UNL     1      33.913 -17.781 -24.916  0.00  0.00    +0.010 C 
ENDROOT
BRANCH   1   3
ATOM      2  F   UNL     1      33.930 -14.764 -21.608  0.00  0.00    -0.238 F 
ATOM      3  N   UNL     1      33.643 -16.603 -24.106  0.00  0.00    +0.396 N 
ATOM      4  C   UNL     1      33.484 -14.303 -23.866  0.00  0.00    +0.082 C 
ATOM      5  C   UNL     1      34.495 -14.814 -22.844  0.00  0.00    +0.156 C 
ATOM      6  C   UNL     1      33.422 -15.405 -24.917  0.00  0.00    -0.054 C 
ATOM      7  C   UNL     1      34.761 -16.267 -23.217  0.00  0.00    -0.039 C 
ATOM      8  H   UNL     1      32.810 -16.853 -23.575  0.00  0.00    -0.079 HD
BRANCH   4  10
ATOM      9  O   UNL     1      32.528 -11.720 -23.057  0.00  0.00    -0.270 OA
ATOM     10  N   UNL     1      33.853 -13.036 -24.434  0.00  0.00    -0.302 N 
ATOM     11  C   UNL     1      33.336 -11.829 -23.975  0.00  0.00    +0.252 C 
ATOM     12  H   UNL     1      34.497 -13.021 -25.177  0.00  0.00    +0.150 HD
BRANCH  11  15
ATOM     13 CL   UNL     1      33.720  -6.652 -25.883  0.00  0.00    -0.075 Cl
ATOM     14  S   UNL     1      32.898  -9.160 -24.524  0.00  0.00    -0.071 S 
ATOM     15  C   UNL     1      33.798 -10.608 -24.684  0.00  0.00    +0.084 C 
ATOM     16  C   UNL     1      34.900 -10.445 -25.494  0.00  0.00    +0.012 C 
ATOM     17  C   UNL     1      35.007  -9.114 -25.992  0.00  0.00    +0.019 C 
ATOM     18  C   UNL     1      33.983  -8.310 -25.541  0.00  0.00    +0.087 C 
ENDBRANCH  11  15
ENDBRANCH   4  10
ENDBRANCH   1   3
BRANCH   1  21
ATOM     19  O   UNL     1      34.834 -19.953 -24.410  0.00  0.00    -0.277 OA
ATOM     20  N   UNL     1      33.813 -18.697 -22.710  0.00  0.00    -0.284 N 
ATOM     21  C   UNL     1      34.251 -18.952 -24.008  0.00  0.00    +0.205 C 
ATOM     22  H   UNL     1      33.365 -17.834 -22.564  0.00  0.00    +0.155 HD
BRANCH  20  24
ATOM     23  F   UNL     1      36.300 -19.286 -21.599  0.00  0.00    -0.203 F 
ATOM     24  C   UNL     1      33.937 -19.536 -21.577  0.00  0.00    +0.078 C 
ATOM     25  C   UNL     1      35.198 -19.811 -21.045  0.00  0.00    +0.155 C 
ATOM     26  C   UNL     1      32.798 -20.089 -20.992  0.00  0.00    +0.018 C 
ATOM     27  C   UNL     1      34.179 -21.190 -19.344  0.00  0.00    +0.061 C 
ATOM     28  C   UNL     1      35.318 -20.638 -19.929  0.00  0.00    +0.046 C 
ATOM     29  C   UNL     1      32.919 -20.915 -19.875  0.00  0.00    +0.017 C 
BRANCH  27  31
ATOM     30  O   UNL     1      32.077 -22.856 -18.263  0.00  0.00    -0.269 OA
ATOM     31  N   UNL     1      34.304 -22.049 -18.182  0.00  0.00    -0.233 N 
ATOM     32  C   UNL     1      33.183 -22.790 -17.727  0.00  0.00    +0.257 C 
ATOM     33  C   UNL     1      35.527 -22.173 -17.520  0.00  0.00    +0.072 C 
ATOM     34  C   UNL     1      33.385 -23.615 -16.496  0.00  0.00    +0.059 C 
ATOM     35  C   UNL     1      35.692 -22.944 -16.440  0.00  0.00    +0.017 C 
ATOM     36  C   UNL     1      34.584 -23.680 -15.911  0.00  0.00    +0.006 C 
ENDBRANCH  27  31
ENDBRANCH  20  24
ENDBRANCH   1  21
TORSDOF 6
ENDMDL
MODEL 9
REMARK VINA RESULT:     -11.2      4.747     10.430
REMARK  Name = 42628063
REMARK  6 active torsions:
REMARK  status: ('A' for Active; 'I' for Inactive)
REMARK    1  A    between atoms: C_1  and  N_3
REMARK    2  A    between atoms: C_1  and  C_21
REMARK    3  A    between atoms: C_4  and  N_10
REMARK    4  A    between atoms: C_11  and  C_15
REMARK    5  A    between atoms: N_20  and  C_24
REMARK    6  A    between atoms: C_27  and  N_31
REMARK                            x       y       z     vdW  Elec       q    Type
REMARK                         _______ _______ _______ _____ _____    ______ ____
ROOT
ATOM      1  C   UNL     1      33.386 -17.865 -24.609  0.00  0.00    +0.010 C 
ENDROOT
BRANCH   1   3
ATOM      2  F   UNL     1      36.645 -18.220 -21.559  0.00  0.00    -0.238 F 
ATOM      3  N   UNL     1      34.354 -18.398 -23.663  0.00  0.00    +0.396 N 
ATOM      4  C   UNL     1      34.891 -19.750 -21.858  0.00  0.00    +0.082 C 
ATOM      5  C   UNL     1      35.289 -18.319 -21.509  0.00  0.00    +0.156 C 
ATOM      6  C   UNL     1      33.865 -19.593 -22.974  0.00  0.00    -0.054 C 
ATOM      7  C   UNL     1      34.680 -17.444 -22.597  0.00  0.00    -0.039 C 
ATOM      8  H   UNL     1      35.171 -18.607 -24.236  0.00  0.00    -0.079 HD
BRANCH   4  10
ATOM      9  O   UNL     1      36.375 -21.362 -20.003  0.00  0.00    -0.270 OA
ATOM     10  N   UNL     1      34.361 -20.473 -20.736  0.00  0.00    -0.302 N 
ATOM     11  C   UNL     1      35.159 -21.232 -19.886  0.00  0.00    +0.252 C 
ATOM     12  H   UNL     1      33.394 -20.430 -20.560  0.00  0.00    +0.150 HD
BRANCH  11  15
ATOM     13 CL   UNL     1      34.034 -23.764 -15.099  0.00  0.00    -0.075 Cl
ATOM     14  S   UNL     1      35.326 -22.355 -17.371  0.00  0.00    -0.071 S 
ATOM     15  C   UNL     1      34.456 -21.940 -18.786  0.00  0.00    +0.084 C 
ATOM     16  C   UNL     1      33.139 -22.337 -18.718  0.00  0.00    +0.012 C 
ATOM     17  C   UNL     1      32.839 -22.992 -17.488  0.00  0.00    +0.019 C 
ATOM     18  C   UNL     1      33.940 -23.069 -16.662  0.00  0.00    +0.087 C 
ENDBRANCH  11  15
ENDBRANCH   4  10
ENDBRANCH   1   3
BRANCH   1  21
ATOM     19  O   UNL     1      34.836 -16.442 -25.909  0.00  0.00    -0.277 OA
ATOM     20  N   UNL     1      33.102 -15.493 -24.644  0.00  0.00    -0.284 N 
ATOM     21  C   UNL     1      33.883 -16.532 -25.143  0.00  0.00    +0.205 C 
ATOM     22  H   UNL     1      32.368 -15.750 -24.041  0.00  0.00    +0.155 HD
BRANCH  20  24
ATOM     23  F   UNL     1      32.641 -14.432 -27.181  0.00  0.00    -0.203 F 
ATOM     24  C   UNL     1      33.240 -14.108 -24.904  0.00  0.00    +0.078 C 
ATOM     25  C   UNL     1      33.002 -13.609 -26.185  0.00  0.00    +0.155 C 
ATOM     26  C   UNL     1      33.616 -13.242 -23.877  0.00  0.00    +0.018 C 
ATOM     27  C   UNL     1      33.514 -11.379 -25.412  0.00  0.00    +0.061 C 
ATOM     28  C   UNL     1      33.139 -12.245 -26.439  0.00  0.00    +0.046 C 
ATOM     29  C   UNL     1      33.753 -11.878 -24.131  0.00  0.00    +0.017 C 
BRANCH  27  31
ATOM     30  O   UNL     1      36.017  -9.930 -25.455  0.00  0.00    -0.269 OA
ATOM     31  N   UNL     1      33.657  -9.960 -25.675  0.00  0.00    -0.233 N 
ATOM     32  C   UNL     1      34.941  -9.357 -25.628  0.00  0.00    +0.257 C 
ATOM     33  C   UNL     1      32.542  -9.183 -25.998  0.00  0.00    +0.072 C 
ATOM     34  C   UNL     1      34.993  -7.882 -25.866  0.00  0.00    +0.059 C 
ATOM     35  C   UNL     1      32.619  -7.870 -26.239  0.00  0.00    +0.017 C 
ATOM     36  C   UNL     1      33.883  -7.202 -26.164  0.00  0.00    +0.006 C 
ENDBRANCH  27  31
ENDBRANCH  20  24
ENDBRANCH   1  21
TORSDOF 6
ENDMDL
