MODEL 1
REMARK VINA RESULT:     -11.6      0.000      0.000
REMARK  Name = 657131
REMARK  7 active torsions:
REMARK  status: ('A' for Active; 'I' for Inactive)
REMARK    1  A    between atoms: C_1  and  CA_2
REMARK    2  A    between atoms: C_1  and  C_3
REMARK    3  A    between atoms: CA_2  and  C_28
REMARK    4  A    between atoms: C_4  and  O_9
REMARK    5  A    between atoms: O_9  and  C_11
REMARK    6  A    between atoms: C_19  and  C_21
REMARK    7  A    between atoms: C_28  and  O_29
REMARK                            x       y       z     vdW  Elec       q    Type
REMARK                         _______ _______ _______ _____ _____    ______ ____
ROOT
ATOM      1  C   UNL     1      34.293 -22.830 -18.960  0.00  0.00    +0.074 C 
ENDROOT
BRANCH   1   2
ATOM      2  C   UNL     1      34.462 -21.574 -19.672  0.00  0.00    -0.016 C 
ATOM      3  C   UNL     1      34.789 -19.163 -21.036  0.00  0.00    +0.145 C 
ATOM      4  C   UNL     1      33.345 -20.869 -20.120  0.00  0.00    -0.001 C 
ATOM      5  C   UNL     1      35.743 -21.072 -19.905  0.00  0.00    -0.001 C 
ATOM      6  C   UNL     1      33.508 -19.663 -20.802  0.00  0.00    +0.037 C 
ATOM      7  C   UNL     1      35.906 -19.866 -20.588  0.00  0.00    +0.037 C 
BRANCH   3   8
ATOM      8  O   UNL     1      34.948 -17.986 -21.701  0.00  0.00    -0.453 OA
BRANCH   8  10
ATOM      9 BR   UNL     1      34.417 -15.090 -22.740  0.00  0.00    -0.046 Br
ATOM     10  C   UNL     1      34.589 -17.948 -23.038  0.00  0.00    +0.151 C 
ATOM     11  C   UNL     1      34.317 -16.743 -23.663  0.00  0.00    +0.069 C 
ATOM     12  C   UNL     1      34.514 -19.150 -23.720  0.00  0.00    +0.038 C 
ATOM     13  C   UNL     1      33.959 -16.740 -25.011  0.00  0.00    +0.010 C 
ATOM     14  C   UNL     1      34.156 -19.147 -25.069  0.00  0.00    +0.003 C 
ATOM     15  C   UNL     1      33.878 -17.942 -25.713  0.00  0.00    +0.001 C 
ENDBRANCH   8  10
ENDBRANCH   3   8
ENDBRANCH   1   2
BRANCH   1  16
ATOM     16  CA  UNL     1      33.838 -22.978 -17.694  0.00  0.00    +0.108 C 
ATOM     17  O   UNL     1      32.752 -23.305 -15.075  0.00  0.00    -0.270 OA
ATOM     18  N   UNL     1      32.521 -23.174 -17.385  0.00  0.00    -0.278 N 
ATOM     19  C   UNL     1      32.056 -23.326 -16.088  0.00  0.00    +0.249 C 
ATOM     20  H   UNL     1      31.869 -23.209 -18.122  0.00  0.00    +0.155 HD
BRANCH  19  21
ATOM     21  C   UNL     1      30.588 -23.506 -15.949  0.00  0.00    +0.054 C 
ATOM     22  C   UNL     1      29.747 -22.570 -16.514  0.00  0.00    +0.005 C 
ATOM     23  C   UNL     1      30.114 -24.605 -15.264  0.00  0.00    +0.005 C 
ATOM     24  C   UNL     1      28.369 -22.739 -16.384  0.00  0.00    +0.000 C 
ATOM     25  C   UNL     1      28.735 -24.774 -15.135  0.00  0.00    +0.000 C 
ATOM     26  C   UNL     1      27.862 -23.840 -15.695  0.00  0.00    +0.000 C 
ENDBRANCH  19  21
BRANCH  16  28
ATOM     27  OXT UNL     1      35.317 -21.883 -16.137  0.00  0.00    -0.244 OA
ATOM     28  C   UNL     1      34.821 -22.907 -16.581  0.00  0.00    +0.348 C 
BRANCH  28  29
ATOM     29  O   UNL     1      35.107 -24.145 -16.109  0.00  0.00    -0.476 OA
ATOM     30  H   UNL     1      34.457 -24.630 -15.640  0.00  0.00    +0.295 HD
ENDBRANCH  28  29
ENDBRANCH  16  28
ENDBRANCH   1  16
TORSDOF 7
ENDMDL
MODEL 2
REMARK VINA RESULT:     -11.4      5.323      8.663
REMARK  Name = 657131
REMARK  7 active torsions:
REMARK  status: ('A' for Active; 'I' for Inactive)
REMARK    1  A    between atoms: C_1  and  CA_2
REMARK    2  A    between atoms: C_1  and  C_3
REMARK    3  A    between atoms: CA_2  and  C_28
REMARK    4  A    between atoms: C_4  and  O_9
REMARK    5  A    between atoms: O_9  and  C_11
REMARK    6  A    between atoms: C_19  and  C_21
REMARK    7  A    between atoms: C_28  and  O_29
REMARK                            x       y       z     vdW  Elec       q    Type
REMARK                         _______ _______ _______ _____ _____    ______ ____
ROOT
ATOM      1  C   UNL     1      34.775 -15.311 -22.272  0.00  0.00    +0.074 C 
ENDROOT
BRANCH   1   2
ATOM      2  C   UNL     1      33.871 -14.173 -22.263  0.00  0.00    -0.016 C 
ATOM      3  C   UNL     1      32.134 -11.990 -22.243  0.00  0.00    +0.145 C 
ATOM      4  C   UNL     1      33.724 -13.387 -23.406  0.00  0.00    -0.001 C 
ATOM      5  C   UNL     1      33.147 -13.867 -21.110  0.00  0.00    -0.001 C 
ATOM      6  C   UNL     1      32.856 -12.296 -23.397  0.00  0.00    +0.037 C 
ATOM      7  C   UNL     1      32.279 -12.775 -21.100  0.00  0.00    +0.037 C 
BRANCH   3   8
ATOM      8  O   UNL     1      31.286 -10.925 -22.235  0.00  0.00    -0.453 OA
BRANCH   8  10
ATOM      9 BR   UNL     1      30.750 -10.044 -19.288  0.00  0.00    -0.046 Br
ATOM     10  C   UNL     1      31.817  -9.681 -21.937  0.00  0.00    +0.151 C 
ATOM     11  C   UNL     1      31.672  -9.136 -20.673  0.00  0.00    +0.069 C 
ATOM     12  C   UNL     1      32.491  -9.011 -22.943  0.00  0.00    +0.038 C 
ATOM     13  C   UNL     1      32.219  -7.880 -20.407  0.00  0.00    +0.010 C 
ATOM     14  C   UNL     1      33.039  -7.756 -22.676  0.00  0.00    +0.003 C 
ATOM     15  C   UNL     1      32.902  -7.190 -21.408  0.00  0.00    +0.001 C 
ENDBRANCH   8  10
ENDBRANCH   3   8
ENDBRANCH   1   2
BRANCH   1  16
ATOM     16  CA  UNL     1      34.466 -16.576 -22.642  0.00  0.00    +0.108 C 
ATOM     17  O   UNL     1      33.833 -19.282 -23.293  0.00  0.00    -0.270 OA
ATOM     18  N   UNL     1      34.455 -17.633 -21.776  0.00  0.00    -0.278 N 
ATOM     19  C   UNL     1      34.138 -18.928 -22.156  0.00  0.00    +0.249 C 
ATOM     20  H   UNL     1      34.685 -17.466 -20.833  0.00  0.00    +0.155 HD
BRANCH  19  21
ATOM     21  C   UNL     1      34.203 -19.948 -21.078  0.00  0.00    +0.054 C 
ATOM     22  C   UNL     1      33.025 -20.419 -20.536  0.00  0.00    +0.005 C 
ATOM     23  C   UNL     1      35.438 -20.391 -20.655  0.00  0.00    +0.005 C 
ATOM     24  C   UNL     1      33.087 -21.377 -19.524  0.00  0.00    +0.000 C 
ATOM     25  C   UNL     1      35.499 -21.350 -19.643  0.00  0.00    +0.000 C 
ATOM     26  C   UNL     1      34.323 -21.842 -19.077  0.00  0.00    +0.000 C 
ENDBRANCH  19  21
BRANCH  16  28
ATOM     27  OXT UNL     1      33.027 -16.724 -24.571  0.00  0.00    -0.244 OA
ATOM     28  C   UNL     1      34.137 -16.830 -24.070  0.00  0.00    +0.348 C 
BRANCH  28  29
ATOM     29  O   UNL     1      35.240 -17.203 -24.761  0.00  0.00    -0.476 OA
ATOM     30  H   UNL     1      35.730 -17.955 -24.492  0.00  0.00    +0.295 HD
ENDBRANCH  28  29
ENDBRANCH  16  28
ENDBRANCH   1  16
TORSDOF 7
ENDMDL
MODEL 3
REMARK VINA RESULT:     -11.3      1.784      2.524
REMARK  Name = 657131
REMARK  7 active torsions:
REMARK  status: ('A' for Active; 'I' for Inactive)
REMARK    1  A    between atoms: C_1  and  CA_2
REMARK    2  A    between atoms: C_1  and  C_3
REMARK    3  A    between atoms: CA_2  and  C_28
REMARK    4  A    between atoms: C_4  and  O_9
REMARK    5  A    between atoms: O_9  and  C_11
REMARK    6  A    between atoms: C_19  and  C_21
REMARK    7  A    between atoms: C_28  and  O_29
REMARK                            x       y       z     vdW  Elec       q    Type
REMARK                         _______ _______ _______ _____ _____    ______ ____
ROOT
ATOM      1  C   UNL     1      36.512 -22.140 -17.393  0.00  0.00    +0.074 C 
ENDROOT
BRANCH   1   2
ATOM      2  C   UNL     1      35.874 -21.548 -18.556  0.00  0.00    -0.016 C 
ATOM      3  C   UNL     1      34.650 -20.409 -20.790  0.00  0.00    +0.145 C 
ATOM      4  C   UNL     1      34.522 -21.785 -18.809  0.00  0.00    -0.001 C 
ATOM      5  C   UNL     1      36.613 -20.740 -19.422  0.00  0.00    -0.001 C 
ATOM      6  C   UNL     1      33.910 -21.215 -19.925  0.00  0.00    +0.037 C 
ATOM      7  C   UNL     1      36.001 -20.171 -20.539  0.00  0.00    +0.037 C 
BRANCH   3   8
ATOM      8  O   UNL     1      34.052 -19.853 -21.879  0.00  0.00    -0.453 OA
BRANCH   8  10
ATOM      9 BR   UNL     1      34.025 -19.174 -24.926  0.00  0.00    -0.046 Br
ATOM     10  C   UNL     1      34.301 -18.515 -22.138  0.00  0.00    +0.151 C 
ATOM     11  C   UNL     1      34.325 -18.040 -23.438  0.00  0.00    +0.069 C 
ATOM     12  C   UNL     1      34.522 -17.680 -21.056  0.00  0.00    +0.038 C 
ATOM     13  C   UNL     1      34.579 -16.687 -23.663  0.00  0.00    +0.010 C 
ATOM     14  C   UNL     1      34.774 -16.326 -21.282  0.00  0.00    +0.003 C 
ATOM     15  C   UNL     1      34.803 -15.830 -22.585  0.00  0.00    +0.001 C 
ENDBRANCH   8  10
ENDBRANCH   3   8
ENDBRANCH   1   2
BRANCH   1  16
ATOM     16  CA  UNL     1      35.889 -22.784 -16.379  0.00  0.00    +0.108 C 
ATOM     17  O   UNL     1      34.455 -24.104 -14.293  0.00  0.00    -0.270 OA
ATOM     18  N   UNL     1      34.530 -22.820 -16.231  0.00  0.00    -0.278 N 
ATOM     19  C   UNL     1      33.893 -23.481 -15.192  0.00  0.00    +0.249 C 
ATOM     20  H   UNL     1      33.976 -22.353 -16.897  0.00  0.00    +0.155 HD
BRANCH  19  21
ATOM     21  C   UNL     1      32.410 -23.388 -15.186  0.00  0.00    +0.054 C 
ATOM     22  C   UNL     1      31.740 -23.521 -13.988  0.00  0.00    +0.005 C 
ATOM     23  C   UNL     1      31.753 -23.170 -16.378  0.00  0.00    +0.005 C 
ATOM     24  C   UNL     1      30.349 -23.433 -13.982  0.00  0.00    +0.000 C 
ATOM     25  C   UNL     1      30.360 -23.082 -16.372  0.00  0.00    +0.000 C 
ATOM     26  C   UNL     1      29.658 -23.214 -15.173  0.00  0.00    +0.000 C 
ENDBRANCH  19  21
BRANCH  16  28
ATOM     27  OXT UNL     1      37.298 -22.935 -14.429  0.00  0.00    -0.244 OA
ATOM     28  C   UNL     1      36.727 -23.476 -15.364  0.00  0.00    +0.348 C 
BRANCH  28  29
ATOM     29  O   UNL     1      36.784 -24.807 -15.609  0.00  0.00    -0.476 OA
ATOM     30  H   UNL     1      37.247 -25.126 -16.358  0.00  0.00    +0.295 HD
ENDBRANCH  28  29
ENDBRANCH  16  28
ENDBRANCH   1  16
TORSDOF 7
ENDMDL
MODEL 4
REMARK VINA RESULT:     -11.2      1.054      1.570
REMARK  Name = 657131
REMARK  7 active torsions:
REMARK  status: ('A' for Active; 'I' for Inactive)
REMARK    1  A    between atoms: C_1  and  CA_2
REMARK    2  A    between atoms: C_1  and  C_3
REMARK    3  A    between atoms: CA_2  and  C_28
REMARK    4  A    between atoms: C_4  and  O_9
REMARK    5  A    between atoms: O_9  and  C_11
REMARK    6  A    between atoms: C_19  and  C_21
REMARK    7  A    between atoms: C_28  and  O_29
REMARK                            x       y       z     vdW  Elec       q    Type
REMARK                         _______ _______ _______ _____ _____    ______ ____
ROOT
ATOM      1  C   UNL     1      34.787 -22.455 -19.175  0.00  0.00    +0.074 C 
ENDROOT
BRANCH   1   2
ATOM      2  C   UNL     1      34.851 -21.198 -19.903  0.00  0.00    -0.016 C 
ATOM      3  C   UNL     1      34.974 -18.787 -21.301  0.00  0.00    +0.145 C 
ATOM      4  C   UNL     1      33.675 -20.543 -20.270  0.00  0.00    -0.001 C 
ATOM      5  C   UNL     1      36.089 -20.647 -20.235  0.00  0.00    -0.001 C 
ATOM      6  C   UNL     1      33.737 -19.337 -20.969  0.00  0.00    +0.037 C 
ATOM      7  C   UNL     1      36.150 -19.441 -20.934  0.00  0.00    +0.037 C 
BRANCH   3   8
ATOM      8  O   UNL     1      35.034 -17.610 -21.981  0.00  0.00    -0.453 OA
BRANCH   8  10
ATOM      9 BR   UNL     1      34.280 -14.732 -22.927  0.00  0.00    -0.046 Br
ATOM     10  C   UNL     1      34.515 -17.581 -23.265  0.00  0.00    +0.151 C 
ATOM     11  C   UNL     1      34.127 -16.384 -23.843  0.00  0.00    +0.069 C 
ATOM     12  C   UNL     1      34.399 -18.783 -23.941  0.00  0.00    +0.038 C 
ATOM     13  C   UNL     1      33.608 -16.390 -25.137  0.00  0.00    +0.010 C 
ATOM     14  C   UNL     1      33.880 -18.788 -25.236  0.00  0.00    +0.003 C 
ATOM     15  C   UNL     1      33.484 -17.592 -25.834  0.00  0.00    +0.001 C 
ENDBRANCH   8  10
ENDBRANCH   3   8
ENDBRANCH   1   2
BRANCH   1  16
ATOM     16  CA  UNL     1      34.728 -22.598 -17.831  0.00  0.00    +0.108 C 
ATOM     17  O   UNL     1      34.474 -22.946 -15.009  0.00  0.00    -0.270 OA
ATOM     18  N   UNL     1      33.617 -23.043 -17.169  0.00  0.00    -0.278 N 
ATOM     19  C   UNL     1      33.558 -23.190 -15.792  0.00  0.00    +0.249 C 
ATOM     20  H   UNL     1      32.819 -23.271 -17.698  0.00  0.00    +0.155 HD
BRANCH  19  21
ATOM     21  C   UNL     1      32.257 -23.665 -15.253  0.00  0.00    +0.054 C 
ATOM     22  C   UNL     1      32.255 -24.471 -14.133  0.00  0.00    +0.005 C 
ATOM     23  C   UNL     1      31.094 -23.281 -15.887  0.00  0.00    +0.005 C 
ATOM     24  C   UNL     1      31.035 -24.916 -13.627  0.00  0.00    +0.000 C 
ATOM     25  C   UNL     1      29.873 -23.726 -15.380  0.00  0.00    +0.000 C 
ATOM     26  C   UNL     1      29.843 -24.544 -14.250  0.00  0.00    +0.000 C 
ENDBRANCH  19  21
BRANCH  16  28
ATOM     27  OXT UNL     1      36.291 -21.101 -16.771  0.00  0.00    -0.244 OA
ATOM     28  C   UNL     1      35.928 -22.238 -17.031  0.00  0.00    +0.348 C 
BRANCH  28  29
ATOM     29  O   UNL     1      36.586 -23.348 -16.619  0.00  0.00    -0.476 OA
ATOM     30  H   UNL     1      37.478 -23.288 -16.341  0.00  0.00    +0.295 HD
ENDBRANCH  28  29
ENDBRANCH  16  28
ENDBRANCH   1  16
TORSDOF 7
ENDMDL
MODEL 5
REMARK VINA RESULT:     -10.9      5.531      9.178
REMARK  Name = 657131
REMARK  7 active torsions:
REMARK  status: ('A' for Active; 'I' for Inactive)
REMARK    1  A    between atoms: C_1  and  CA_2
REMARK    2  A    between atoms: C_1  and  C_3
REMARK    3  A    between atoms: CA_2  and  C_28
REMARK    4  A    between atoms: C_4  and  O_9
REMARK    5  A    between atoms: O_9  and  C_11
REMARK    6  A    between atoms: C_19  and  C_21
REMARK    7  A    between atoms: C_28  and  O_29
REMARK                            x       y       z     vdW  Elec       q    Type
REMARK                         _______ _______ _______ _____ _____    ______ ____
ROOT
ATOM      1  C   UNL     1      34.728 -14.972 -23.309  0.00  0.00    +0.074 C 
ENDROOT
BRANCH   1   2
ATOM      2  C   UNL     1      33.877 -13.804 -23.158  0.00  0.00    -0.016 C 
ATOM      3  C   UNL     1      32.242 -11.562 -22.865  0.00  0.00    +0.145 C 
ATOM      4  C   UNL     1      33.896 -12.795 -24.122  0.00  0.00    -0.001 C 
ATOM      5  C   UNL     1      33.040 -13.690 -22.047  0.00  0.00    -0.001 C 
ATOM      6  C   UNL     1      33.078 -11.674 -23.976  0.00  0.00    +0.037 C 
ATOM      7  C   UNL     1      32.222 -12.569 -21.901  0.00  0.00    +0.037 C 
BRANCH   3   8
ATOM      8  O   UNL     1      31.444 -10.469 -22.723  0.00  0.00    -0.453 OA
BRANCH   8  10
ATOM      9 BR   UNL     1      32.679  -8.167 -24.433  0.00  0.00    -0.046 Br
ATOM     10  C   UNL     1      31.920  -9.419 -21.955  0.00  0.00    +0.151 C 
ATOM     11  C   UNL     1      32.500  -8.313 -22.552  0.00  0.00    +0.069 C 
ATOM     12  C   UNL     1      31.793  -9.518 -20.580  0.00  0.00    +0.038 C 
ATOM     13  C   UNL     1      32.969  -7.273 -21.749  0.00  0.00    +0.010 C 
ATOM     14  C   UNL     1      32.261  -8.477 -19.777  0.00  0.00    +0.003 C 
ATOM     15  C   UNL     1      32.849  -7.356 -20.362  0.00  0.00    +0.001 C 
ENDBRANCH   8  10
ENDBRANCH   3   8
ENDBRANCH   1   2
BRANCH   1  16
ATOM     16  CA  UNL     1      34.315 -16.236 -23.564  0.00  0.00    +0.108 C 
ATOM     17  O   UNL     1      33.470 -18.932 -23.971  0.00  0.00    -0.270 OA
ATOM     18  N   UNL     1      34.317 -17.232 -22.628  0.00  0.00    -0.278 N 
ATOM     19  C   UNL     1      33.892 -18.526 -22.891  0.00  0.00    +0.249 C 
ATOM     20  H   UNL     1      34.636 -17.020 -21.722  0.00  0.00    +0.155 HD
BRANCH  19  21
ATOM     21  C   UNL     1      33.991 -19.476 -21.753  0.00  0.00    +0.054 C 
ATOM     22  C   UNL     1      35.241 -19.881 -21.331  0.00  0.00    +0.005 C 
ATOM     23  C   UNL     1      32.831 -19.921 -21.154  0.00  0.00    +0.005 C 
ATOM     24  C   UNL     1      35.334 -20.772 -20.263  0.00  0.00    +0.000 C 
ATOM     25  C   UNL     1      32.925 -20.813 -20.085  0.00  0.00    +0.000 C 
ATOM     26  C   UNL     1      34.176 -21.238 -19.640  0.00  0.00    +0.000 C 
ENDBRANCH  19  21
BRANCH  16  28
ATOM     27  OXT UNL     1      34.570 -16.848 -25.882  0.00  0.00    -0.244 OA
ATOM     28  C   UNL     1      33.849 -16.559 -24.938  0.00  0.00    +0.348 C 
BRANCH  28  29
ATOM     29  O   UNL     1      32.498 -16.492 -25.019  0.00  0.00    -0.476 OA
ATOM     30  H   UNL     1      31.999 -16.190 -24.286  0.00  0.00    +0.295 HD
ENDBRANCH  28  29
ENDBRANCH  16  28
ENDBRANCH   1  16
TORSDOF 7
ENDMDL
MODEL 6
REMARK VINA RESULT:     -10.7      2.032      4.313
REMARK  Name = 657131
REMARK  7 active torsions:
REMARK  status: ('A' for Active; 'I' for Inactive)
REMARK    1  A    between atoms: C_1  and  CA_2
REMARK    2  A    between atoms: C_1  and  C_3
REMARK    3  A    between atoms: CA_2  and  C_28
REMARK    4  A    between atoms: C_4  and  O_9
REMARK    5  A    between atoms: O_9  and  C_11
REMARK    6  A    between atoms: C_19  and  C_21
REMARK    7  A    between atoms: C_28  and  O_29
REMARK                            x       y       z     vdW  Elec       q    Type
REMARK                         _______ _______ _______ _____ _____    ______ ____
ROOT
ATOM      1  C   UNL     1      32.356 -22.714 -18.097  0.00  0.00    +0.074 C 
ENDROOT
BRANCH   1   2
ATOM      2  C   UNL     1      33.201 -21.878 -18.934  0.00  0.00    -0.016 C 
ATOM      3  C   UNL     1      34.825 -20.273 -20.538  0.00  0.00    +0.145 C 
ATOM      4  C   UNL     1      32.627 -20.928 -19.779  0.00  0.00    -0.001 C 
ATOM      5  C   UNL     1      34.588 -22.025 -18.891  0.00  0.00    -0.001 C 
ATOM      6  C   UNL     1      33.439 -20.125 -20.581  0.00  0.00    +0.037 C 
ATOM      7  C   UNL     1      35.400 -21.222 -19.693  0.00  0.00    +0.037 C 
BRANCH   3   8
ATOM      8  O   UNL     1      35.617 -19.490 -21.320  0.00  0.00    -0.453 OA
BRANCH   8  10
ATOM      9 BR   UNL     1      34.805 -16.506 -20.891  0.00  0.00    -0.046 Br
ATOM     10  C   UNL     1      35.047 -18.917 -22.444  0.00  0.00    +0.151 C 
ATOM     11  C   UNL     1      34.628 -17.598 -22.430  0.00  0.00    +0.069 C 
ATOM     12  C   UNL     1      34.913 -19.707 -23.573  0.00  0.00    +0.038 C 
ATOM     13  C   UNL     1      34.058 -17.052 -23.580  0.00  0.00    +0.010 C 
ATOM     14  C   UNL     1      34.344 -19.161 -24.723  0.00  0.00    +0.003 C 
ATOM     15  C   UNL     1      33.916 -17.833 -24.727  0.00  0.00    +0.001 C 
ENDBRANCH   8  10
ENDBRANCH   3   8
ENDBRANCH   1   2
BRANCH   1  16
ATOM     16  CA  UNL     1      32.687 -23.232 -16.892  0.00  0.00    +0.108 C 
ATOM     17  O   UNL     1      33.513 -24.332 -14.390  0.00  0.00    -0.270 OA
ATOM     18  N   UNL     1      33.960 -23.593 -16.549  0.00  0.00    -0.278 N 
ATOM     19  C   UNL     1      34.297 -24.123 -15.314  0.00  0.00    +0.249 C 
ATOM     20  H   UNL     1      34.675 -23.469 -17.215  0.00  0.00    +0.155 HD
BRANCH  19  21
ATOM     21  C   UNL     1      35.729 -24.476 -15.136  0.00  0.00    +0.054 C 
ATOM     22  C   UNL     1      36.051 -25.726 -14.649  0.00  0.00    +0.005 C 
ATOM     23  C   UNL     1      36.690 -23.543 -15.465  0.00  0.00    +0.005 C 
ATOM     24  C   UNL     1      37.395 -26.057 -14.483  0.00  0.00    +0.000 C 
ATOM     25  C   UNL     1      38.035 -23.875 -15.299  0.00  0.00    +0.000 C 
ATOM     26  C   UNL     1      38.387 -25.132 -14.807  0.00  0.00    +0.000 C 
ENDBRANCH  19  21
BRANCH  16  28
ATOM     27  OXT UNL     1      30.788 -24.345 -15.907  0.00  0.00    -0.244 OA
ATOM     28  C   UNL     1      31.604 -23.435 -15.893  0.00  0.00    +0.348 C 
BRANCH  28  29
ATOM     29  O   UNL     1      31.632 -22.467 -14.946  0.00  0.00    -0.476 OA
ATOM     30  H   UNL     1      32.388 -22.365 -14.402  0.00  0.00    +0.295 HD
ENDBRANCH  28  29
ENDBRANCH  16  28
ENDBRANCH   1  16
TORSDOF 7
ENDMDL
MODEL 7
REMARK VINA RESULT:     -10.6      2.645      3.530
REMARK  Name = 657131
REMARK  7 active torsions:
REMARK  status: ('A' for Active; 'I' for Inactive)
REMARK    1  A    between atoms: C_1  and  CA_2
REMARK    2  A    between atoms: C_1  and  C_3
REMARK    3  A    between atoms: CA_2  and  C_28
REMARK    4  A    between atoms: C_4  and  O_9
REMARK    5  A    between atoms: O_9  and  C_11
REMARK    6  A    between atoms: C_19  and  C_21
REMARK    7  A    between atoms: C_28  and  O_29
REMARK                            x       y       z     vdW  Elec       q    Type
REMARK                         _______ _______ _______ _____ _____    ______ ____
ROOT
ATOM      1  C   UNL     1      35.650 -21.766 -19.447  0.00  0.00    +0.074 C 
ENDROOT
BRANCH   1   2
ATOM      2  C   UNL     1      35.404 -20.565 -20.228  0.00  0.00    -0.016 C 
ATOM      3  C   UNL     1      34.937 -18.259 -21.727  0.00  0.00    +0.145 C 
ATOM      4  C   UNL     1      34.100 -20.203 -20.563  0.00  0.00    -0.001 C 
ATOM      5  C   UNL     1      36.476 -19.773 -20.642  0.00  0.00    -0.001 C 
ATOM      6  C   UNL     1      33.865 -19.050 -21.312  0.00  0.00    +0.037 C 
ATOM      7  C   UNL     1      36.241 -18.620 -21.392  0.00  0.00    +0.037 C 
BRANCH   3   8
ATOM      8  O   UNL     1      34.708 -17.133 -22.457  0.00  0.00    -0.453 OA
BRANCH   8  10
ATOM      9 BR   UNL     1      33.728 -14.448 -23.712  0.00  0.00    -0.046 Br
ATOM     10  C   UNL     1      34.202 -17.287 -23.737  0.00  0.00    +0.151 C 
ATOM     11  C   UNL     1      33.722 -16.197 -24.443  0.00  0.00    +0.069 C 
ATOM     12  C   UNL     1      34.194 -18.562 -24.277  0.00  0.00    +0.038 C 
ATOM     13  C   UNL     1      33.219 -16.388 -25.730  0.00  0.00    +0.010 C 
ATOM     14  C   UNL     1      33.691 -18.751 -25.565  0.00  0.00    +0.003 C 
ATOM     15  C   UNL     1      33.204 -17.665 -26.291  0.00  0.00    +0.001 C 
ENDBRANCH   8  10
ENDBRANCH   3   8
ENDBRANCH   1   2
BRANCH   1  16
ATOM     16  CA  UNL     1      34.800 -22.329 -18.557  0.00  0.00    +0.108 C 
ATOM     17  O   UNL     1      33.105 -23.507 -16.585  0.00  0.00    -0.270 OA
ATOM     18  N   UNL     1      35.132 -22.587 -17.256  0.00  0.00    -0.278 N 
ATOM     19  C   UNL     1      34.260 -23.163 -16.345  0.00  0.00    +0.249 C 
ATOM     20  H   UNL     1      36.038 -22.352 -16.951  0.00  0.00    +0.155 HD
BRANCH  19  21
ATOM     21  C   UNL     1      34.811 -23.388 -14.984  0.00  0.00    +0.054 C 
ATOM     22  C   UNL     1      36.125 -23.052 -14.734  0.00  0.00    +0.005 C 
ATOM     23  C   UNL     1      33.990 -23.921 -14.013  0.00  0.00    +0.005 C 
ATOM     24  C   UNL     1      36.642 -23.261 -13.456  0.00  0.00    +0.000 C 
ATOM     25  C   UNL     1      34.507 -24.131 -12.735  0.00  0.00    +0.000 C 
ATOM     26  C   UNL     1      35.834 -23.801 -12.456  0.00  0.00    +0.000 C 
ENDBRANCH  19  21
BRANCH  16  28
ATOM     27  OXT UNL     1      32.442 -21.996 -18.939  0.00  0.00    -0.244 OA
ATOM     28  C   UNL     1      33.437 -22.700 -19.023  0.00  0.00    +0.348 C 
BRANCH  28  29
ATOM     29  O   UNL     1      33.433 -23.943 -19.564  0.00  0.00    -0.476 OA
ATOM     30  H   UNL     1      34.050 -24.164 -20.233  0.00  0.00    +0.295 HD
ENDBRANCH  28  29
ENDBRANCH  16  28
ENDBRANCH   1  16
TORSDOF 7
ENDMDL
MODEL 8
REMARK VINA RESULT:     -10.5      7.529     12.443
REMARK  Name = 657131
REMARK  7 active torsions:
REMARK  status: ('A' for Active; 'I' for Inactive)
REMARK    1  A    between atoms: C_1  and  CA_2
REMARK    2  A    between atoms: C_1  and  C_3
REMARK    3  A    between atoms: CA_2  and  C_28
REMARK    4  A    between atoms: C_4  and  O_9
REMARK    5  A    between atoms: O_9  and  C_11
REMARK    6  A    between atoms: C_19  and  C_21
REMARK    7  A    between atoms: C_28  and  O_29
REMARK                            x       y       z     vdW  Elec       q    Type
REMARK                         _______ _______ _______ _____ _____    ______ ____
ROOT
ATOM      1  C   UNL     1      31.174 -11.649 -21.552  0.00  0.00    +0.074 C 
ENDROOT
BRANCH   1   2
ATOM      2  C   UNL     1      32.194 -12.619 -21.911  0.00  0.00    -0.016 C 
ATOM      3  C   UNL     1      34.153 -14.482 -22.603  0.00  0.00    +0.145 C 
ATOM      4  C   UNL     1      32.827 -13.368 -20.919  0.00  0.00    -0.001 C 
ATOM      5  C   UNL     1      32.541 -12.803 -23.251  0.00  0.00    -0.001 C 
ATOM      6  C   UNL     1      33.806 -14.300 -21.265  0.00  0.00    +0.037 C 
ATOM      7  C   UNL     1      33.520 -13.735 -23.596  0.00  0.00    +0.037 C 
BRANCH   3   8
ATOM      8  O   UNL     1      35.107 -15.392 -22.940  0.00  0.00    -0.453 OA
BRANCH   8  10
ATOM      9 BR   UNL     1      34.244 -16.868 -25.552  0.00  0.00    -0.046 Br
ATOM     10  C   UNL     1      34.822 -16.732 -22.736  0.00  0.00    +0.151 C 
ATOM     11  C   UNL     1      34.423 -17.537 -23.788  0.00  0.00    +0.069 C 
ATOM     12  C   UNL     1      34.950 -17.229 -21.450  0.00  0.00    +0.038 C 
ATOM     13  C   UNL     1      34.143 -18.883 -23.547  0.00  0.00    +0.010 C 
ATOM     14  C   UNL     1      34.670 -18.575 -21.210  0.00  0.00    +0.003 C 
ATOM     15  C   UNL     1      34.267 -19.401 -22.258  0.00  0.00    +0.001 C 
ENDBRANCH   8  10
ENDBRANCH   3   8
ENDBRANCH   1   2
BRANCH   1  16
ATOM     16  CA  UNL     1      31.389 -10.395 -21.089  0.00  0.00    +0.108 C 
ATOM     17  O   UNL     1      31.855  -7.710 -20.240  0.00  0.00    -0.270 OA
ATOM     18  N   UNL     1      31.625  -9.321 -21.901  0.00  0.00    -0.278 N 
ATOM     19  C   UNL     1      31.844  -8.038 -21.424  0.00  0.00    +0.249 C 
ATOM     20  H   UNL     1      31.638  -9.467 -22.875  0.00  0.00    +0.155 HD
BRANCH  19  21
ATOM     21  C   UNL     1      32.105  -7.005 -22.460  0.00  0.00    +0.054 C 
ATOM     22  C   UNL     1      32.032  -5.674 -22.105  0.00  0.00    +0.005 C 
ATOM     23  C   UNL     1      32.414  -7.410 -23.741  0.00  0.00    +0.005 C 
ATOM     24  C   UNL     1      32.278  -4.705 -23.077  0.00  0.00    +0.000 C 
ATOM     25  C   UNL     1      32.660  -6.440 -24.713  0.00  0.00    +0.000 C 
ATOM     26  C   UNL     1      32.592  -5.087 -24.380  0.00  0.00    +0.000 C 
ENDBRANCH  19  21
BRANCH  16  28
ATOM     27  OXT UNL     1      32.368 -10.221 -18.892  0.00  0.00    -0.244 OA
ATOM     28  C   UNL     1      31.385 -10.180 -19.618  0.00  0.00    +0.348 C 
BRANCH  28  29
ATOM     29  O   UNL     1      30.132  -9.928 -19.169  0.00  0.00    -0.476 OA
ATOM     30  H   UNL     1      29.407 -10.420 -19.503  0.00  0.00    +0.295 HD
ENDBRANCH  28  29
ENDBRANCH  16  28
ENDBRANCH   1  16
TORSDOF 7
ENDMDL
MODEL 9
REMARK VINA RESULT:     -10.5      3.377      9.777
REMARK  Name = 657131
REMARK  7 active torsions:
REMARK  status: ('A' for Active; 'I' for Inactive)
REMARK    1  A    between atoms: C_1  and  CA_2
REMARK    2  A    between atoms: C_1  and  C_3
REMARK    3  A    between atoms: CA_2  and  C_28
REMARK    4  A    between atoms: C_4  and  O_9
REMARK    5  A    between atoms: O_9  and  C_11
REMARK    6  A    between atoms: C_19  and  C_21
REMARK    7  A    between atoms: C_28  and  O_29
REMARK                            x       y       z     vdW  Elec       q    Type
REMARK                         _______ _______ _______ _____ _____    ______ ____
ROOT
ATOM      1  C   UNL     1      34.854 -17.852 -21.559  0.00  0.00    +0.074 C 
ENDROOT
BRANCH   1   2
ATOM      2  C   UNL     1      34.831 -19.139 -20.885  0.00  0.00    -0.016 C 
ATOM      3  C   UNL     1      34.789 -21.610 -19.591  0.00  0.00    +0.145 C 
ATOM      4  C   UNL     1      33.613 -19.748 -20.582  0.00  0.00    -0.001 C 
ATOM      5  C   UNL     1      36.029 -19.767 -20.540  0.00  0.00    -0.001 C 
ATOM      6  C   UNL     1      33.592 -20.983 -19.935  0.00  0.00    +0.037 C 
ATOM      7  C   UNL     1      36.007 -21.002 -19.893  0.00  0.00    +0.037 C 
BRANCH   3   8
ATOM      8  O   UNL     1      34.768 -22.816 -18.960  0.00  0.00    -0.453 OA
BRANCH   8  10
ATOM      9 BR   UNL     1      36.664 -22.447 -16.507  0.00  0.00    -0.046 Br
ATOM     10  C   UNL     1      34.105 -22.897 -17.747  0.00  0.00    +0.151 C 
ATOM     11  C   UNL     1      34.794 -22.756 -16.555  0.00  0.00    +0.069 C 
ATOM     12  C   UNL     1      32.740 -23.123 -17.773  0.00  0.00    +0.038 C 
ATOM     13  C   UNL     1      34.096 -22.844 -15.350  0.00  0.00    +0.010 C 
ATOM     14  C   UNL     1      32.042 -23.211 -16.568  0.00  0.00    +0.003 C 
ATOM     15  C   UNL     1      32.720 -23.071 -15.357  0.00  0.00    +0.001 C 
ENDBRANCH   8  10
ENDBRANCH   3   8
ENDBRANCH   1   2
BRANCH   1  16
ATOM     16  CA  UNL     1      34.412 -17.597 -22.813  0.00  0.00    +0.108 C 
ATOM     17  O   UNL     1      33.482 -16.927 -25.427  0.00  0.00    -0.270 OA
ATOM     18  N   UNL     1      34.164 -16.337 -23.283  0.00  0.00    -0.278 N 
ATOM     19  C   UNL     1      33.712 -16.078 -24.568  0.00  0.00    +0.249 C 
ATOM     20  H   UNL     1      34.314 -15.576 -22.678  0.00  0.00    +0.155 HD
BRANCH  19  21
ATOM     21  C   UNL     1      33.477 -14.647 -24.889  0.00  0.00    +0.054 C 
ATOM     22  C   UNL     1      33.693 -13.701 -23.907  0.00  0.00    +0.005 C 
ATOM     23  C   UNL     1      33.053 -14.309 -26.157  0.00  0.00    +0.005 C 
ATOM     24  C   UNL     1      33.473 -12.358 -24.208  0.00  0.00    +0.000 C 
ATOM     25  C   UNL     1      32.833 -12.965 -26.457  0.00  0.00    +0.000 C 
ATOM     26  C   UNL     1      33.043 -11.989 -25.483  0.00  0.00    +0.000 C 
ENDBRANCH  19  21
BRANCH  16  28
ATOM     27  OXT UNL     1      35.033 -19.392 -24.298  0.00  0.00    -0.244 OA
ATOM     28  C   UNL     1      34.169 -18.749 -23.720  0.00  0.00    +0.348 C 
BRANCH  28  29
ATOM     29  O   UNL     1      32.843 -19.005 -23.832  0.00  0.00    -0.476 OA
ATOM     30  H   UNL     1      32.391 -19.445 -23.140  0.00  0.00    +0.295 HD
ENDBRANCH  28  29
ENDBRANCH  16  28
ENDBRANCH   1  16
TORSDOF 7
ENDMDL
