MODEL 1
REMARK VINA RESULT:     -12.9      0.000      0.000
REMARK  Name = 11952989
REMARK  5 active torsions:
REMARK  status: ('A' for Active; 'I' for Inactive)
REMARK    1  A    between atoms: C_4  and  C_21
REMARK    2  A    between atoms: C_6  and  C_11
REMARK    3  A    between atoms: C_24  and  C_27
REMARK    4  A    between atoms: C_27  and  C_29
REMARK    5  A    between atoms: C_29  and  O_30
REMARK                            x       y       z     vdW  Elec       q    Type
REMARK                         _______ _______ _______ _____ _____    ______ ____
ROOT
ATOM      1  N   UNL     1      31.615 -24.003 -15.727  0.00  0.00    -0.297 N 
ATOM      2  N   UNL     1      31.382 -22.577 -17.655  0.00  0.00    -0.229 NA
ATOM      3  C   UNL     1      33.510 -23.280 -16.659  0.00  0.00    +0.033 C 
ATOM      4  C   UNL     1      33.830 -24.101 -15.546  0.00  0.00    +0.017 C 
ATOM      5  C   UNL     1      32.121 -23.239 -16.745  0.00  0.00    +0.132 C 
ATOM      6  C   UNL     1      33.521 -21.853 -18.583  0.00  0.00    +0.019 C 
ATOM      7  C   UNL     1      34.238 -22.557 -17.618  0.00  0.00    +0.004 C 
ATOM      8  C   UNL     1      32.644 -24.532 -14.992  0.00  0.00    +0.063 C 
ATOM      9  C   UNL     1      32.134 -21.899 -18.553  0.00  0.00    +0.100 C 
ATOM     10  H   UNL     1      30.657 -24.151 -15.550  0.00  0.00    +0.154 HD
ENDROOT
BRANCH   6  11
ATOM     11  C   UNL     1      34.211 -21.088 -19.598  0.00  0.00    +0.001 C 
ATOM     12  C   UNL     1      34.137 -19.699 -21.595  0.00  0.00    +0.000 C 
ATOM     13  C   UNL     1      33.483 -20.446 -20.601  0.00  0.00    +0.000 C 
ATOM     14  C   UNL     1      35.549 -19.603 -21.571  0.00  0.00    +0.000 C 
ATOM     15  C   UNL     1      35.599 -20.993 -19.575  0.00  0.00    +0.000 C 
ATOM     16  C   UNL     1      36.265 -20.256 -20.554  0.00  0.00    +0.000 C 
ATOM     17  C   UNL     1      33.421 -19.046 -22.611  0.00  0.00    +0.000 C 
ATOM     18  C   UNL     1      36.203 -18.856 -22.565  0.00  0.00    +0.000 C 
ATOM     19  C   UNL     1      34.088 -18.309 -23.590  0.00  0.00    +0.000 C 
ATOM     20  C   UNL     1      35.476 -18.214 -23.568  0.00  0.00    +0.000 C 
ENDBRANCH   6  11
BRANCH   4  21
ATOM     21  C   UNL     1      35.108 -24.475 -15.013  0.00  0.00    +0.001 C 
ATOM     22  C   UNL     1      35.908 -23.520 -14.383  0.00  0.00    -0.000 C 
ATOM     23  C   UNL     1      35.554 -25.793 -15.122  0.00  0.00    -0.000 C 
ATOM     24  C   UNL     1      37.595 -25.202 -13.974  0.00  0.00    -0.011 C 
ATOM     25  C   UNL     1      37.151 -23.884 -13.864  0.00  0.00    -0.004 C 
ATOM     26  C   UNL     1      36.796 -26.156 -14.604  0.00  0.00    -0.004 C 
BRANCH  24  27
ATOM     27  C   UNL     1      38.923 -25.590 -13.417  0.00  0.00    +0.136 C 
BRANCH  27  29
ATOM     28  O   UNL     1      40.282 -26.848 -14.997  0.00  0.00    -0.250 OA
ATOM     29  C   UNL     1      39.990 -25.781 -14.476  0.00  0.00    +0.318 C 
BRANCH  29  30
ATOM     30  O   UNL     1      40.604 -24.610 -14.793  0.00  0.00    -0.480 OA
ATOM     31  H   UNL     1      40.916 -24.045 -14.112  0.00  0.00    +0.295 HD
ENDBRANCH  29  30
ENDBRANCH  27  29
ENDBRANCH  24  27
ENDBRANCH   4  21
TORSDOF 5
ENDMDL
MODEL 2
REMARK VINA RESULT:     -12.6      4.887      6.955
REMARK  Name = 11952989
REMARK  5 active torsions:
REMARK  status: ('A' for Active; 'I' for Inactive)
REMARK    1  A    between atoms: C_4  and  C_21
REMARK    2  A    between atoms: C_6  and  C_11
REMARK    3  A    between atoms: C_24  and  C_27
REMARK    4  A    between atoms: C_27  and  C_29
REMARK    5  A    between atoms: C_29  and  O_30
REMARK                            x       y       z     vdW  Elec       q    Type
REMARK                         _______ _______ _______ _____ _____    ______ ____
ROOT
ATOM      1  N   UNL     1      32.951 -24.981 -14.172  0.00  0.00    -0.297 N 
ATOM      2  N   UNL     1      34.849 -24.240 -15.457  0.00  0.00    -0.229 NA
ATOM      3  C   UNL     1      32.520 -23.586 -15.861  0.00  0.00    +0.033 C 
ATOM      4  C   UNL     1      31.299 -23.918 -15.217  0.00  0.00    +0.017 C 
ATOM      5  C   UNL     1      33.530 -24.265 -15.185  0.00  0.00    +0.132 C 
ATOM      6  C   UNL     1      34.251 -22.721 -17.272  0.00  0.00    +0.019 C 
ATOM      7  C   UNL     1      32.897 -22.782 -16.949  0.00  0.00    +0.004 C 
ATOM      8  C   UNL     1      31.595 -24.778 -14.181  0.00  0.00    +0.063 C 
ATOM      9  C   UNL     1      35.155 -23.450 -16.512  0.00  0.00    +0.100 C 
ATOM     10  H   UNL     1      33.434 -25.554 -13.533  0.00  0.00    +0.154 HD
ENDROOT
BRANCH   6  11
ATOM     11  C   UNL     1      34.705 -21.911 -18.382  0.00  0.00    +0.001 C 
ATOM     12  C   UNL     1      34.200 -20.540 -20.327  0.00  0.00    +0.000 C 
ATOM     13  C   UNL     1      33.776 -21.329 -19.245  0.00  0.00    +0.000 C 
ATOM     14  C   UNL     1      35.586 -20.339 -20.536  0.00  0.00    +0.000 C 
ATOM     15  C   UNL     1      36.067 -21.714 -18.587  0.00  0.00    +0.000 C 
ATOM     16  C   UNL     1      36.506 -20.933 -19.656  0.00  0.00    +0.000 C 
ATOM     17  C   UNL     1      33.280 -19.947 -21.207  0.00  0.00    +0.000 C 
ATOM     18  C   UNL     1      36.010 -19.551 -21.618  0.00  0.00    +0.000 C 
ATOM     19  C   UNL     1      33.720 -19.166 -22.276  0.00  0.00    +0.000 C 
ATOM     20  C   UNL     1      35.082 -18.968 -22.482  0.00  0.00    +0.000 C 
ENDBRANCH   6  11
BRANCH   4  21
ATOM     21  C   UNL     1      29.959 -23.497 -15.507  0.00  0.00    +0.001 C 
ATOM     22  C   UNL     1      29.460 -22.319 -14.950  0.00  0.00    -0.000 C 
ATOM     23  C   UNL     1      29.152 -24.264 -16.349  0.00  0.00    -0.000 C 
ATOM     24  C   UNL     1      27.352 -22.678 -16.075  0.00  0.00    -0.011 C 
ATOM     25  C   UNL     1      28.157 -21.910 -15.233  0.00  0.00    -0.004 C 
ATOM     26  C   UNL     1      27.850 -23.855 -16.633  0.00  0.00    -0.004 C 
BRANCH  24  27
ATOM     27  C   UNL     1      25.959 -22.237 -16.379  0.00  0.00    +0.136 C 
BRANCH  27  29
ATOM     28  O   UNL     1      25.843 -22.204 -18.811  0.00  0.00    -0.250 OA
ATOM     29  C   UNL     1      25.812 -21.601 -17.746  0.00  0.00    +0.318 C 
BRANCH  29  30
ATOM     30  O   UNL     1      25.638 -20.255 -17.663  0.00  0.00    -0.480 OA
ATOM     31  H   UNL     1      26.382 -19.686 -17.665  0.00  0.00    +0.295 HD
ENDBRANCH  29  30
ENDBRANCH  27  29
ENDBRANCH  24  27
ENDBRANCH   4  21
TORSDOF 5
ENDMDL
MODEL 3
REMARK VINA RESULT:     -12.2      7.503     13.022
REMARK  Name = 11952989
REMARK  5 active torsions:
REMARK  status: ('A' for Active; 'I' for Inactive)
REMARK    1  A    between atoms: C_4  and  C_21
REMARK    2  A    between atoms: C_6  and  C_11
REMARK    3  A    between atoms: C_24  and  C_27
REMARK    4  A    between atoms: C_27  and  C_29
REMARK    5  A    between atoms: C_29  and  O_30
REMARK                            x       y       z     vdW  Elec       q    Type
REMARK                         _______ _______ _______ _____ _____    ______ ____
ROOT
ATOM      1  N   UNL     1      31.833 -15.766 -27.758  0.00  0.00    -0.297 N 
ATOM      2  N   UNL     1      32.286 -17.855 -26.648  0.00  0.00    -0.229 NA
ATOM      3  C   UNL     1      33.071 -15.655 -25.903  0.00  0.00    +0.033 C 
ATOM      4  C   UNL     1      32.903 -14.343 -26.423  0.00  0.00    +0.017 C 
ATOM      5  C   UNL     1      32.392 -16.518 -26.758  0.00  0.00    +0.132 C 
ATOM      6  C   UNL     1      33.646 -17.603 -24.636  0.00  0.00    +0.019 C 
ATOM      7  C   UNL     1      33.724 -16.222 -24.797  0.00  0.00    +0.004 C 
ATOM      8  C   UNL     1      32.137 -14.443 -27.565  0.00  0.00    +0.063 C 
ATOM      9  C   UNL     1      32.933 -18.347 -25.566  0.00  0.00    +0.100 C 
ATOM     10  H   UNL     1      31.295 -16.121 -28.503  0.00  0.00    +0.154 HD
ENDROOT
BRANCH   6  11
ATOM     11  C   UNL     1      34.296 -18.250 -23.517  0.00  0.00    +0.001 C 
ATOM     12  C   UNL     1      34.183 -19.734 -21.592  0.00  0.00    +0.000 C 
ATOM     13  C   UNL     1      33.567 -19.098 -22.683  0.00  0.00    +0.000 C 
ATOM     14  C   UNL     1      35.559 -19.506 -21.345  0.00  0.00    +0.000 C 
ATOM     15  C   UNL     1      35.648 -18.026 -23.274  0.00  0.00    +0.000 C 
ATOM     16  C   UNL     1      36.277 -18.649 -22.196  0.00  0.00    +0.000 C 
ATOM     17  C   UNL     1      33.465 -20.590 -20.742  0.00  0.00    +0.000 C 
ATOM     18  C   UNL     1      36.174 -20.142 -20.255  0.00  0.00    +0.000 C 
ATOM     19  C   UNL     1      34.095 -21.213 -19.663  0.00  0.00    +0.000 C 
ATOM     20  C   UNL     1      35.446 -20.989 -19.420  0.00  0.00    +0.000 C 
ENDBRANCH   6  11
BRANCH   4  21
ATOM     21  C   UNL     1      33.394 -13.088 -25.934  0.00  0.00    +0.001 C 
ATOM     22  C   UNL     1      33.906 -12.143 -26.824  0.00  0.00    -0.000 C 
ATOM     23  C   UNL     1      33.360 -12.808 -24.567  0.00  0.00    -0.000 C 
ATOM     24  C   UNL     1      34.348 -10.644 -24.981  0.00  0.00    -0.011 C 
ATOM     25  C   UNL     1      34.383 -10.922 -26.348  0.00  0.00    -0.004 C 
ATOM     26  C   UNL     1      33.837 -11.588 -24.090  0.00  0.00    -0.004 C 
BRANCH  24  27
ATOM     27  C   UNL     1      34.857  -9.337 -24.473  0.00  0.00    +0.136 C 
BRANCH  27  29
ATOM     28  O   UNL     1      33.708  -8.074 -22.737  0.00  0.00    -0.250 OA
ATOM     29  C   UNL     1      33.771  -8.448 -23.901  0.00  0.00    +0.318 C 
BRANCH  29  30
ATOM     30  O   UNL     1      32.852  -8.100 -24.840  0.00  0.00    -0.480 OA
ATOM     31  H   UNL     1      32.514  -7.226 -24.864  0.00  0.00    +0.295 HD
ENDBRANCH  29  30
ENDBRANCH  27  29
ENDBRANCH  24  27
ENDBRANCH   4  21
TORSDOF 5
ENDMDL
MODEL 4
REMARK VINA RESULT:     -12.0      4.280      6.068
REMARK  Name = 11952989
REMARK  5 active torsions:
REMARK  status: ('A' for Active; 'I' for Inactive)
REMARK    1  A    between atoms: C_4  and  C_21
REMARK    2  A    between atoms: C_6  and  C_11
REMARK    3  A    between atoms: C_24  and  C_27
REMARK    4  A    between atoms: C_27  and  C_29
REMARK    5  A    between atoms: C_29  and  O_30
REMARK                            x       y       z     vdW  Elec       q    Type
REMARK                         _______ _______ _______ _____ _____    ______ ____
ROOT
ATOM      1  N   UNL     1      35.491 -24.169 -14.541  0.00  0.00    -0.297 N 
ATOM      2  N   UNL     1      36.899 -23.036 -16.133  0.00  0.00    -0.229 NA
ATOM      3  C   UNL     1      34.448 -23.079 -16.187  0.00  0.00    +0.033 C 
ATOM      4  C   UNL     1      33.474 -23.684 -15.347  0.00  0.00    +0.017 C 
ATOM      5  C   UNL     1      35.694 -23.401 -15.657  0.00  0.00    +0.132 C 
ATOM      6  C   UNL     1      35.644 -21.883 -17.881  0.00  0.00    +0.019 C 
ATOM      7  C   UNL     1      34.424 -22.288 -17.347  0.00  0.00    +0.004 C 
ATOM      8  C   UNL     1      34.146 -24.347 -14.343  0.00  0.00    +0.063 C 
ATOM      9  C   UNL     1      36.816 -22.275 -17.249  0.00  0.00    +0.100 C 
ATOM     10  H   UNL     1      36.202 -24.537 -13.967  0.00  0.00    +0.154 HD
ENDROOT
BRANCH   6  11
ATOM     11  C   UNL     1      35.689 -21.066 -19.075  0.00  0.00    +0.001 C 
ATOM     12  C   UNL     1      34.549 -20.053 -20.970  0.00  0.00    +0.000 C 
ATOM     13  C   UNL     1      34.524 -20.842 -19.809  0.00  0.00    +0.000 C 
ATOM     14  C   UNL     1      35.774 -19.482 -21.393  0.00  0.00    +0.000 C 
ATOM     15  C   UNL     1      36.893 -20.506 -19.490  0.00  0.00    +0.000 C 
ATOM     16  C   UNL     1      36.937 -19.718 -20.641  0.00  0.00    +0.000 C 
ATOM     17  C   UNL     1      33.386 -19.817 -21.722  0.00  0.00    +0.000 C 
ATOM     18  C   UNL     1      35.799 -18.693 -22.554  0.00  0.00    +0.000 C 
ATOM     19  C   UNL     1      33.431 -19.030 -22.873  0.00  0.00    +0.000 C 
ATOM     20  C   UNL     1      34.635 -18.469 -23.289  0.00  0.00    +0.000 C 
ENDBRANCH   6  11
BRANCH   4  21
ATOM     21  C   UNL     1      32.043 -23.670 -15.437  0.00  0.00    +0.001 C 
ATOM     22  C   UNL     1      31.277 -24.363 -14.498  0.00  0.00    -0.000 C 
ATOM     23  C   UNL     1      31.414 -22.964 -16.463  0.00  0.00    -0.000 C 
ATOM     24  C   UNL     1      29.258 -23.642 -15.612  0.00  0.00    -0.011 C 
ATOM     25  C   UNL     1      29.886 -24.349 -14.586  0.00  0.00    -0.004 C 
ATOM     26  C   UNL     1      30.022 -22.950 -16.551  0.00  0.00    -0.004 C 
BRANCH  24  27
ATOM     27  C   UNL     1      27.769 -23.626 -15.703  0.00  0.00    +0.136 C 
BRANCH  27  29
ATOM     28  O   UNL     1      27.019 -21.611 -16.845  0.00  0.00    -0.250 OA
ATOM     29  C   UNL     1      27.244 -22.813 -16.869  0.00  0.00    +0.318 C 
BRANCH  29  30
ATOM     30  O   UNL     1      27.044 -23.581 -17.973  0.00  0.00    -0.480 OA
ATOM     31  H   UNL     1      27.044 -24.516 -17.900  0.00  0.00    +0.295 HD
ENDBRANCH  29  30
ENDBRANCH  27  29
ENDBRANCH  24  27
ENDBRANCH   4  21
TORSDOF 5
ENDMDL
MODEL 5
REMARK VINA RESULT:     -11.9      7.218     12.453
REMARK  Name = 11952989
REMARK  5 active torsions:
REMARK  status: ('A' for Active; 'I' for Inactive)
REMARK    1  A    between atoms: C_4  and  C_21
REMARK    2  A    between atoms: C_6  and  C_11
REMARK    3  A    between atoms: C_24  and  C_27
REMARK    4  A    between atoms: C_27  and  C_29
REMARK    5  A    between atoms: C_29  and  O_30
REMARK                            x       y       z     vdW  Elec       q    Type
REMARK                         _______ _______ _______ _____ _____    ______ ____
ROOT
ATOM      1  N   UNL     1      33.133 -14.476 -27.225  0.00  0.00    -0.297 N 
ATOM      2  N   UNL     1      33.880 -16.690 -26.642  0.00  0.00    -0.229 NA
ATOM      3  C   UNL     1      33.436 -14.878 -25.051  0.00  0.00    +0.033 C 
ATOM      4  C   UNL     1      32.998 -13.537 -25.213  0.00  0.00    +0.017 C 
ATOM      5  C   UNL     1      33.509 -15.436 -26.324  0.00  0.00    +0.132 C 
ATOM      6  C   UNL     1      34.174 -17.007 -24.239  0.00  0.00    +0.019 C 
ATOM      7  C   UNL     1      33.783 -15.698 -23.965  0.00  0.00    +0.004 C 
ATOM      8  C   UNL     1      32.820 -13.318 -26.562  0.00  0.00    +0.063 C 
ATOM      9  C   UNL     1      34.202 -17.435 -25.559  0.00  0.00    +0.100 C 
ATOM     10  H   UNL     1      33.092 -14.599 -28.202  0.00  0.00    +0.154 HD
ENDROOT
BRANCH   6  11
ATOM     11  C   UNL     1      34.544 -17.903 -23.165  0.00  0.00    +0.001 C 
ATOM     12  C   UNL     1      33.911 -19.556 -21.496  0.00  0.00    +0.000 C 
ATOM     13  C   UNL     1      33.569 -18.681 -22.540  0.00  0.00    +0.000 C 
ATOM     14  C   UNL     1      35.262 -19.643 -21.081  0.00  0.00    +0.000 C 
ATOM     15  C   UNL     1      35.872 -17.988 -22.757  0.00  0.00    +0.000 C 
ATOM     16  C   UNL     1      36.230 -18.852 -21.722  0.00  0.00    +0.000 C 
ATOM     17  C   UNL     1      32.943 -20.346 -20.855  0.00  0.00    +0.000 C 
ATOM     18  C   UNL     1      35.604 -20.518 -20.037  0.00  0.00    +0.000 C 
ATOM     19  C   UNL     1      33.303 -21.210 -19.819  0.00  0.00    +0.000 C 
ATOM     20  C   UNL     1      34.630 -21.296 -19.411  0.00  0.00    +0.000 C 
ENDBRANCH   6  11
BRANCH   4  21
ATOM     21  C   UNL     1      32.757 -12.520 -24.230  0.00  0.00    +0.001 C 
ATOM     22  C   UNL     1      33.091 -11.193 -24.502  0.00  0.00    -0.000 C 
ATOM     23  C   UNL     1      32.188 -12.857 -23.001  0.00  0.00    -0.000 C 
ATOM     24  C   UNL     1      32.287 -10.542 -22.318  0.00  0.00    -0.011 C 
ATOM     25  C   UNL     1      32.857 -10.205 -23.546  0.00  0.00    -0.004 C 
ATOM     26  C   UNL     1      31.953 -11.869 -22.046  0.00  0.00    -0.004 C 
BRANCH  24  27
ATOM     27  C   UNL     1      32.034  -9.484 -21.298  0.00  0.00    +0.136 C 
BRANCH  27  29
ATOM     28  O   UNL     1      30.165 -10.288 -19.960  0.00  0.00    -0.250 OA
ATOM     29  C   UNL     1      31.352 -10.001 -20.047  0.00  0.00    +0.318 C 
BRANCH  29  30
ATOM     30  O   UNL     1      32.219 -10.114 -19.007  0.00  0.00    -0.480 OA
ATOM     31  H   UNL     1      31.953 -10.553 -18.222  0.00  0.00    +0.295 HD
ENDBRANCH  29  30
ENDBRANCH  27  29
ENDBRANCH  24  27
ENDBRANCH   4  21
TORSDOF 5
ENDMDL
MODEL 6
REMARK VINA RESULT:     -11.7      6.936     10.737
REMARK  Name = 11952989
REMARK  5 active torsions:
REMARK  status: ('A' for Active; 'I' for Inactive)
REMARK    1  A    between atoms: C_4  and  C_21
REMARK    2  A    between atoms: C_6  and  C_11
REMARK    3  A    between atoms: C_24  and  C_27
REMARK    4  A    between atoms: C_27  and  C_29
REMARK    5  A    between atoms: C_29  and  O_30
REMARK                            x       y       z     vdW  Elec       q    Type
REMARK                         _______ _______ _______ _____ _____    ______ ____
ROOT
ATOM      1  N   UNL     1      33.810 -15.703 -26.464  0.00  0.00    -0.297 N 
ATOM      2  N   UNL     1      32.932 -13.517 -25.961  0.00  0.00    -0.229 NA
ATOM      3  C   UNL     1      33.565 -15.207 -24.301  0.00  0.00    +0.033 C 
ATOM      4  C   UNL     1      34.090 -16.522 -24.414  0.00  0.00    +0.017 C 
ATOM      5  C   UNL     1      33.403 -14.725 -25.596  0.00  0.00    +0.132 C 
ATOM      6  C   UNL     1      32.711 -13.094 -23.567  0.00  0.00    +0.019 C 
ATOM      7  C   UNL     1      33.204 -14.356 -23.244  0.00  0.00    +0.004 C 
ATOM      8  C   UNL     1      34.230 -16.800 -25.756  0.00  0.00    +0.063 C 
ATOM      9  C   UNL     1      32.601 -12.740 -24.904  0.00  0.00    +0.100 C 
ATOM     10  H   UNL     1      33.804 -15.630 -27.446  0.00  0.00    +0.154 HD
ENDROOT
BRANCH   6  11
ATOM     11  C   UNL     1      32.320 -12.169 -22.525  0.00  0.00    +0.001 C 
ATOM     12  C   UNL     1      31.950  -9.884 -21.776  0.00  0.00    +0.000 C 
ATOM     13  C   UNL     1      32.325 -10.796 -22.775  0.00  0.00    +0.000 C 
ATOM     14  C   UNL     1      31.564 -10.372 -20.504  0.00  0.00    +0.000 C 
ATOM     15  C   UNL     1      31.942 -12.649 -21.275  0.00  0.00    +0.000 C 
ATOM     16  C   UNL     1      31.565 -11.757 -20.270  0.00  0.00    +0.000 C 
ATOM     17  C   UNL     1      31.948  -8.499 -22.009  0.00  0.00    +0.000 C 
ATOM     18  C   UNL     1      31.188  -9.460 -19.504  0.00  0.00    +0.000 C 
ATOM     19  C   UNL     1      31.572  -7.609 -21.003  0.00  0.00    +0.000 C 
ATOM     20  C   UNL     1      31.193  -8.088 -19.753  0.00  0.00    +0.000 C 
ENDBRANCH   6  11
BRANCH   4  21
ATOM     21  C   UNL     1      34.440 -17.466 -23.392  0.00  0.00    +0.001 C 
ATOM     22  C   UNL     1      34.265 -18.833 -23.613  0.00  0.00    -0.000 C 
ATOM     23  C   UNL     1      34.958 -17.019 -22.176  0.00  0.00    -0.000 C 
ATOM     24  C   UNL     1      35.124 -19.302 -21.404  0.00  0.00    -0.011 C 
ATOM     25  C   UNL     1      34.606 -19.749 -22.620  0.00  0.00    -0.004 C 
ATOM     26  C   UNL     1      35.299 -17.936 -21.182  0.00  0.00    -0.004 C 
BRANCH  24  27
ATOM     27  C   UNL     1      35.491 -20.284 -20.343  0.00  0.00    +0.136 C 
BRANCH  27  29
ATOM     28  O   UNL     1      33.158 -20.769 -19.841  0.00  0.00    -0.250 OA
ATOM     29  C   UNL     1      34.326 -21.134 -19.877  0.00  0.00    +0.318 C 
BRANCH  29  30
ATOM     30  O   UNL     1      34.725 -22.375 -19.494  0.00  0.00    -0.480 OA
ATOM     31  H   UNL     1      35.557 -22.492 -19.077  0.00  0.00    +0.295 HD
ENDBRANCH  29  30
ENDBRANCH  27  29
ENDBRANCH  24  27
ENDBRANCH   4  21
TORSDOF 5
ENDMDL
MODEL 7
REMARK VINA RESULT:     -11.5      7.883     12.275
REMARK  Name = 11952989
REMARK  5 active torsions:
REMARK  status: ('A' for Active; 'I' for Inactive)
REMARK    1  A    between atoms: C_4  and  C_21
REMARK    2  A    between atoms: C_6  and  C_11
REMARK    3  A    between atoms: C_24  and  C_27
REMARK    4  A    between atoms: C_27  and  C_29
REMARK    5  A    between atoms: C_29  and  O_30
REMARK                            x       y       z     vdW  Elec       q    Type
REMARK                         _______ _______ _______ _____ _____    ______ ____
ROOT
ATOM      1  N   UNL     1      32.849 -14.513 -27.795  0.00  0.00    -0.297 N 
ATOM      2  N   UNL     1      32.596 -12.144 -27.439  0.00  0.00    -0.229 NA
ATOM      3  C   UNL     1      33.193 -13.781 -25.714  0.00  0.00    +0.033 C 
ATOM      4  C   UNL     1      33.384 -15.189 -25.744  0.00  0.00    +0.017 C 
ATOM      5  C   UNL     1      32.862 -13.391 -27.009  0.00  0.00    +0.132 C 
ATOM      6  C   UNL     1      32.998 -11.468 -25.128  0.00  0.00    +0.019 C 
ATOM      7  C   UNL     1      33.264 -12.778 -24.735  0.00  0.00    +0.004 C 
ATOM      8  C   UNL     1      33.165 -15.611 -27.038  0.00  0.00    +0.063 C 
ATOM      9  C   UNL     1      32.679 -11.218 -26.455  0.00  0.00    +0.100 C 
ATOM     10  H   UNL     1      32.644 -14.528 -28.759  0.00  0.00    +0.154 HD
ENDROOT
BRANCH   6  11
ATOM     11  C   UNL     1      33.053 -10.387 -24.167  0.00  0.00    +0.001 C 
ATOM     12  C   UNL     1      32.240  -9.351 -22.122  0.00  0.00    +0.000 C 
ATOM     13  C   UNL     1      32.200 -10.392 -23.063  0.00  0.00    +0.000 C 
ATOM     14  C   UNL     1      33.160  -8.290 -22.303  0.00  0.00    +0.000 C 
ATOM     15  C   UNL     1      33.957  -9.344 -24.345  0.00  0.00    +0.000 C 
ATOM     16  C   UNL     1      34.011  -8.302 -23.420  0.00  0.00    +0.000 C 
ATOM     17  C   UNL     1      31.389  -9.339 -21.005  0.00  0.00    +0.000 C 
ATOM     18  C   UNL     1      33.200  -7.249 -21.361  0.00  0.00    +0.000 C 
ATOM     19  C   UNL     1      31.443  -8.296 -20.080  0.00  0.00    +0.000 C 
ATOM     20  C   UNL     1      32.347  -7.253 -20.257  0.00  0.00    +0.000 C 
ENDBRANCH   6  11
BRANCH   4  21
ATOM     21  C   UNL     1      33.735 -16.094 -24.689  0.00  0.00    +0.001 C 
ATOM     22  C   UNL     1      34.313 -15.608 -23.515  0.00  0.00    -0.000 C 
ATOM     23  C   UNL     1      33.499 -17.462 -24.834  0.00  0.00    -0.000 C 
ATOM     24  C   UNL     1      34.418 -17.856 -22.635  0.00  0.00    -0.011 C 
ATOM     25  C   UNL     1      34.654 -16.489 -22.489  0.00  0.00    -0.004 C 
ATOM     26  C   UNL     1      33.840 -18.343 -23.808  0.00  0.00    -0.004 C 
BRANCH  24  27
ATOM     27  C   UNL     1      34.781 -18.797 -21.535  0.00  0.00    +0.136 C 
BRANCH  27  29
ATOM     28  O   UNL     1      36.809 -19.333 -20.298  0.00  0.00    -0.250 OA
ATOM     29  C   UNL     1      36.276 -18.931 -21.324  0.00  0.00    +0.318 C 
BRANCH  29  30
ATOM     30  O   UNL     1      36.979 -18.549 -22.423  0.00  0.00    -0.480 OA
ATOM     31  H   UNL     1      37.916 -18.543 -22.400  0.00  0.00    +0.295 HD
ENDBRANCH  29  30
ENDBRANCH  27  29
ENDBRANCH  24  27
ENDBRANCH   4  21
TORSDOF 5
ENDMDL
MODEL 8
REMARK VINA RESULT:     -11.2      9.729     14.572
REMARK  Name = 11952989
REMARK  5 active torsions:
REMARK  status: ('A' for Active; 'I' for Inactive)
REMARK    1  A    between atoms: C_4  and  C_21
REMARK    2  A    between atoms: C_6  and  C_11
REMARK    3  A    between atoms: C_24  and  C_27
REMARK    4  A    between atoms: C_27  and  C_29
REMARK    5  A    between atoms: C_29  and  O_30
REMARK                            x       y       z     vdW  Elec       q    Type
REMARK                         _______ _______ _______ _____ _____    ______ ____
ROOT
ATOM      1  N   UNL     1      32.521 -10.194 -26.639  0.00  0.00    -0.297 N 
ATOM      2  N   UNL     1      33.094 -12.528 -26.796  0.00  0.00    -0.229 NA
ATOM      3  C   UNL     1      32.958 -11.239 -24.715  0.00  0.00    +0.033 C 
ATOM      4  C   UNL     1      32.641  -9.882 -24.439  0.00  0.00    +0.017 C 
ATOM      5  C   UNL     1      32.874 -11.401 -26.095  0.00  0.00    +0.132 C 
ATOM      6  C   UNL     1      33.549 -13.558 -24.629  0.00  0.00    +0.019 C 
ATOM      7  C   UNL     1      33.310 -12.364 -23.952  0.00  0.00    +0.004 C 
ATOM      8  C   UNL     1      32.377  -9.264 -25.642  0.00  0.00    +0.063 C 
ATOM      9  C   UNL     1      33.428 -13.580 -26.012  0.00  0.00    +0.100 C 
ATOM     10  H   UNL     1      32.390 -10.021 -27.600  0.00  0.00    +0.154 HD
ENDROOT
BRANCH   6  11
ATOM     11  C   UNL     1      33.915 -14.754 -23.903  0.00  0.00    +0.001 C 
ATOM     12  C   UNL     1      34.263 -17.161 -23.859  0.00  0.00    +0.000 C 
ATOM     13  C   UNL     1      33.910 -15.990 -24.549  0.00  0.00    +0.000 C 
ATOM     14  C   UNL     1      34.627 -17.077 -22.493  0.00  0.00    +0.000 C 
ATOM     15  C   UNL     1      34.273 -14.670 -22.561  0.00  0.00    +0.000 C 
ATOM     16  C   UNL     1      34.627 -15.823 -21.859  0.00  0.00    +0.000 C 
ATOM     17  C   UNL     1      34.263 -18.415 -24.493  0.00  0.00    +0.000 C 
ATOM     18  C   UNL     1      34.979 -18.248 -21.803  0.00  0.00    +0.000 C 
ATOM     19  C   UNL     1      34.616 -19.567 -23.790  0.00  0.00    +0.000 C 
ATOM     20  C   UNL     1      34.974 -19.484 -22.448  0.00  0.00    +0.000 C 
ENDBRANCH   6  11
BRANCH   4  21
ATOM     21  C   UNL     1      32.580  -9.186 -23.187  0.00  0.00    +0.001 C 
ATOM     22  C   UNL     1      31.612  -9.529 -22.242  0.00  0.00    -0.000 C 
ATOM     23  C   UNL     1      33.490  -8.164 -22.910  0.00  0.00    -0.000 C 
ATOM     24  C   UNL     1      32.463  -7.831 -20.749  0.00  0.00    -0.011 C 
ATOM     25  C   UNL     1      31.554  -8.852 -21.025  0.00  0.00    -0.004 C 
ATOM     26  C   UNL     1      33.431  -7.487 -21.693  0.00  0.00    -0.004 C 
BRANCH  24  27
ATOM     27  C   UNL     1      32.401  -7.109 -19.445  0.00  0.00    +0.136 C 
BRANCH  27  29
ATOM     28  O   UNL     1      31.132  -5.240 -20.354  0.00  0.00    -0.250 OA
ATOM     29  C   UNL     1      31.979  -5.660 -19.576  0.00  0.00    +0.318 C 
BRANCH  29  30
ATOM     30  O   UNL     1      32.657  -4.854 -18.717  0.00  0.00    -0.480 OA
ATOM     31  H   UNL     1      32.194  -4.384 -18.051  0.00  0.00    +0.295 HD
ENDBRANCH  29  30
ENDBRANCH  27  29
ENDBRANCH  24  27
ENDBRANCH   4  21
TORSDOF 5
ENDMDL
MODEL 9
REMARK VINA RESULT:     -11.0      6.092     10.163
REMARK  Name = 11952989
REMARK  5 active torsions:
REMARK  status: ('A' for Active; 'I' for Inactive)
REMARK    1  A    between atoms: C_4  and  C_21
REMARK    2  A    between atoms: C_6  and  C_11
REMARK    3  A    between atoms: C_24  and  C_27
REMARK    4  A    between atoms: C_27  and  C_29
REMARK    5  A    between atoms: C_29  and  O_30
REMARK                            x       y       z     vdW  Elec       q    Type
REMARK                         _______ _______ _______ _____ _____    ______ ____
ROOT
ATOM      1  N   UNL     1      32.420 -18.207 -26.613  0.00  0.00    -0.297 N 
ATOM      2  N   UNL     1      32.085 -15.879 -27.137  0.00  0.00    -0.229 NA
ATOM      3  C   UNL     1      33.258 -16.733 -25.160  0.00  0.00    +0.033 C 
ATOM      4  C   UNL     1      33.544 -18.046 -24.700  0.00  0.00    +0.017 C 
ATOM      5  C   UNL     1      32.556 -16.868 -26.355  0.00  0.00    +0.132 C 
ATOM      6  C   UNL     1      33.045 -14.369 -25.477  0.00  0.00    +0.019 C 
ATOM      7  C   UNL     1      33.512 -15.430 -24.704  0.00  0.00    +0.004 C 
ATOM      8  C   UNL     1      33.016 -18.932 -25.615  0.00  0.00    +0.063 C 
ATOM      9  C   UNL     1      32.358 -14.647 -26.650  0.00  0.00    +0.100 C 
ATOM     10  H   UNL     1      31.963 -18.590 -27.398  0.00  0.00    +0.154 HD
ENDROOT
BRANCH   6  11
ATOM     11  C   UNL     1      33.273 -13.002 -25.062  0.00  0.00    +0.001 C 
ATOM     12  C   UNL     1      34.135 -10.778 -25.541  0.00  0.00    +0.000 C 
ATOM     13  C   UNL     1      33.905 -12.108 -25.927  0.00  0.00    +0.000 C 
ATOM     14  C   UNL     1      33.718 -10.348 -24.258  0.00  0.00    +0.000 C 
ATOM     15  C   UNL     1      32.863 -12.580 -23.801  0.00  0.00    +0.000 C 
ATOM     16  C   UNL     1      33.082 -11.261 -23.401  0.00  0.00    +0.000 C 
ATOM     17  C   UNL     1      34.770  -9.864 -26.398  0.00  0.00    +0.000 C 
ATOM     18  C   UNL     1      33.947  -9.018 -23.872  0.00  0.00    +0.000 C 
ATOM     19  C   UNL     1      34.990  -8.547 -25.996  0.00  0.00    +0.000 C 
ATOM     20  C   UNL     1      34.580  -8.123 -24.736  0.00  0.00    +0.000 C 
ENDBRANCH   6  11
BRANCH   4  21
ATOM     21  C   UNL     1      34.241 -18.479 -23.524  0.00  0.00    +0.001 C 
ATOM     22  C   UNL     1      33.551 -19.141 -22.507  0.00  0.00    -0.000 C 
ATOM     23  C   UNL     1      35.609 -18.240 -23.394  0.00  0.00    -0.000 C 
ATOM     24  C   UNL     1      35.596 -19.323 -21.235  0.00  0.00    -0.011 C 
ATOM     25  C   UNL     1      34.228 -19.562 -21.364  0.00  0.00    -0.004 C 
ATOM     26  C   UNL     1      36.287 -18.661 -22.250  0.00  0.00    -0.004 C 
BRANCH  24  27
ATOM     27  C   UNL     1      36.321 -19.776 -20.012  0.00  0.00    +0.136 C 
BRANCH  27  29
ATOM     28  O   UNL     1      35.431 -22.030 -20.256  0.00  0.00    -0.250 OA
ATOM     29  C   UNL     1      35.910 -21.158 -19.544  0.00  0.00    +0.318 C 
BRANCH  29  30
ATOM     30  O   UNL     1      36.136 -21.330 -18.214  0.00  0.00    -0.480 OA
ATOM     31  H   UNL     1      35.630 -21.954 -17.730  0.00  0.00    +0.295 HD
ENDBRANCH  29  30
ENDBRANCH  27  29
ENDBRANCH  24  27
ENDBRANCH   4  21
TORSDOF 5
ENDMDL
