MODEL 1
REMARK VINA RESULT:     -13.2      0.000      0.000
REMARK  Name = 11560856
REMARK  5 active torsions:
REMARK  status: ('A' for Active; 'I' for Inactive)
REMARK    1  A    between atoms: C_2  and  O_24
REMARK    2  A    between atoms: C_3  and  N_10
REMARK    3  A    between atoms: C_12  and  C_16
REMARK    4  A    between atoms: C_16  and  C_18
REMARK    5  A    between atoms: O_24  and  C_28
REMARK                            x       y       z     vdW  Elec       q    Type
REMARK                         _______ _______ _______ _____ _____    ______ ____
ROOT
ATOM      1  F   UNL     1      36.753 -20.937 -20.396  0.00  0.00    -0.201 F 
ATOM      2  C   UNL     1      34.623 -20.166 -21.098  0.00  0.00    +0.173 C 
ATOM      3  C   UNL     1      33.440 -21.633 -19.069  0.00  0.00    +0.054 C 
ATOM      4  C   UNL     1      35.422 -20.914 -20.248  0.00  0.00    +0.176 C 
ATOM      5  C   UNL     1      33.246 -20.136 -20.956  0.00  0.00    +0.041 C 
ATOM      6  C   UNL     1      34.825 -21.651 -19.226  0.00  0.00    +0.047 C 
ATOM      7  C   UNL     1      32.650 -20.875 -19.934  0.00  0.00    +0.018 C 
ENDROOT
BRANCH   3  10
ATOM      8  O   UNL     1      33.895 -24.551 -14.500  0.00  0.00    -0.274 OA
ATOM      9  O   UNL     1      34.666 -23.022 -16.707  0.00  0.00    -0.252 OA
ATOM     10  N   UNL     1      32.844 -22.370 -18.046  0.00  0.00    -0.268 N 
ATOM     11  N   UNL     1      32.503 -23.649 -16.141  0.00  0.00    -0.239 N 
ATOM     12  C   UNL     1      32.777 -24.374 -14.978  0.00  0.00    +0.234 C 
ATOM     13  C   UNL     1      33.463 -23.008 -16.950  0.00  0.00    +0.310 C 
ATOM     14  H   UNL     1      31.865 -22.457 -18.094  0.00  0.00    +0.156 HD
ATOM     15  H   UNL     1      31.561 -23.582 -16.419  0.00  0.00    +0.159 HD
BRANCH  12  16
ATOM     16  C   UNL     1      31.506 -24.927 -14.363  0.00  0.00    +0.112 C 
BRANCH  16  18
ATOM     17  F   UNL     1      26.831 -22.598 -16.440  0.00  0.00    -0.204 F 
ATOM     18  C   UNL     1      30.253 -24.303 -14.918  0.00  0.00    -0.013 C 
ATOM     19  C   UNL     1      29.987 -22.965 -14.667  0.00  0.00    -0.001 C 
ATOM     20  C   UNL     1      29.384 -25.076 -15.675  0.00  0.00    -0.001 C 
ATOM     21  C   UNL     1      28.826 -22.387 -15.182  0.00  0.00    +0.029 C 
ATOM     22  C   UNL     1      28.223 -24.498 -16.190  0.00  0.00    +0.029 C 
ATOM     23  C   UNL     1      27.945 -23.154 -15.945  0.00  0.00    +0.140 C 
ENDBRANCH  16  18
ENDBRANCH  12  16
ENDBRANCH   3  10
BRANCH   2  24
ATOM     24  O   UNL     1      35.213 -19.434 -22.110  0.00  0.00    -0.451 OA
BRANCH  24  28
ATOM     25  N   UNL     1      34.003 -15.667 -24.564  0.00  0.00    -0.297 N 
ATOM     26  N   UNL     1      34.386 -15.295 -22.215  0.00  0.00    -0.229 NA
ATOM     27  C   UNL     1      34.586 -17.454 -23.359  0.00  0.00    +0.067 C 
ATOM     28  C   UNL     1      34.943 -18.096 -22.161  0.00  0.00    +0.150 C 
ATOM     29  C   UNL     1      34.330 -16.087 -23.301  0.00  0.00    +0.135 C 
ATOM     30  C   UNL     1      34.402 -17.851 -24.709  0.00  0.00    +0.022 C 
ATOM     31  C   UNL     1      34.044 -16.731 -25.428  0.00  0.00    +0.063 C 
ATOM     32  C   UNL     1      35.015 -17.321 -21.005  0.00  0.00    +0.058 C 
ATOM     33  C   UNL     1      34.735 -15.963 -21.092  0.00  0.00    +0.103 C 
ATOM     34  H   UNL     1      33.774 -14.742 -24.813  0.00  0.00    +0.154 HD
ENDBRANCH  24  28
ENDBRANCH   2  24
TORSDOF 5
ENDMDL
MODEL 2
REMARK VINA RESULT:     -13.1      3.739     10.618
REMARK  Name = 11560856
REMARK  5 active torsions:
REMARK  status: ('A' for Active; 'I' for Inactive)
REMARK    1  A    between atoms: C_2  and  O_24
REMARK    2  A    between atoms: C_3  and  N_10
REMARK    3  A    between atoms: C_12  and  C_16
REMARK    4  A    between atoms: C_16  and  C_18
REMARK    5  A    between atoms: O_24  and  C_28
REMARK                            x       y       z     vdW  Elec       q    Type
REMARK                         _______ _______ _______ _____ _____    ______ ____
ROOT
ATOM      1  F   UNL     1      32.522 -23.845 -16.861  0.00  0.00    -0.201 F 
ATOM      2  C   UNL     1      34.740 -23.407 -16.143  0.00  0.00    +0.173 C 
ATOM      3  C   UNL     1      35.127 -21.805 -18.368  0.00  0.00    +0.054 C 
ATOM      4  C   UNL     1      33.703 -23.241 -17.047  0.00  0.00    +0.176 C 
ATOM      5  C   UNL     1      35.966 -22.790 -16.327  0.00  0.00    +0.041 C 
ATOM      6  C   UNL     1      33.899 -22.434 -18.167  0.00  0.00    +0.047 C 
ATOM      7  C   UNL     1      36.161 -21.983 -17.448  0.00  0.00    +0.018 C 
ENDROOT
BRANCH   3  10
ATOM      8  O   UNL     1      33.097 -19.177 -22.678  0.00  0.00    -0.274 OA
ATOM      9  O   UNL     1      33.155 -20.759 -20.376  0.00  0.00    -0.252 OA
ATOM     10  N   UNL     1      35.322 -20.996 -19.488  0.00  0.00    -0.268 N 
ATOM     11  N   UNL     1      34.969 -19.734 -21.401  0.00  0.00    -0.239 N 
ATOM     12  C   UNL     1      34.305 -19.115 -22.464  0.00  0.00    +0.234 C 
ATOM     13  C   UNL     1      34.361 -20.527 -20.409  0.00  0.00    +0.310 C 
ATOM     14  H   UNL     1      36.249 -20.717 -19.659  0.00  0.00    +0.156 HD
ATOM     15  H   UNL     1      35.943 -19.605 -21.342  0.00  0.00    +0.159 HD
BRANCH  12  16
ATOM     16  C   UNL     1      35.271 -18.341 -23.341  0.00  0.00    +0.112 C 
BRANCH  16  18
ATOM     17  F   UNL     1      32.866 -14.038 -26.041  0.00  0.00    -0.204 F 
ATOM     18  C   UNL     1      34.628 -17.187 -24.065  0.00  0.00    -0.013 C 
ATOM     19  C   UNL     1      34.257 -17.337 -25.394  0.00  0.00    -0.001 C 
ATOM     20  C   UNL     1      34.414 -15.993 -23.392  0.00  0.00    -0.001 C 
ATOM     21  C   UNL     1      33.660 -16.268 -26.064  0.00  0.00    +0.029 C 
ATOM     22  C   UNL     1      33.817 -14.925 -24.062  0.00  0.00    +0.029 C 
ATOM     23  C   UNL     1      33.439 -15.063 -25.397  0.00  0.00    +0.140 C 
ENDBRANCH  16  18
ENDBRANCH  12  16
ENDBRANCH   3  10
BRANCH   2  24
ATOM     24  O   UNL     1      34.546 -24.205 -15.033  0.00  0.00    -0.451 OA
BRANCH  24  28
ATOM     25  N   UNL     1      37.958 -24.404 -11.871  0.00  0.00    -0.297 N 
ATOM     26  N   UNL     1      37.919 -26.208 -13.468  0.00  0.00    -0.229 NA
ATOM     27  C   UNL     1      36.334 -24.338 -13.402  0.00  0.00    +0.067 C 
ATOM     28  C   UNL     1      35.639 -24.841 -14.514  0.00  0.00    +0.150 C 
ATOM     29  C   UNL     1      37.434 -25.063 -12.952  0.00  0.00    +0.135 C 
ATOM     30  C   UNL     1      36.208 -23.209 -12.550  0.00  0.00    +0.022 C 
ATOM     31  C   UNL     1      37.221 -23.277 -11.617  0.00  0.00    +0.063 C 
ATOM     32  C   UNL     1      36.100 -26.025 -15.088  0.00  0.00    +0.058 C 
ATOM     33  C   UNL     1      37.213 -26.645 -14.536  0.00  0.00    +0.103 C 
ATOM     34  H   UNL     1      38.744 -24.698 -11.354  0.00  0.00    +0.154 HD
ENDBRANCH  24  28
ENDBRANCH   2  24
TORSDOF 5
ENDMDL
MODEL 3
REMARK VINA RESULT:     -12.8      3.124      4.995
REMARK  Name = 11560856
REMARK  5 active torsions:
REMARK  status: ('A' for Active; 'I' for Inactive)
REMARK    1  A    between atoms: C_2  and  O_24
REMARK    2  A    between atoms: C_3  and  N_10
REMARK    3  A    between atoms: C_12  and  C_16
REMARK    4  A    between atoms: C_16  and  C_18
REMARK    5  A    between atoms: O_24  and  C_28
REMARK                            x       y       z     vdW  Elec       q    Type
REMARK                         _______ _______ _______ _____ _____    ______ ____
ROOT
ATOM      1  F   UNL     1      32.410 -20.942 -20.687  0.00  0.00    -0.201 F 
ATOM      2  C   UNL     1      34.764 -20.686 -20.836  0.00  0.00    +0.173 C 
ATOM      3  C   UNL     1      35.033 -21.842 -18.335  0.00  0.00    +0.054 C 
ATOM      4  C   UNL     1      33.630 -21.097 -20.154  0.00  0.00    +0.176 C 
ATOM      5  C   UNL     1      36.029 -20.840 -20.294  0.00  0.00    +0.041 C 
ATOM      6  C   UNL     1      33.766 -21.681 -18.895  0.00  0.00    +0.047 C 
ATOM      7  C   UNL     1      36.164 -21.423 -19.035  0.00  0.00    +0.018 C 
ENDROOT
BRANCH   3  10
ATOM      8  O   UNL     1      32.894 -24.681 -14.215  0.00  0.00    -0.274 OA
ATOM      9  O   UNL     1      33.054 -23.383 -16.684  0.00  0.00    -0.252 OA
ATOM     10  N   UNL     1      35.168 -22.427 -17.075  0.00  0.00    -0.268 N 
ATOM     11  N   UNL     1      34.744 -23.572 -15.103  0.00  0.00    -0.239 N 
ATOM     12  C   UNL     1      34.061 -24.306 -14.130  0.00  0.00    +0.234 C 
ATOM     13  C   UNL     1      34.207 -23.146 -16.333  0.00  0.00    +0.310 C 
ATOM     14  H   UNL     1      36.049 -22.326 -16.648  0.00  0.00    +0.156 HD
ATOM     15  H   UNL     1      35.680 -23.332 -14.912  0.00  0.00    +0.159 HD
BRANCH  12  16
ATOM     16  C   UNL     1      34.946 -24.590 -12.932  0.00  0.00    +0.112 C 
BRANCH  16  18
ATOM     17  F   UNL     1      40.111 -26.310 -14.332  0.00  0.00    -0.204 F 
ATOM     18  C   UNL     1      36.330 -25.050 -13.308  0.00  0.00    -0.013 C 
ATOM     19  C   UNL     1      37.434 -24.385 -12.794  0.00  0.00    -0.001 C 
ATOM     20  C   UNL     1      36.481 -26.134 -14.161  0.00  0.00    -0.001 C 
ATOM     21  C   UNL     1      38.716 -24.812 -13.142  0.00  0.00    +0.029 C 
ATOM     22  C   UNL     1      37.762 -26.561 -14.509  0.00  0.00    +0.029 C 
ATOM     23  C   UNL     1      38.880 -25.901 -13.999  0.00  0.00    +0.140 C 
ENDBRANCH  16  18
ENDBRANCH  12  16
ENDBRANCH   3  10
BRANCH   2  24
ATOM     24  O   UNL     1      34.629 -20.110 -22.084  0.00  0.00    -0.451 OA
BRANCH  24  28
ATOM     25  N   UNL     1      34.288 -16.208 -24.602  0.00  0.00    -0.297 N 
ATOM     26  N   UNL     1      34.685 -15.890 -22.247  0.00  0.00    -0.229 NA
ATOM     27  C   UNL     1      34.458 -18.060 -23.366  0.00  0.00    +0.067 C 
ATOM     28  C   UNL     1      34.645 -18.745 -22.154  0.00  0.00    +0.150 C 
ATOM     29  C   UNL     1      34.490 -16.669 -23.327  0.00  0.00    +0.135 C 
ATOM     30  C   UNL     1      34.226 -18.429 -24.717  0.00  0.00    +0.022 C 
ATOM     31  C   UNL     1      34.126 -17.268 -25.454  0.00  0.00    +0.063 C 
ATOM     32  C   UNL     1      34.850 -17.986 -21.003  0.00  0.00    +0.058 C 
ATOM     33  C   UNL     1      34.861 -16.601 -21.109  0.00  0.00    +0.103 C 
ATOM     34  H   UNL     1      34.262 -15.259 -24.864  0.00  0.00    +0.154 HD
ENDBRANCH  24  28
ENDBRANCH   2  24
TORSDOF 5
ENDMDL
MODEL 4
REMARK VINA RESULT:     -12.8      4.111      5.460
REMARK  Name = 11560856
REMARK  5 active torsions:
REMARK  status: ('A' for Active; 'I' for Inactive)
REMARK    1  A    between atoms: C_2  and  O_24
REMARK    2  A    between atoms: C_3  and  N_10
REMARK    3  A    between atoms: C_12  and  C_16
REMARK    4  A    between atoms: C_16  and  C_18
REMARK    5  A    between atoms: O_24  and  C_28
REMARK                            x       y       z     vdW  Elec       q    Type
REMARK                         _______ _______ _______ _____ _____    ______ ____
ROOT
ATOM      1  F   UNL     1      37.580 -18.600 -22.544  0.00  0.00    -0.201 F 
ATOM      2  C   UNL     1      35.274 -19.145 -22.439  0.00  0.00    +0.173 C 
ATOM      3  C   UNL     1      35.670 -20.280 -19.945  0.00  0.00    +0.054 C 
ATOM      4  C   UNL     1      36.545 -19.142 -21.888  0.00  0.00    +0.176 C 
ATOM      5  C   UNL     1      34.197 -19.704 -21.772  0.00  0.00    +0.041 C 
ATOM      6  C   UNL     1      36.743 -19.713 -20.631  0.00  0.00    +0.047 C 
ATOM      7  C   UNL     1      34.397 -20.276 -20.515  0.00  0.00    +0.018 C 
ENDROOT
BRANCH   3  10
ATOM      8  O   UNL     1      34.581 -24.203 -16.336  0.00  0.00    -0.274 OA
ATOM      9  O   UNL     1      34.477 -22.747 -18.718  0.00  0.00    -0.252 OA
ATOM     10  N   UNL     1      35.870 -20.850 -18.688  0.00  0.00    -0.268 N 
ATOM     11  N   UNL     1      35.753 -22.251 -16.842  0.00  0.00    -0.239 N 
ATOM     12  C   UNL     1      35.375 -23.319 -16.025  0.00  0.00    +0.234 C 
ATOM     13  C   UNL     1      35.285 -22.017 -18.151  0.00  0.00    +0.310 C 
ATOM     14  H   UNL     1      36.500 -20.378 -18.098  0.00  0.00    +0.156 HD
ATOM     15  H   UNL     1      36.400 -21.607 -16.473  0.00  0.00    +0.159 HD
BRANCH  12  16
ATOM     16  C   UNL     1      36.075 -23.258 -14.681  0.00  0.00    +0.112 C 
BRANCH  16  18
ATOM     17  F   UNL     1      40.552 -26.640 -14.346  0.00  0.00    -0.204 F 
ATOM     18  C   UNL     1      37.275 -24.163 -14.590  0.00  0.00    -0.013 C 
ATOM     19  C   UNL     1      37.343 -25.108 -13.575  0.00  0.00    -0.001 C 
ATOM     20  C   UNL     1      38.294 -24.041 -15.524  0.00  0.00    -0.001 C 
ATOM     21  C   UNL     1      38.455 -25.947 -13.492  0.00  0.00    +0.029 C 
ATOM     22  C   UNL     1      39.405 -24.880 -15.441  0.00  0.00    +0.029 C 
ATOM     23  C   UNL     1      39.485 -25.833 -14.426  0.00  0.00    +0.140 C 
ENDBRANCH  16  18
ENDBRANCH  12  16
ENDBRANCH   3  10
BRANCH   2  24
ATOM     24  O   UNL     1      35.076 -18.579 -23.683  0.00  0.00    -0.451 OA
BRANCH  24  28
ATOM     25  N   UNL     1      32.712 -15.216 -25.871  0.00  0.00    -0.297 N 
ATOM     26  N   UNL     1      33.700 -14.587 -23.765  0.00  0.00    -0.229 NA
ATOM     27  C   UNL     1      33.853 -16.806 -24.796  0.00  0.00    +0.067 C 
ATOM     28  C   UNL     1      34.623 -17.290 -23.725  0.00  0.00    +0.150 C 
ATOM     29  C   UNL     1      33.441 -15.478 -24.740  0.00  0.00    +0.135 C 
ATOM     30  C   UNL     1      33.345 -17.345 -26.007  0.00  0.00    +0.022 C 
ATOM     31  C   UNL     1      32.646 -16.343 -26.647  0.00  0.00    +0.063 C 
ATOM     32  C   UNL     1      34.919 -16.408 -22.687  0.00  0.00    +0.058 C 
ATOM     33  C   UNL     1      34.444 -15.105 -22.761  0.00  0.00    +0.103 C 
ATOM     34  H   UNL     1      32.297 -14.350 -26.090  0.00  0.00    +0.154 HD
ENDBRANCH  24  28
ENDBRANCH   2  24
TORSDOF 5
ENDMDL
MODEL 5
REMARK VINA RESULT:     -12.6      2.781      9.745
REMARK  Name = 11560856
REMARK  5 active torsions:
REMARK  status: ('A' for Active; 'I' for Inactive)
REMARK    1  A    between atoms: C_2  and  O_24
REMARK    2  A    between atoms: C_3  and  N_10
REMARK    3  A    between atoms: C_12  and  C_16
REMARK    4  A    between atoms: C_16  and  C_18
REMARK    5  A    between atoms: O_24  and  C_28
REMARK                            x       y       z     vdW  Elec       q    Type
REMARK                         _______ _______ _______ _____ _____    ______ ____
ROOT
ATOM      1  F   UNL     1      36.423 -22.044 -18.979  0.00  0.00    -0.201 F 
ATOM      2  C   UNL     1      34.073 -22.089 -19.302  0.00  0.00    +0.173 C 
ATOM      3  C   UNL     1      34.233 -19.697 -20.688  0.00  0.00    +0.054 C 
ATOM      4  C   UNL     1      35.309 -21.487 -19.474  0.00  0.00    +0.176 C 
ATOM      5  C   UNL     1      32.916 -21.521 -19.807  0.00  0.00    +0.041 C 
ATOM      6  C   UNL     1      35.389 -20.283 -20.173  0.00  0.00    +0.047 C 
ATOM      7  C   UNL     1      32.996 -20.317 -20.506  0.00  0.00    +0.018 C 
ENDROOT
BRANCH   3  10
ATOM      8  O   UNL     1      34.222 -16.998 -25.412  0.00  0.00    -0.274 OA
ATOM      9  O   UNL     1      34.108 -19.153 -23.638  0.00  0.00    -0.252 OA
ATOM     10  N   UNL     1      34.314 -18.493 -21.388  0.00  0.00    -0.268 N 
ATOM     11  N   UNL     1      34.372 -16.913 -23.085  0.00  0.00    -0.239 N 
ATOM     12  C   UNL     1      34.351 -16.361 -24.369  0.00  0.00    +0.234 C 
ATOM     13  C   UNL     1      34.250 -18.284 -22.782  0.00  0.00    +0.310 C 
ATOM     14  H   UNL     1      34.431 -17.685 -20.840  0.00  0.00    +0.156 HD
ATOM     15  H   UNL     1      34.482 -16.292 -22.329  0.00  0.00    +0.159 HD
BRANCH  12  16
ATOM     16  C   UNL     1      34.509 -14.854 -24.323  0.00  0.00    +0.112 C 
BRANCH  16  18
ATOM     17  F   UNL     1      31.736 -12.456 -20.062  0.00  0.00    -0.204 F 
ATOM     18  C   UNL     1      33.767 -14.210 -23.181  0.00  0.00    -0.013 C 
ATOM     19  C   UNL     1      32.726 -13.333 -23.451  0.00  0.00    -0.001 C 
ATOM     20  C   UNL     1      34.133 -14.505 -21.876  0.00  0.00    -0.001 C 
ATOM     21  C   UNL     1      32.038 -12.737 -22.394  0.00  0.00    +0.029 C 
ATOM     22  C   UNL     1      33.445 -13.910 -20.818  0.00  0.00    +0.029 C 
ATOM     23  C   UNL     1      32.398 -13.027 -21.077  0.00  0.00    +0.140 C 
ENDBRANCH  16  18
ENDBRANCH  12  16
ENDBRANCH   3  10
BRANCH   2  24
ATOM     24  O   UNL     1      33.993 -23.282 -18.611  0.00  0.00    -0.451 OA
BRANCH  24  28
ATOM     25  N   UNL     1      34.588 -23.177 -13.994  0.00  0.00    -0.297 N 
ATOM     26  N   UNL     1      32.299 -23.177 -14.744  0.00  0.00    -0.229 NA
ATOM     27  C   UNL     1      34.268 -23.228 -16.203  0.00  0.00    +0.067 C 
ATOM     28  C   UNL     1      33.461 -23.248 -17.352  0.00  0.00    +0.150 C 
ATOM     29  C   UNL     1      33.626 -23.192 -14.969  0.00  0.00    +0.135 C 
ATOM     30  C   UNL     1      35.664 -23.232 -15.941  0.00  0.00    +0.022 C 
ATOM     31  C   UNL     1      35.830 -23.200 -14.573  0.00  0.00    +0.063 C 
ATOM     32  C   UNL     1      32.078 -23.233 -17.176  0.00  0.00    +0.058 C 
ATOM     33  C   UNL     1      31.570 -23.200 -15.884  0.00  0.00    +0.103 C 
ATOM     34  H   UNL     1      34.413 -23.151 -13.025  0.00  0.00    +0.154 HD
ENDBRANCH  24  28
ENDBRANCH   2  24
TORSDOF 5
ENDMDL
MODEL 6
REMARK VINA RESULT:     -12.6      3.744     10.517
REMARK  Name = 11560856
REMARK  5 active torsions:
REMARK  status: ('A' for Active; 'I' for Inactive)
REMARK    1  A    between atoms: C_2  and  O_24
REMARK    2  A    between atoms: C_3  and  N_10
REMARK    3  A    between atoms: C_12  and  C_16
REMARK    4  A    between atoms: C_16  and  C_18
REMARK    5  A    between atoms: O_24  and  C_28
REMARK                            x       y       z     vdW  Elec       q    Type
REMARK                         _______ _______ _______ _____ _____    ______ ____
ROOT
ATOM      1  F   UNL     1      32.602 -23.432 -16.640  0.00  0.00    -0.201 F 
ATOM      2  C   UNL     1      34.859 -22.722 -16.470  0.00  0.00    +0.173 C 
ATOM      3  C   UNL     1      34.766 -21.848 -19.096  0.00  0.00    +0.054 C 
ATOM      4  C   UNL     1      33.686 -22.872 -17.192  0.00  0.00    +0.176 C 
ATOM      5  C   UNL     1      35.986 -22.146 -17.031  0.00  0.00    +0.041 C 
ATOM      6  C   UNL     1      33.640 -22.431 -18.514  0.00  0.00    +0.047 C 
ATOM      7  C   UNL     1      35.939 -21.706 -18.354  0.00  0.00    +0.018 C 
ENDROOT
BRANCH   3  10
ATOM      8  O   UNL     1      34.590 -17.760 -22.681  0.00  0.00    -0.274 OA
ATOM      9  O   UNL     1      34.687 -19.062 -20.211  0.00  0.00    -0.252 OA
ATOM     10  N   UNL     1      34.718 -21.406 -20.418  0.00  0.00    -0.268 N 
ATOM     11  N   UNL     1      34.639 -20.062 -22.307  0.00  0.00    -0.239 N 
ATOM     12  C   UNL     1      34.596 -18.914 -23.102  0.00  0.00    +0.234 C 
ATOM     13  C   UNL     1      34.683 -20.080 -20.898  0.00  0.00    +0.310 C 
ATOM     14  H   UNL     1      34.708 -22.110 -21.105  0.00  0.00    +0.156 HD
ATOM     15  H   UNL     1      34.639 -20.932 -22.769  0.00  0.00    +0.159 HD
BRANCH  12  16
ATOM     16  C   UNL     1      34.556 -19.268 -24.577  0.00  0.00    +0.112 C 
BRANCH  16  18
ATOM     17  F   UNL     1      31.281 -15.840 -27.596  0.00  0.00    -0.204 F 
ATOM     18  C   UNL     1      33.679 -18.349 -25.387  0.00  0.00    -0.013 C 
ATOM     19  C   UNL     1      32.411 -18.772 -25.763  0.00  0.00    -0.001 C 
ATOM     20  C   UNL     1      34.150 -17.094 -25.743  0.00  0.00    -0.001 C 
ATOM     21  C   UNL     1      31.599 -17.921 -26.513  0.00  0.00    +0.029 C 
ATOM     22  C   UNL     1      33.337 -16.243 -26.493  0.00  0.00    +0.029 C 
ATOM     23  C   UNL     1      32.062 -16.656 -26.877  0.00  0.00    +0.140 C 
ENDBRANCH  16  18
ENDBRANCH  12  16
ENDBRANCH   3  10
BRANCH   2  24
ATOM     24  O   UNL     1      34.905 -23.157 -15.160  0.00  0.00    -0.451 OA
BRANCH  24  28
ATOM     25  N   UNL     1      38.081 -25.418 -12.613  0.00  0.00    -0.297 N 
ATOM     26  N   UNL     1      37.075 -26.697 -14.390  0.00  0.00    -0.229 NA
ATOM     27  C   UNL     1      36.554 -24.362 -13.854  0.00  0.00    +0.067 C 
ATOM     28  C   UNL     1      35.616 -24.295 -14.897  0.00  0.00    +0.150 C 
ATOM     29  C   UNL     1      37.223 -25.569 -13.671  0.00  0.00    +0.135 C 
ATOM     30  C   UNL     1      37.039 -23.468 -12.864  0.00  0.00    +0.022 C 
ATOM     31  C   UNL     1      37.977 -24.146 -12.115  0.00  0.00    +0.063 C 
ATOM     32  C   UNL     1      35.423 -25.437 -15.673  0.00  0.00    +0.058 C 
ATOM     33  C   UNL     1      36.162 -26.576 -15.380  0.00  0.00    +0.103 C 
ATOM     34  H   UNL     1      38.680 -26.117 -12.264  0.00  0.00    +0.154 HD
ENDBRANCH  24  28
ENDBRANCH   2  24
TORSDOF 5
ENDMDL
MODEL 7
REMARK VINA RESULT:     -12.6      4.207      5.172
REMARK  Name = 11560856
REMARK  5 active torsions:
REMARK  status: ('A' for Active; 'I' for Inactive)
REMARK    1  A    between atoms: C_2  and  O_24
REMARK    2  A    between atoms: C_3  and  N_10
REMARK    3  A    between atoms: C_12  and  C_16
REMARK    4  A    between atoms: C_16  and  C_18
REMARK    5  A    between atoms: O_24  and  C_28
REMARK                            x       y       z     vdW  Elec       q    Type
REMARK                         _______ _______ _______ _____ _____    ______ ____
ROOT
ATOM      1  F   UNL     1      32.755 -19.447 -22.600  0.00  0.00    -0.201 F 
ATOM      2  C   UNL     1      34.963 -18.723 -23.077  0.00  0.00    +0.173 C 
ATOM      3  C   UNL     1      35.816 -19.791 -20.669  0.00  0.00    +0.054 C 
ATOM      4  C   UNL     1      34.044 -19.351 -22.251  0.00  0.00    +0.176 C 
ATOM      5  C   UNL     1      36.298 -18.616 -22.725  0.00  0.00    +0.041 C 
ATOM      6  C   UNL     1      34.475 -19.889 -21.039  0.00  0.00    +0.047 C 
ATOM      7  C   UNL     1      36.727 -19.154 -21.512  0.00  0.00    +0.018 C 
ENDROOT
BRANCH   3  10
ATOM      8  O   UNL     1      35.213 -23.423 -16.663  0.00  0.00    -0.274 OA
ATOM      9  O   UNL     1      34.701 -22.057 -19.046  0.00  0.00    -0.252 OA
ATOM     10  N   UNL     1      36.247 -20.331 -19.456  0.00  0.00    -0.268 N 
ATOM     11  N   UNL     1      36.425 -21.637 -17.548  0.00  0.00    -0.239 N 
ATOM     12  C   UNL     1      36.143 -22.623 -16.599  0.00  0.00    +0.234 C 
ATOM     13  C   UNL     1      35.689 -21.402 -18.726  0.00  0.00    +0.310 C 
ATOM     14  H   UNL     1      37.042 -19.910 -19.058  0.00  0.00    +0.156 HD
ATOM     15  H   UNL     1      37.203 -21.057 -17.379  0.00  0.00    +0.159 HD
BRANCH  12  16
ATOM     16  C   UNL     1      37.141 -22.590 -15.458  0.00  0.00    +0.112 C 
BRANCH  16  18
ATOM     17  F   UNL     1      36.638 -26.942 -11.936  0.00  0.00    -0.204 F 
ATOM     18  C   UNL     1      37.007 -23.756 -14.513  0.00  0.00    -0.013 C 
ATOM     19  C   UNL     1      35.970 -23.771 -13.591  0.00  0.00    -0.001 C 
ATOM     20  C   UNL     1      37.921 -24.797 -14.580  0.00  0.00    -0.001 C 
ATOM     21  C   UNL     1      35.846 -24.852 -12.717  0.00  0.00    +0.029 C 
ATOM     22  C   UNL     1      37.796 -25.877 -13.706  0.00  0.00    +0.029 C 
ATOM     23  C   UNL     1      36.758 -25.905 -12.776  0.00  0.00    +0.140 C 
ENDBRANCH  16  18
ENDBRANCH  12  16
ENDBRANCH   3  10
BRANCH   2  24
ATOM     24  O   UNL     1      34.537 -18.191 -24.278  0.00  0.00    -0.451 OA
BRANCH  24  28
ATOM     25  N   UNL     1      32.434 -14.609 -26.383  0.00  0.00    -0.297 N 
ATOM     26  N   UNL     1      33.506 -14.096 -24.287  0.00  0.00    -0.229 NA
ATOM     27  C   UNL     1      33.453 -16.305 -25.348  0.00  0.00    +0.067 C 
ATOM     28  C   UNL     1      34.195 -16.868 -24.296  0.00  0.00    +0.150 C 
ATOM     29  C   UNL     1      33.157 -14.948 -25.269  0.00  0.00    +0.135 C 
ATOM     30  C   UNL     1      32.881 -16.782 -26.557  0.00  0.00    +0.022 C 
ATOM     31  C   UNL     1      32.260 -15.716 -27.173  0.00  0.00    +0.063 C 
ATOM     32  C   UNL     1      34.582 -16.029 -23.252  0.00  0.00    +0.058 C 
ATOM     33  C   UNL     1      34.219 -14.689 -23.303  0.00  0.00    +0.103 C 
ATOM     34  H   UNL     1      32.092 -13.708 -26.585  0.00  0.00    +0.154 HD
ENDBRANCH  24  28
ENDBRANCH   2  24
TORSDOF 5
ENDMDL
MODEL 8
REMARK VINA RESULT:     -12.5      2.037      2.791
REMARK  Name = 11560856
REMARK  5 active torsions:
REMARK  status: ('A' for Active; 'I' for Inactive)
REMARK    1  A    between atoms: C_2  and  O_24
REMARK    2  A    between atoms: C_3  and  N_10
REMARK    3  A    between atoms: C_12  and  C_16
REMARK    4  A    between atoms: C_16  and  C_18
REMARK    5  A    between atoms: O_24  and  C_28
REMARK                            x       y       z     vdW  Elec       q    Type
REMARK                         _______ _______ _______ _____ _____    ______ ____
ROOT
ATOM      1  F   UNL     1      33.164 -19.025 -23.063  0.00  0.00    -0.201 F 
ATOM      2  C   UNL     1      35.408 -18.737 -22.350  0.00  0.00    +0.173 C 
ATOM      3  C   UNL     1      34.963 -20.521 -20.280  0.00  0.00    +0.054 C 
ATOM      4  C   UNL     1      34.157 -19.317 -22.212  0.00  0.00    +0.176 C 
ATOM      5  C   UNL     1      36.441 -19.030 -21.475  0.00  0.00    +0.041 C 
ATOM      6  C   UNL     1      33.934 -20.216 -21.170  0.00  0.00    +0.047 C 
ATOM      7  C   UNL     1      36.217 -19.928 -20.433  0.00  0.00    +0.018 C 
ENDROOT
BRANCH   3  10
ATOM      8  O   UNL     1      36.491 -22.682 -15.526  0.00  0.00    -0.274 OA
ATOM      9  O   UNL     1      36.556 -21.046 -17.789  0.00  0.00    -0.252 OA
ATOM     10  N   UNL     1      34.740 -21.422 -19.238  0.00  0.00    -0.268 N 
ATOM     11  N   UNL     1      34.947 -22.639 -17.274  0.00  0.00    -0.239 N 
ATOM     12  C   UNL     1      35.464 -23.095 -16.059  0.00  0.00    +0.234 C 
ATOM     13  C   UNL     1      35.519 -21.636 -18.081  0.00  0.00    +0.310 C 
ATOM     14  H   UNL     1      33.935 -21.981 -19.320  0.00  0.00    +0.156 HD
ATOM     15  H   UNL     1      34.113 -23.053 -17.594  0.00  0.00    +0.159 HD
BRANCH  12  16
ATOM     16  C   UNL     1      34.590 -24.182 -15.462  0.00  0.00    +0.112 C 
BRANCH  16  18
ATOM     17  F   UNL     1      29.251 -22.594 -14.710  0.00  0.00    -0.204 F 
ATOM     18  C   UNL     1      33.160 -23.755 -15.261  0.00  0.00    -0.013 C 
ATOM     19  C   UNL     1      32.366 -23.484 -16.366  0.00  0.00    -0.001 C 
ATOM     20  C   UNL     1      32.657 -23.641 -13.973  0.00  0.00    -0.001 C 
ATOM     21  C   UNL     1      31.041 -23.089 -16.179  0.00  0.00    +0.029 C 
ATOM     22  C   UNL     1      31.332 -23.247 -13.786  0.00  0.00    +0.029 C 
ATOM     23  C   UNL     1      30.524 -22.972 -14.889  0.00  0.00    +0.140 C 
ENDBRANCH  16  18
ENDBRANCH  12  16
ENDBRANCH   3  10
BRANCH   2  24
ATOM     24  O   UNL     1      35.630 -17.847 -23.383  0.00  0.00    -0.451 OA
BRANCH  24  28
ATOM     25  N   UNL     1      32.886 -14.794 -25.580  0.00  0.00    -0.297 N 
ATOM     26  N   UNL     1      33.448 -14.233 -23.305  0.00  0.00    -0.229 NA
ATOM     27  C   UNL     1      34.202 -16.238 -24.498  0.00  0.00    +0.067 C 
ATOM     28  C   UNL     1      34.919 -16.680 -23.374  0.00  0.00    +0.150 C 
ATOM     29  C   UNL     1      33.509 -15.036 -24.384  0.00  0.00    +0.135 C 
ATOM     30  C   UNL     1      33.974 -16.721 -25.814  0.00  0.00    +0.022 C 
ATOM     31  C   UNL     1      33.160 -15.812 -26.456  0.00  0.00    +0.063 C 
ATOM     32  C   UNL     1      34.888 -15.886 -22.229  0.00  0.00    +0.058 C 
ATOM     33  C   UNL     1      34.157 -14.706 -22.254  0.00  0.00    +0.103 C 
ATOM     34  H   UNL     1      32.325 -14.009 -25.779  0.00  0.00    +0.154 HD
ENDBRANCH  24  28
ENDBRANCH   2  24
TORSDOF 5
ENDMDL
MODEL 9
REMARK VINA RESULT:     -12.5      4.724     11.939
REMARK  Name = 11560856
REMARK  5 active torsions:
REMARK  status: ('A' for Active; 'I' for Inactive)
REMARK    1  A    between atoms: C_2  and  O_24
REMARK    2  A    between atoms: C_3  and  N_10
REMARK    3  A    between atoms: C_12  and  C_16
REMARK    4  A    between atoms: C_16  and  C_18
REMARK    5  A    between atoms: O_24  and  C_28
REMARK                            x       y       z     vdW  Elec       q    Type
REMARK                         _______ _______ _______ _____ _____    ______ ____
ROOT
ATOM      1  F   UNL     1      34.825 -19.249 -24.394  0.00  0.00    -0.201 F 
ATOM      2  C   UNL     1      35.077 -18.060 -22.357  0.00  0.00    +0.173 C 
ATOM      3  C   UNL     1      34.206 -15.752 -23.614  0.00  0.00    +0.054 C 
ATOM      4  C   UNL     1      34.737 -18.107 -23.699  0.00  0.00    +0.176 C 
ATOM      5  C   UNL     1      34.992 -16.885 -21.630  0.00  0.00    +0.041 C 
ATOM      6  C   UNL     1      34.297 -16.944 -24.331  0.00  0.00    +0.047 C 
ATOM      7  C   UNL     1      34.553 -15.723 -22.263  0.00  0.00    +0.018 C 
ENDROOT
BRANCH   3  10
ATOM      8  O   UNL     1      32.419 -13.225 -28.088  0.00  0.00    -0.274 OA
ATOM      9  O   UNL     1      33.340 -15.293 -26.452  0.00  0.00    -0.252 OA
ATOM     10  N   UNL     1      33.765 -14.589 -24.246  0.00  0.00    -0.268 N 
ATOM     11  N   UNL     1      32.988 -13.083 -25.830  0.00  0.00    -0.239 N 
ATOM     12  C   UNL     1      32.543 -12.575 -27.053  0.00  0.00    +0.234 C 
ATOM     13  C   UNL     1      33.366 -14.419 -25.589  0.00  0.00    +0.310 C 
ATOM     14  H   UNL     1      33.727 -13.783 -23.684  0.00  0.00    +0.156 HD
ATOM     15  H   UNL     1      33.044 -12.456 -25.074  0.00  0.00    +0.159 HD
BRANCH  12  16
ATOM     16  C   UNL     1      32.224 -11.095 -26.951  0.00  0.00    +0.112 C 
BRANCH  16  18
ATOM     17  F   UNL     1      35.807  -8.263 -23.673  0.00  0.00    -0.204 F 
ATOM     18  C   UNL     1      33.185 -10.337 -26.072  0.00  0.00    -0.013 C 
ATOM     19  C   UNL     1      34.542 -10.364 -26.361  0.00  0.00    -0.001 C 
ATOM     20  C   UNL     1      32.698  -9.622 -24.987  0.00  0.00    -0.001 C 
ATOM     21  C   UNL     1      35.431  -9.662 -25.547  0.00  0.00    +0.029 C 
ATOM     22  C   UNL     1      33.587  -8.920 -24.173  0.00  0.00    +0.029 C 
ATOM     23  C   UNL     1      34.953  -8.939 -24.454  0.00  0.00    +0.140 C 
ENDBRANCH  16  18
ENDBRANCH  12  16
ENDBRANCH   3  10
BRANCH   2  24
ATOM     24  O   UNL     1      35.512 -19.212 -21.730  0.00  0.00    -0.451 OA
BRANCH  24  28
ATOM     25  N   UNL     1      34.554 -22.197 -18.287  0.00  0.00    -0.297 N 
ATOM     26  N   UNL     1      32.645 -21.366 -19.500  0.00  0.00    -0.229 NA
ATOM     27  C   UNL     1      34.979 -20.763 -19.946  0.00  0.00    +0.067 C 
ATOM     28  C   UNL     1      34.597 -19.916 -20.999  0.00  0.00    +0.150 C 
ATOM     29  C   UNL     1      33.968 -21.434 -19.264  0.00  0.00    +0.135 C 
ATOM     30  C   UNL     1      36.207 -21.148 -19.345  0.00  0.00    +0.022 C 
ATOM     31  C   UNL     1      35.914 -22.030 -18.327  0.00  0.00    +0.063 C 
ATOM     32  C   UNL     1      33.237 -19.808 -21.286  0.00  0.00    +0.058 C 
ATOM     33  C   UNL     1      32.334 -20.538 -20.524  0.00  0.00    +0.103 C 
ATOM     34  H   UNL     1      34.071 -22.775 -17.654  0.00  0.00    +0.154 HD
ENDBRANCH  24  28
ENDBRANCH   2  24
TORSDOF 5
ENDMDL
