MODEL 1
REMARK VINA RESULT:     -11.9      0.000      0.000
REMARK  Name = 52913524
REMARK  9 active torsions:
REMARK  status: ('A' for Active; 'I' for Inactive)
REMARK    1  A    between atoms: C_1  and  C_10
REMARK    2  A    between atoms: C_4  and  C_24
REMARK    3  A    between atoms: C_5  and  C_22
REMARK    4  A    between atoms: C_8  and  O_13
REMARK    5  A    between atoms: C_9  and  O_15
REMARK    6  A    between atoms: C_11  and  O_17
REMARK    7  A    between atoms: C_12  and  C_19
REMARK    8  A    between atoms: C_19  and  O_20
REMARK    9  A    between atoms: C_24  and  C_27
REMARK                            x       y       z     vdW  Elec       q    Type
REMARK                         _______ _______ _______ _____ _____    ______ ____
ROOT
ATOM      1  C   UNL     1      33.847 -24.111 -14.678  0.00  0.00    +0.007 C 
ATOM      2  C   UNL     1      33.725 -23.960 -16.059  0.00  0.00    -0.006 C 
ATOM      3  C   UNL     1      32.779 -23.782 -13.842  0.00  0.00    -0.002 C 
ATOM      4  C   UNL     1      32.535 -23.477 -16.605  0.00  0.00    -0.022 C 
ATOM      5  C   UNL     1      31.467 -23.147 -15.769  0.00  0.00    -0.026 C 
ATOM      6  C   UNL     1      31.590 -23.299 -14.389  0.00  0.00    -0.005 C 
ENDROOT
BRANCH   1  10
ATOM      7  O   UNL     1      35.842 -23.524 -13.521  0.00  0.00    -0.347 OA
ATOM      8  C   UNL     1      36.003 -25.355 -15.133  0.00  0.00    +0.171 C 
ATOM      9  C   UNL     1      37.369 -25.733 -14.552  0.00  0.00    +0.169 C 
ATOM     10  C   UNL     1      35.140 -24.636 -14.084  0.00  0.00    +0.167 C 
ATOM     11  C   UNL     1      38.017 -24.548 -13.837  0.00  0.00    +0.169 C 
ATOM     12  C   UNL     1      37.041 -23.910 -12.847  0.00  0.00    +0.174 C 
BRANCH   8  13
ATOM     13  O   UNL     1      35.328 -26.542 -15.545  0.00  0.00    -0.379 OA
ATOM     14  H   UNL     1      34.684 -26.801 -14.869  0.00  0.00    +0.211 HD
ENDBRANCH   8  13
BRANCH   9  15
ATOM     15  O   UNL     1      38.238 -26.140 -15.610  0.00  0.00    -0.379 OA
ATOM     16  H   UNL     1      38.672 -26.973 -15.369  0.00  0.00    +0.211 HD
ENDBRANCH   9  15
BRANCH  11  17
ATOM     17  O   UNL     1      39.172 -24.997 -13.134  0.00  0.00    -0.379 OA
ATOM     18  H   UNL     1      39.508 -25.808 -13.549  0.00  0.00    +0.211 HD
ENDBRANCH  11  17
BRANCH  12  19
ATOM     19  C   UNL     1      37.627 -22.658 -12.202  0.00  0.00    +0.169 C 
BRANCH  19  20
ATOM     20  O   UNL     1      36.895 -22.373 -11.025  0.00  0.00    -0.379 OA
ATOM     21  H   UNL     1      35.956 -22.570 -11.173  0.00  0.00    +0.211 HD
ENDBRANCH  19  20
ENDBRANCH  12  19
ENDBRANCH   1  10
BRANCH   5  22
ATOM     22  C   UNL     1      30.185 -22.629 -16.330  0.00  0.00    +0.026 C 
ATOM     23  C   UNL     1      29.018 -22.801 -15.363  0.00  0.00    +0.005 C 
ENDBRANCH   5  22
BRANCH   4  24
ATOM     24  C   UNL     1      32.428 -23.323 -18.086  0.00  0.00    +0.052 C 
BRANCH  24  27
ATOM     25  O   UNL     1      33.631 -19.781 -21.216  0.00  0.00    -0.468 OA
ATOM     26  O   UNL     1      36.346 -19.835 -20.247  0.00  0.00    -0.468 OA
ATOM     27  C   UNL     1      33.463 -22.392 -18.682  0.00  0.00    -0.015 C 
ATOM     28  C   UNL     1      33.094 -21.486 -19.677  0.00  0.00    +0.036 C 
ATOM     29  C   UNL     1      34.786 -22.445 -18.240  0.00  0.00    -0.001 C 
ATOM     30  C   UNL     1      34.051 -20.634 -20.229  0.00  0.00    +0.172 C 
ATOM     31  C   UNL     1      35.368 -20.668 -19.767  0.00  0.00    +0.172 C 
ATOM     32  C   UNL     1      35.740 -21.584 -18.783  0.00  0.00    +0.040 C 
ATOM     33  C   UNL     1      34.731 -19.219 -21.937  0.00  0.00    +0.253 C 
ATOM     34  C   UNL     1      35.797 -18.734 -20.975  0.00  0.00    +0.253 C 
ENDBRANCH  24  27
ENDBRANCH   4  24
TORSDOF 9
ENDMDL
MODEL 2
REMARK VINA RESULT:     -11.6      1.215      1.838
REMARK  Name = 52913524
REMARK  9 active torsions:
REMARK  status: ('A' for Active; 'I' for Inactive)
REMARK    1  A    between atoms: C_1  and  C_10
REMARK    2  A    between atoms: C_4  and  C_24
REMARK    3  A    between atoms: C_5  and  C_22
REMARK    4  A    between atoms: C_8  and  O_13
REMARK    5  A    between atoms: C_9  and  O_15
REMARK    6  A    between atoms: C_11  and  O_17
REMARK    7  A    between atoms: C_12  and  C_19
REMARK    8  A    between atoms: C_19  and  O_20
REMARK    9  A    between atoms: C_24  and  C_27
REMARK                            x       y       z     vdW  Elec       q    Type
REMARK                         _______ _______ _______ _____ _____    ______ ____
ROOT
ATOM      1  C   UNL     1      33.777 -23.530 -14.609  0.00  0.00    +0.007 C 
ATOM      2  C   UNL     1      33.705 -23.520 -16.002  0.00  0.00    -0.006 C 
ATOM      3  C   UNL     1      32.624 -23.337 -13.849  0.00  0.00    -0.002 C 
ATOM      4  C   UNL     1      32.478 -23.317 -16.635  0.00  0.00    -0.022 C 
ATOM      5  C   UNL     1      31.324 -23.124 -15.874  0.00  0.00    -0.026 C 
ATOM      6  C   UNL     1      31.397 -23.135 -14.482  0.00  0.00    -0.005 C 
ENDROOT
BRANCH   1  10
ATOM      7  O   UNL     1      36.112 -23.857 -14.939  0.00  0.00    -0.347 OA
ATOM      8  C   UNL     1      35.098 -25.005 -13.034  0.00  0.00    +0.171 C 
ATOM      9  C   UNL     1      36.495 -25.298 -12.480  0.00  0.00    +0.169 C 
ATOM     10  C   UNL     1      35.111 -23.751 -13.922  0.00  0.00    +0.167 C 
ATOM     11  C   UNL     1      37.551 -25.260 -13.584  0.00  0.00    +0.169 C 
ATOM     12  C   UNL     1      37.432 -23.976 -14.407  0.00  0.00    +0.174 C 
BRANCH   8  13
ATOM     13  O   UNL     1      34.203 -24.787 -11.945  0.00  0.00    -0.379 OA
ATOM     14  H   UNL     1      34.611 -24.182 -11.306  0.00  0.00    +0.211 HD
ENDBRANCH   8  13
BRANCH   9  15
ATOM     15  O   UNL     1      36.512 -26.603 -11.899  0.00  0.00    -0.379 OA
ATOM     16  H   UNL     1      37.350 -26.738 -11.430  0.00  0.00    +0.211 HD
ENDBRANCH   9  15
BRANCH  11  17
ATOM     17  O   UNL     1      38.848 -25.323 -12.998  0.00  0.00    -0.379 OA
ATOM     18  H   UNL     1      38.872 -24.764 -12.204  0.00  0.00    +0.211 HD
ENDBRANCH  11  17
BRANCH  12  19
ATOM     19  C   UNL     1      38.402 -23.966 -15.584  0.00  0.00    +0.169 C 
BRANCH  19  20
ATOM     20  O   UNL     1      39.044 -25.225 -15.649  0.00  0.00    -0.379 OA
ATOM     21  H   UNL     1      38.439 -25.914 -15.332  0.00  0.00    +0.211 HD
ENDBRANCH  19  20
ENDBRANCH  12  19
ENDBRANCH   1  10
BRANCH   5  22
ATOM     22  C   UNL     1      30.000 -22.904 -16.529  0.00  0.00    +0.026 C 
ATOM     23  C   UNL     1      28.871 -22.755 -15.515  0.00  0.00    +0.005 C 
ENDBRANCH   5  22
BRANCH   4  24
ATOM     24  C   UNL     1      32.425 -23.310 -18.127  0.00  0.00    +0.052 C 
BRANCH  24  27
ATOM     25  O   UNL     1      33.317 -19.638 -21.211  0.00  0.00    -0.468 OA
ATOM     26  O   UNL     1      36.103 -19.683 -20.470  0.00  0.00    -0.468 OA
ATOM     27  C   UNL     1      33.395 -22.341 -18.771  0.00  0.00    -0.015 C 
ATOM     28  C   UNL     1      32.932 -21.406 -19.697  0.00  0.00    +0.036 C 
ATOM     29  C   UNL     1      34.750 -22.388 -18.441  0.00  0.00    -0.001 C 
ATOM     30  C   UNL     1      33.828 -20.520 -20.294  0.00  0.00    +0.172 C 
ATOM     31  C   UNL     1      35.180 -20.548 -19.944  0.00  0.00    +0.172 C 
ATOM     32  C   UNL     1      35.644 -21.493 -19.028  0.00  0.00    +0.040 C 
ATOM     33  C   UNL     1      34.346 -19.032 -21.998  0.00  0.00    +0.253 C 
ATOM     34  C   UNL     1      35.481 -18.565 -21.109  0.00  0.00    +0.253 C 
ENDBRANCH  24  27
ENDBRANCH   4  24
TORSDOF 9
ENDMDL
MODEL 3
REMARK VINA RESULT:     -11.0      3.443      7.667
REMARK  Name = 52913524
REMARK  9 active torsions:
REMARK  status: ('A' for Active; 'I' for Inactive)
REMARK    1  A    between atoms: C_1  and  C_10
REMARK    2  A    between atoms: C_4  and  C_24
REMARK    3  A    between atoms: C_5  and  C_22
REMARK    4  A    between atoms: C_8  and  O_13
REMARK    5  A    between atoms: C_9  and  O_15
REMARK    6  A    between atoms: C_11  and  O_17
REMARK    7  A    between atoms: C_12  and  C_19
REMARK    8  A    between atoms: C_19  and  O_20
REMARK    9  A    between atoms: C_24  and  C_27
REMARK                            x       y       z     vdW  Elec       q    Type
REMARK                         _______ _______ _______ _____ _____    ______ ____
ROOT
ATOM      1  C   UNL     1      35.010 -22.027 -18.194  0.00  0.00    +0.007 C 
ATOM      2  C   UNL     1      34.137 -22.851 -17.484  0.00  0.00    -0.006 C 
ATOM      3  C   UNL     1      36.248 -21.686 -17.648  0.00  0.00    -0.002 C 
ATOM      4  C   UNL     1      34.502 -23.334 -16.227  0.00  0.00    -0.022 C 
ATOM      5  C   UNL     1      35.740 -22.992 -15.681  0.00  0.00    -0.026 C 
ATOM      6  C   UNL     1      36.612 -22.169 -16.391  0.00  0.00    -0.005 C 
ENDROOT
BRANCH   1  10
ATOM      7  O   UNL     1      35.469 -20.397 -19.867  0.00  0.00    -0.347 OA
ATOM      8  C   UNL     1      33.138 -21.084 -19.610  0.00  0.00    +0.171 C 
ATOM      9  C   UNL     1      32.803 -20.411 -20.945  0.00  0.00    +0.169 C 
ATOM     10  C   UNL     1      34.615 -21.504 -19.561  0.00  0.00    +0.167 C 
ATOM     11  C   UNL     1      33.826 -19.332 -21.296  0.00  0.00    +0.169 C 
ATOM     12  C   UNL     1      35.251 -19.875 -21.178  0.00  0.00    +0.174 C 
BRANCH   8  13
ATOM     13  O   UNL     1      32.326 -22.247 -19.460  0.00  0.00    -0.379 OA
ATOM     14  H   UNL     1      32.145 -22.631 -20.331  0.00  0.00    +0.211 HD
ENDBRANCH   8  13
BRANCH   9  15
ATOM     15  O   UNL     1      31.519 -19.791 -20.855  0.00  0.00    -0.379 OA
ATOM     16  H   UNL     1      31.629 -18.828 -20.802  0.00  0.00    +0.211 HD
ENDBRANCH   9  15
BRANCH  11  17
ATOM     17  O   UNL     1      33.602 -18.887 -22.631  0.00  0.00    -0.379 OA
ATOM     18  H   UNL     1      33.742 -19.626 -23.245  0.00  0.00    +0.211 HD
ENDBRANCH  11  17
BRANCH  12  19
ATOM     19  C   UNL     1      36.293 -18.786 -21.416  0.00  0.00    +0.169 C 
BRANCH  19  20
ATOM     20  O   UNL     1      36.323 -18.485 -22.798  0.00  0.00    -0.379 OA
ATOM     21  H   UNL     1      35.458 -18.683 -23.191  0.00  0.00    +0.211 HD
ENDBRANCH  19  20
ENDBRANCH  12  19
ENDBRANCH   1  10
BRANCH   5  22
ATOM     22  C   UNL     1      36.151 -23.496 -14.336  0.00  0.00    +0.026 C 
ATOM     23  C   UNL     1      37.296 -24.500 -14.420  0.00  0.00    +0.005 C 
ENDBRANCH   5  22
BRANCH   4  24
ATOM     24  C   UNL     1      33.551 -24.213 -15.485  0.00  0.00    +0.052 C 
BRANCH  24  27
ATOM     25  O   UNL     1      29.057 -23.518 -17.249  0.00  0.00    -0.468 OA
ATOM     26  O   UNL     1      28.345 -22.040 -14.878  0.00  0.00    -0.468 OA
ATOM     27  C   UNL     1      32.159 -23.631 -15.344  0.00  0.00    -0.015 C 
ATOM     28  C   UNL     1      31.214 -23.839 -16.348  0.00  0.00    +0.036 C 
ATOM     29  C   UNL     1      31.827 -22.883 -14.214  0.00  0.00    -0.001 C 
ATOM     30  C   UNL     1      29.935 -23.296 -16.220  0.00  0.00    +0.172 C 
ATOM     31  C   UNL     1      29.594 -22.571 -15.077  0.00  0.00    +0.172 C 
ATOM     32  C   UNL     1      30.544 -22.351 -14.080  0.00  0.00    +0.040 C 
ATOM     33  C   UNL     1      27.924 -22.647 -17.180  0.00  0.00    +0.253 C 
ATOM     34  C   UNL     1      27.379 -22.606 -15.767  0.00  0.00    +0.253 C 
ENDBRANCH  24  27
ENDBRANCH   4  24
TORSDOF 9
ENDMDL
MODEL 4
REMARK VINA RESULT:     -10.8      2.912      7.100
REMARK  Name = 52913524
REMARK  9 active torsions:
REMARK  status: ('A' for Active; 'I' for Inactive)
REMARK    1  A    between atoms: C_1  and  C_10
REMARK    2  A    between atoms: C_4  and  C_24
REMARK    3  A    between atoms: C_5  and  C_22
REMARK    4  A    between atoms: C_8  and  O_13
REMARK    5  A    between atoms: C_9  and  O_15
REMARK    6  A    between atoms: C_11  and  O_17
REMARK    7  A    between atoms: C_12  and  C_19
REMARK    8  A    between atoms: C_19  and  O_20
REMARK    9  A    between atoms: C_24  and  C_27
REMARK                            x       y       z     vdW  Elec       q    Type
REMARK                         _______ _______ _______ _____ _____    ______ ____
ROOT
ATOM      1  C   UNL     1      34.393 -22.987 -16.703  0.00  0.00    +0.007 C 
ATOM      2  C   UNL     1      33.224 -23.156 -15.961  0.00  0.00    -0.006 C 
ATOM      3  C   UNL     1      35.636 -23.204 -16.108  0.00  0.00    -0.002 C 
ATOM      4  C   UNL     1      33.298 -23.542 -14.623  0.00  0.00    -0.022 C 
ATOM      5  C   UNL     1      34.542 -23.759 -14.027  0.00  0.00    -0.026 C 
ATOM      6  C   UNL     1      35.710 -23.590 -14.769  0.00  0.00    -0.005 C 
ENDROOT
BRANCH   1  10
ATOM      7  O   UNL     1      35.446 -21.739 -18.435  0.00  0.00    -0.347 OA
ATOM      8  C   UNL     1      33.004 -21.828 -18.472  0.00  0.00    +0.171 C 
ATOM      9  C   UNL     1      33.015 -21.276 -19.900  0.00  0.00    +0.169 C 
ATOM     10  C   UNL     1      34.313 -22.568 -18.158  0.00  0.00    +0.167 C 
ATOM     11  C   UNL     1      34.309 -20.517 -20.194  0.00  0.00    +0.169 C 
ATOM     12  C   UNL     1      35.529 -21.356 -19.809  0.00  0.00    +0.174 C 
BRANCH   8  13
ATOM     13  O   UNL     1      31.917 -22.742 -18.335  0.00  0.00    -0.379 OA
ATOM     14  H   UNL     1      32.095 -23.350 -17.601  0.00  0.00    +0.211 HD
ENDBRANCH   8  13
BRANCH   9  15
ATOM     15  O   UNL     1      31.924 -20.368 -20.067  0.00  0.00    -0.379 OA
ATOM     16  H   UNL     1      31.124 -20.748 -19.670  0.00  0.00    +0.211 HD
ENDBRANCH   9  15
BRANCH  11  17
ATOM     17  O   UNL     1      34.370 -20.211 -21.584  0.00  0.00    -0.379 OA
ATOM     18  H   UNL     1      34.525 -19.259 -21.698  0.00  0.00    +0.211 HD
ENDBRANCH  11  17
BRANCH  12  19
ATOM     19  C   UNL     1      36.829 -20.578 -19.988  0.00  0.00    +0.169 C 
BRANCH  19  20
ATOM     20  O   UNL     1      36.511 -19.224 -20.252  0.00  0.00    -0.379 OA
ATOM     21  H   UNL     1      35.990 -19.168 -21.069  0.00  0.00    +0.211 HD
ENDBRANCH  19  20
ENDBRANCH  12  19
ENDBRANCH   1  10
BRANCH   5  22
ATOM     22  C   UNL     1      34.646 -24.172 -12.596  0.00  0.00    +0.026 C 
ATOM     23  C   UNL     1      35.879 -23.589 -11.913  0.00  0.00    +0.005 C 
ENDBRANCH   5  22
BRANCH   4  24
ATOM     24  C   UNL     1      32.034 -23.717 -13.848  0.00  0.00    +0.052 C 
BRANCH  24  27
ATOM     25  O   UNL     1      28.072 -21.813 -15.961  0.00  0.00    -0.468 OA
ATOM     26  O   UNL     1      27.455 -24.374 -17.132  0.00  0.00    -0.468 OA
ATOM     27  C   UNL     1      30.801 -23.877 -14.714  0.00  0.00    -0.015 C 
ATOM     28  C   UNL     1      29.984 -22.776 -14.970  0.00  0.00    +0.036 C 
ATOM     29  C   UNL     1      30.481 -25.125 -15.249  0.00  0.00    -0.001 C 
ATOM     30  C   UNL     1      28.846 -22.927 -15.762  0.00  0.00    +0.172 C 
ATOM     31  C   UNL     1      28.541 -24.170 -16.320  0.00  0.00    +0.172 C 
ATOM     32  C   UNL     1      29.351 -25.274 -16.051  0.00  0.00    +0.040 C 
ATOM     33  C   UNL     1      26.780 -22.147 -16.478  0.00  0.00    +0.253 C 
ATOM     34  C   UNL     1      26.911 -23.143 -17.613  0.00  0.00    +0.253 C 
ENDBRANCH  24  27
ENDBRANCH   4  24
TORSDOF 9
ENDMDL
MODEL 5
REMARK VINA RESULT:     -10.6      2.765      7.289
REMARK  Name = 52913524
REMARK  9 active torsions:
REMARK  status: ('A' for Active; 'I' for Inactive)
REMARK    1  A    between atoms: C_1  and  C_10
REMARK    2  A    between atoms: C_4  and  C_24
REMARK    3  A    between atoms: C_5  and  C_22
REMARK    4  A    between atoms: C_8  and  O_13
REMARK    5  A    between atoms: C_9  and  O_15
REMARK    6  A    between atoms: C_11  and  O_17
REMARK    7  A    between atoms: C_12  and  C_19
REMARK    8  A    between atoms: C_19  and  O_20
REMARK    9  A    between atoms: C_24  and  C_27
REMARK                            x       y       z     vdW  Elec       q    Type
REMARK                         _______ _______ _______ _____ _____    ______ ____
ROOT
ATOM      1  C   UNL     1      33.259 -22.905 -17.570  0.00  0.00    +0.007 C 
ATOM      2  C   UNL     1      34.505 -22.717 -16.973  0.00  0.00    -0.006 C 
ATOM      3  C   UNL     1      33.017 -22.412 -18.852  0.00  0.00    -0.002 C 
ATOM      4  C   UNL     1      35.511 -22.034 -17.659  0.00  0.00    -0.022 C 
ATOM      5  C   UNL     1      35.269 -21.541 -18.941  0.00  0.00    -0.026 C 
ATOM      6  C   UNL     1      34.023 -21.730 -19.538  0.00  0.00    -0.005 C 
ENDROOT
BRANCH   1  10
ATOM      7  O   UNL     1      30.931 -22.970 -17.076  0.00  0.00    -0.347 OA
ATOM      8  C   UNL     1      32.451 -23.726 -15.317  0.00  0.00    +0.171 C 
ATOM      9  C   UNL     1      31.263 -24.335 -14.566  0.00  0.00    +0.169 C 
ATOM     10  C   UNL     1      32.167 -23.648 -16.825  0.00  0.00    +0.167 C 
ATOM     11  C   UNL     1      29.948 -23.672 -14.974  0.00  0.00    +0.169 C 
ATOM     12  C   UNL     1      29.808 -23.635 -16.497  0.00  0.00    +0.174 C 
BRANCH   8  13
ATOM     13  O   UNL     1      33.601 -24.544 -15.109  0.00  0.00    -0.379 OA
ATOM     14  H   UNL     1      33.829 -24.998 -15.935  0.00  0.00    +0.211 HD
ENDBRANCH   8  13
BRANCH   9  15
ATOM     15  O   UNL     1      31.438 -24.140 -13.162  0.00  0.00    -0.379 OA
ATOM     16  H   UNL     1      31.094 -23.268 -12.911  0.00  0.00    +0.211 HD
ENDBRANCH   9  15
BRANCH  11  17
ATOM     17  O   UNL     1      28.859 -24.407 -14.421  0.00  0.00    -0.379 OA
ATOM     18  H   UNL     1      29.177 -25.267 -14.103  0.00  0.00    +0.211 HD
ENDBRANCH  11  17
BRANCH  12  19
ATOM     19  C   UNL     1      28.556 -22.879 -16.932  0.00  0.00    +0.169 C 
BRANCH  19  20
ATOM     20  O   UNL     1      27.550 -23.821 -17.254  0.00  0.00    -0.379 OA
ATOM     21  H   UNL     1      26.800 -23.365 -17.668  0.00  0.00    +0.211 HD
ENDBRANCH  19  20
ENDBRANCH  12  19
ENDBRANCH   1  10
BRANCH   5  22
ATOM     22  C   UNL     1      36.329 -20.807 -19.694  0.00  0.00    +0.026 C 
ATOM     23  C   UNL     1      35.746 -19.829 -20.710  0.00  0.00    +0.005 C 
ENDBRANCH   5  22
BRANCH   4  24
ATOM     24  C   UNL     1      36.837 -21.844 -17.000  0.00  0.00    +0.052 C 
BRANCH  24  27
ATOM     25  O   UNL     1      35.780 -23.335 -12.477  0.00  0.00    -0.468 OA
ATOM     26  O   UNL     1      37.777 -25.404 -12.684  0.00  0.00    -0.468 OA
ATOM     27  C   UNL     1      37.082 -22.779 -15.833  0.00  0.00    -0.015 C 
ATOM     28  C   UNL     1      36.317 -22.658 -14.673  0.00  0.00    +0.036 C 
ATOM     29  C   UNL     1      38.075 -23.756 -15.918  0.00  0.00    -0.001 C 
ATOM     30  C   UNL     1      36.549 -23.516 -13.597  0.00  0.00    +0.172 C 
ATOM     31  C   UNL     1      37.524 -24.511 -13.693  0.00  0.00    +0.172 C 
ATOM     32  C   UNL     1      38.298 -24.622 -14.848  0.00  0.00    +0.040 C 
ATOM     33  C   UNL     1      36.323 -24.014 -11.342  0.00  0.00    +0.253 C 
ATOM     34  C   UNL     1      36.724 -25.427 -11.717  0.00  0.00    +0.253 C 
ENDBRANCH  24  27
ENDBRANCH   4  24
TORSDOF 9
ENDMDL
MODEL 6
REMARK VINA RESULT:     -10.4      5.656     12.148
REMARK  Name = 52913524
REMARK  9 active torsions:
REMARK  status: ('A' for Active; 'I' for Inactive)
REMARK    1  A    between atoms: C_1  and  C_10
REMARK    2  A    between atoms: C_4  and  C_24
REMARK    3  A    between atoms: C_5  and  C_22
REMARK    4  A    between atoms: C_8  and  O_13
REMARK    5  A    between atoms: C_9  and  O_15
REMARK    6  A    between atoms: C_11  and  O_17
REMARK    7  A    between atoms: C_12  and  C_19
REMARK    8  A    between atoms: C_19  and  O_20
REMARK    9  A    between atoms: C_24  and  C_27
REMARK                            x       y       z     vdW  Elec       q    Type
REMARK                         _______ _______ _______ _____ _____    ______ ____
ROOT
ATOM      1  C   UNL     1      33.789 -14.570 -23.646  0.00  0.00    +0.007 C 
ATOM      2  C   UNL     1      34.565 -15.503 -22.959  0.00  0.00    -0.006 C 
ATOM      3  C   UNL     1      33.185 -14.918 -24.854  0.00  0.00    -0.002 C 
ATOM      4  C   UNL     1      34.738 -16.786 -23.481  0.00  0.00    -0.022 C 
ATOM      5  C   UNL     1      34.134 -17.134 -24.690  0.00  0.00    -0.026 C 
ATOM      6  C   UNL     1      33.358 -16.200 -25.376  0.00  0.00    -0.005 C 
ENDROOT
BRANCH   1  10
ATOM      7  O   UNL     1      32.485 -13.220 -22.182  0.00  0.00    -0.347 OA
ATOM      8  C   UNL     1      33.375 -12.132 -24.181  0.00  0.00    +0.171 C 
ATOM      9  C   UNL     1      33.028 -10.766 -23.580  0.00  0.00    +0.169 C 
ATOM     10  C   UNL     1      33.600 -13.177 -23.078  0.00  0.00    +0.167 C 
ATOM     11  C   UNL     1      31.929 -10.886 -22.526  0.00  0.00    +0.169 C 
ATOM     12  C   UNL     1      32.266 -11.979 -21.510  0.00  0.00    +0.174 C 
BRANCH   8  13
ATOM     13  O   UNL     1      34.572 -12.011 -24.948  0.00  0.00    -0.379 OA
ATOM     14  H   UNL     1      34.355 -11.698 -25.840  0.00  0.00    +0.211 HD
ENDBRANCH   8  13
BRANCH   9  15
ATOM     15  O   UNL     1      32.557  -9.899 -24.613  0.00  0.00    -0.379 OA
ATOM     16  H   UNL     1      32.388 -10.416 -25.417  0.00  0.00    +0.211 HD
ENDBRANCH   9  15
BRANCH  11  17
ATOM     17  O   UNL     1      31.790  -9.641 -21.847  0.00  0.00    -0.379 OA
ATOM     18  H   UNL     1      31.040  -9.151 -22.220  0.00  0.00    +0.211 HD
ENDBRANCH  11  17
BRANCH  12  19
ATOM     19  C   UNL     1      31.132 -12.193 -20.512  0.00  0.00    +0.169 C 
BRANCH  19  20
ATOM     20  O   UNL     1      29.996 -11.477 -20.960  0.00  0.00    -0.379 OA
ATOM     21  H   UNL     1      30.280 -10.747 -21.533  0.00  0.00    +0.211 HD
ENDBRANCH  19  20
ENDBRANCH  12  19
ENDBRANCH   1  10
BRANCH   5  22
ATOM     22  C   UNL     1      34.305 -18.499 -25.269  0.00  0.00    +0.026 C 
ATOM     23  C   UNL     1      33.030 -19.012 -25.930  0.00  0.00    +0.005 C 
ENDBRANCH   5  22
BRANCH   4  24
ATOM     24  C   UNL     1      35.574 -17.768 -22.728  0.00  0.00    +0.052 C 
BRANCH  24  27
ATOM     25  O   UNL     1      35.335 -21.314 -19.388  0.00  0.00    -0.468 OA
ATOM     26  O   UNL     1      32.495 -21.547 -19.826  0.00  0.00    -0.468 OA
ATOM     27  C   UNL     1      34.769 -18.790 -21.952  0.00  0.00    -0.015 C 
ATOM     28  C   UNL     1      35.398 -19.594 -21.002  0.00  0.00    +0.036 C 
ATOM     29  C   UNL     1      33.401 -18.929 -22.191  0.00  0.00    -0.001 C 
ATOM     30  C   UNL     1      34.657 -20.539 -20.293  0.00  0.00    +0.172 C 
ATOM     31  C   UNL     1      33.283 -20.660 -20.513  0.00  0.00    +0.172 C 
ATOM     32  C   UNL     1      32.657 -19.865 -21.473  0.00  0.00    +0.040 C 
ATOM     33  C   UNL     1      34.572 -22.455 -18.985  0.00  0.00    +0.253 C 
ATOM     34  C   UNL     1      33.150 -22.046 -18.657  0.00  0.00    +0.253 C 
ENDBRANCH  24  27
ENDBRANCH   4  24
TORSDOF 9
ENDMDL
MODEL 7
REMARK VINA RESULT:     -10.3     11.216     16.432
REMARK  Name = 52913524
REMARK  9 active torsions:
REMARK  status: ('A' for Active; 'I' for Inactive)
REMARK    1  A    between atoms: C_1  and  C_10
REMARK    2  A    between atoms: C_4  and  C_24
REMARK    3  A    between atoms: C_5  and  C_22
REMARK    4  A    between atoms: C_8  and  O_13
REMARK    5  A    between atoms: C_9  and  O_15
REMARK    6  A    between atoms: C_11  and  O_17
REMARK    7  A    between atoms: C_12  and  C_19
REMARK    8  A    between atoms: C_19  and  O_20
REMARK    9  A    between atoms: C_24  and  C_27
REMARK                            x       y       z     vdW  Elec       q    Type
REMARK                         _______ _______ _______ _____ _____    ______ ____
ROOT
ATOM      1  C   UNL     1      33.501 -11.104 -25.883  0.00  0.00    +0.007 C 
ATOM      2  C   UNL     1      32.610 -10.033 -25.814  0.00  0.00    -0.006 C 
ATOM      3  C   UNL     1      34.857 -10.871 -26.114  0.00  0.00    -0.002 C 
ATOM      4  C   UNL     1      33.076  -8.728 -25.978  0.00  0.00    -0.022 C 
ATOM      5  C   UNL     1      34.432  -8.495 -26.209  0.00  0.00    -0.026 C 
ATOM      6  C   UNL     1      35.322  -9.566 -26.278  0.00  0.00    -0.005 C 
ENDROOT
BRANCH   1  10
ATOM      7  O   UNL     1      33.770 -13.132 -24.667  0.00  0.00    -0.347 OA
ATOM      8  C   UNL     1      33.090 -13.334 -27.005  0.00  0.00    +0.171 C 
ATOM      9  C   UNL     1      32.728 -14.803 -26.763  0.00  0.00    +0.169 C 
ATOM     10  C   UNL     1      32.996 -12.523 -25.705  0.00  0.00    +0.167 C 
ATOM     11  C   UNL     1      33.475 -15.368 -25.556  0.00  0.00    +0.169 C 
ATOM     12  C   UNL     1      33.322 -14.449 -24.343  0.00  0.00    +0.174 C 
BRANCH   8  13
ATOM     13  O   UNL     1      32.181 -12.782 -27.957  0.00  0.00    -0.379 OA
ATOM     14  H   UNL     1      32.272 -13.250 -28.801  0.00  0.00    +0.211 HD
ENDBRANCH   8  13
BRANCH   9  15
ATOM     15  O   UNL     1      33.089 -15.576 -27.908  0.00  0.00    -0.379 OA
ATOM     16  H   UNL     1      32.352 -16.158 -28.151  0.00  0.00    +0.211 HD
ENDBRANCH   9  15
BRANCH  11  17
ATOM     17  O   UNL     1      32.951 -16.655 -25.239  0.00  0.00    -0.379 OA
ATOM     18  H   UNL     1      32.292 -16.909 -25.905  0.00  0.00    +0.211 HD
ENDBRANCH  11  17
BRANCH  12  19
ATOM     19  C   UNL     1      34.150 -14.935 -23.157  0.00  0.00    +0.169 C 
BRANCH  19  20
ATOM     20  O   UNL     1      35.237 -15.697 -23.649  0.00  0.00    -0.379 OA
ATOM     21  H   UNL     1      36.037 -15.149 -23.661  0.00  0.00    +0.211 HD
ENDBRANCH  19  20
ENDBRANCH  12  19
ENDBRANCH   1  10
BRANCH   5  22
ATOM     22  C   UNL     1      34.953  -7.107 -26.388  0.00  0.00    +0.026 C 
ATOM     23  C   UNL     1      35.355  -6.821 -27.831  0.00  0.00    +0.005 C 
ENDBRANCH   5  22
BRANCH   4  24
ATOM     24  C   UNL     1      32.103  -7.597 -25.901  0.00  0.00    +0.052 C 
BRANCH  24  27
ATOM     25  O   UNL     1      33.286  -7.363 -21.175  0.00  0.00    -0.468 OA
ATOM     26  O   UNL     1      30.868  -5.888 -20.634  0.00  0.00    -0.468 OA
ATOM     27  C   UNL     1      31.785  -7.158 -24.487  0.00  0.00    -0.015 C 
ATOM     28  C   UNL     1      32.678  -7.439 -23.453  0.00  0.00    +0.036 C 
ATOM     29  C   UNL     1      30.596  -6.478 -24.219  0.00  0.00    -0.001 C 
ATOM     30  C   UNL     1      32.379  -7.040 -22.150  0.00  0.00    +0.172 C 
ATOM     31  C   UNL     1      31.202  -6.335 -21.887  0.00  0.00    +0.172 C 
ATOM     32  C   UNL     1      30.303  -6.067 -22.919  0.00  0.00    +0.040 C 
ATOM     33  C   UNL     1      32.731  -7.223 -19.864  0.00  0.00    +0.253 C 
ATOM     34  C   UNL     1      31.988  -5.907 -19.746  0.00  0.00    +0.253 C 
ENDBRANCH  24  27
ENDBRANCH   4  24
TORSDOF 9
ENDMDL
MODEL 8
REMARK VINA RESULT:     -10.3      2.476      5.672
REMARK  Name = 52913524
REMARK  9 active torsions:
REMARK  status: ('A' for Active; 'I' for Inactive)
REMARK    1  A    between atoms: C_1  and  C_10
REMARK    2  A    between atoms: C_4  and  C_24
REMARK    3  A    between atoms: C_5  and  C_22
REMARK    4  A    between atoms: C_8  and  O_13
REMARK    5  A    between atoms: C_9  and  O_15
REMARK    6  A    between atoms: C_11  and  O_17
REMARK    7  A    between atoms: C_12  and  C_19
REMARK    8  A    between atoms: C_19  and  O_20
REMARK    9  A    between atoms: C_24  and  C_27
REMARK                            x       y       z     vdW  Elec       q    Type
REMARK                         _______ _______ _______ _____ _____    ______ ____
ROOT
ATOM      1  C   UNL     1      36.296 -22.679 -16.276  0.00  0.00    +0.007 C 
ATOM      2  C   UNL     1      34.998 -22.875 -16.749  0.00  0.00    -0.006 C 
ATOM      3  C   UNL     1      37.211 -21.945 -17.031  0.00  0.00    -0.002 C 
ATOM      4  C   UNL     1      34.616 -22.336 -17.978  0.00  0.00    -0.022 C 
ATOM      5  C   UNL     1      35.531 -21.602 -18.733  0.00  0.00    -0.026 C 
ATOM      6  C   UNL     1      36.828 -21.407 -18.260  0.00  0.00    -0.005 C 
ENDROOT
BRANCH   1  10
ATOM      7  O   UNL     1      37.692 -24.274 -15.194  0.00  0.00    -0.347 OA
ATOM      8  C   UNL     1      35.515 -23.843 -14.170  0.00  0.00    +0.171 C 
ATOM      9  C   UNL     1      35.979 -24.569 -12.903  0.00  0.00    +0.169 C 
ATOM     10  C   UNL     1      36.711 -23.264 -14.940  0.00  0.00    +0.167 C 
ATOM     11  C   UNL     1      37.124 -25.535 -13.203  0.00  0.00    +0.169 C 
ATOM     12  C   UNL     1      38.230 -24.837 -13.997  0.00  0.00    +0.174 C 
BRANCH   8  13
ATOM     13  O   UNL     1      34.646 -22.774 -13.801  0.00  0.00    -0.379 OA
ATOM     14  H   UNL     1      34.252 -22.960 -12.935  0.00  0.00    +0.211 HD
ENDBRANCH   8  13
BRANCH   9  15
ATOM     15  O   UNL     1      34.893 -25.325 -12.365  0.00  0.00    -0.379 OA
ATOM     16  H   UNL     1      34.498 -25.866 -13.065  0.00  0.00    +0.211 HD
ENDBRANCH   9  15
BRANCH  11  17
ATOM     17  O   UNL     1      37.663 -26.021 -11.976  0.00  0.00    -0.379 OA
ATOM     18  H   UNL     1      37.978 -25.274 -11.443  0.00  0.00    +0.211 HD
ENDBRANCH  11  17
BRANCH  12  19
ATOM     19  C   UNL     1      39.333 -25.809 -14.404  0.00  0.00    +0.169 C 
BRANCH  19  20
ATOM     20  O   UNL     1      40.528 -25.077 -14.602  0.00  0.00    -0.379 OA
ATOM     21  H   UNL     1      40.765 -25.093 -15.542  0.00  0.00    +0.211 HD
ENDBRANCH  19  20
ENDBRANCH  12  19
ENDBRANCH   1  10
BRANCH   5  22
ATOM     22  C   UNL     1      35.145 -21.017 -20.052  0.00  0.00    +0.026 C 
ATOM     23  C   UNL     1      36.092 -19.906 -20.492  0.00  0.00    +0.005 C 
ENDBRANCH   5  22
BRANCH   4  24
ATOM     24  C   UNL     1      33.222 -22.559 -18.464  0.00  0.00    +0.052 C 
BRANCH  24  27
ATOM     25  O   UNL     1      32.228 -24.690 -14.191  0.00  0.00    -0.468 OA
ATOM     26  O   UNL     1      29.494 -23.791 -14.369  0.00  0.00    -0.468 OA
ATOM     27  C   UNL     1      32.237 -22.906 -17.366  0.00  0.00    -0.015 C 
ATOM     28  C   UNL     1      32.663 -23.633 -16.255  0.00  0.00    +0.036 C 
ATOM     29  C   UNL     1      30.905 -22.504 -17.471  0.00  0.00    -0.001 C 
ATOM     30  C   UNL     1      31.754 -23.957 -15.248  0.00  0.00    +0.172 C 
ATOM     31  C   UNL     1      30.427 -23.532 -15.340  0.00  0.00    +0.172 C 
ATOM     32  C   UNL     1      29.998 -22.818 -16.459  0.00  0.00    +0.040 C 
ATOM     33  C   UNL     1      31.167 -25.253 -13.414  0.00  0.00    +0.253 C 
ATOM     34  C   UNL     1      30.103 -24.208 -13.144  0.00  0.00    +0.253 C 
ENDBRANCH  24  27
ENDBRANCH   4  24
TORSDOF 9
ENDMDL
MODEL 9
REMARK VINA RESULT:     -10.2      5.661     10.299
REMARK  Name = 52913524
REMARK  9 active torsions:
REMARK  status: ('A' for Active; 'I' for Inactive)
REMARK    1  A    between atoms: C_1  and  C_10
REMARK    2  A    between atoms: C_4  and  C_24
REMARK    3  A    between atoms: C_5  and  C_22
REMARK    4  A    between atoms: C_8  and  O_13
REMARK    5  A    between atoms: C_9  and  O_15
REMARK    6  A    between atoms: C_11  and  O_17
REMARK    7  A    between atoms: C_12  and  C_19
REMARK    8  A    between atoms: C_19  and  O_20
REMARK    9  A    between atoms: C_24  and  C_27
REMARK                            x       y       z     vdW  Elec       q    Type
REMARK                         _______ _______ _______ _____ _____    ______ ____
ROOT
ATOM      1  C   UNL     1      34.024 -17.986 -23.623  0.00  0.00    +0.007 C 
ATOM      2  C   UNL     1      34.417 -16.682 -23.321  0.00  0.00    -0.006 C 
ATOM      3  C   UNL     1      33.277 -18.241 -24.773  0.00  0.00    -0.002 C 
ATOM      4  C   UNL     1      34.060 -15.633 -24.169  0.00  0.00    -0.022 C 
ATOM      5  C   UNL     1      33.311 -15.889 -25.319  0.00  0.00    -0.026 C 
ATOM      6  C   UNL     1      32.920 -17.192 -25.620  0.00  0.00    -0.005 C 
ENDROOT
BRANCH   1  10
ATOM      7  O   UNL     1      33.319 -19.355 -21.809  0.00  0.00    -0.347 OA
ATOM      8  C   UNL     1      35.701 -18.821 -21.922  0.00  0.00    +0.171 C 
ATOM      9  C   UNL     1      35.985 -19.912 -20.885  0.00  0.00    +0.169 C 
ATOM     10  C   UNL     1      34.413 -19.126 -22.702  0.00  0.00    +0.167 C 
ATOM     11  C   UNL     1      34.744 -20.221 -20.049  0.00  0.00    +0.169 C 
ATOM     12  C   UNL     1      33.532 -20.475 -20.948  0.00  0.00    +0.174 C 
BRANCH   8  13
ATOM     13  O   UNL     1      36.790 -18.760 -22.842  0.00  0.00    -0.379 OA
ATOM     14  H   UNL     1      36.652 -19.407 -23.552  0.00  0.00    +0.211 HD
ENDBRANCH   8  13
BRANCH   9  15
ATOM     15  O   UNL     1      37.015 -19.469 -20.000  0.00  0.00    -0.379 OA
ATOM     16  H   UNL     1      37.093 -18.503 -20.053  0.00  0.00    +0.211 HD
ENDBRANCH   9  15
BRANCH  11  17
ATOM     17  O   UNL     1      34.988 -21.378 -19.253  0.00  0.00    -0.379 OA
ATOM     18  H   UNL     1      35.941 -21.565 -19.239  0.00  0.00    +0.211 HD
ENDBRANCH  11  17
BRANCH  12  19
ATOM     19  C   UNL     1      32.257 -20.676 -20.135  0.00  0.00    +0.169 C 
BRANCH  19  20
ATOM     20  O   UNL     1      32.332 -21.929 -19.481  0.00  0.00    -0.379 OA
ATOM     21  H   UNL     1      33.035 -22.462 -19.885  0.00  0.00    +0.211 HD
ENDBRANCH  19  20
ENDBRANCH  12  19
ENDBRANCH   1  10
BRANCH   5  22
ATOM     22  C   UNL     1      32.917 -14.782 -26.240  0.00  0.00    +0.026 C 
ATOM     23  C   UNL     1      32.252 -15.297 -27.513  0.00  0.00    +0.005 C 
ENDBRANCH   5  22
BRANCH   4  24
ATOM     24  C   UNL     1      34.490 -14.245 -23.825  0.00  0.00    +0.052 C 
BRANCH  24  27
ATOM     25  O   UNL     1      31.498 -10.543 -22.759  0.00  0.00    -0.468 OA
ATOM     26  O   UNL     1      31.012 -11.676 -20.153  0.00  0.00    -0.468 OA
ATOM     27  C   UNL     1      33.566 -13.540 -22.853  0.00  0.00    -0.015 C 
ATOM     28  C   UNL     1      32.926 -12.360 -23.234  0.00  0.00    +0.036 C 
ATOM     29  C   UNL     1      33.361 -14.067 -21.578  0.00  0.00    -0.001 C 
ATOM     30  C   UNL     1      32.082 -11.708 -22.335  0.00  0.00    +0.172 C 
ATOM     31  C   UNL     1      31.855 -12.251 -21.068  0.00  0.00    +0.172 C 
ATOM     32  C   UNL     1      32.507 -13.423 -20.684  0.00  0.00    +0.040 C 
ATOM     33  C   UNL     1      30.949  -9.795 -21.671  0.00  0.00    +0.253 C 
ATOM     34  C   UNL     1      30.153 -10.705 -20.757  0.00  0.00    +0.253 C 
ENDBRANCH  24  27
ENDBRANCH   4  24
TORSDOF 9
ENDMDL
