MODEL 1
REMARK VINA RESULT:     -12.1      0.000      0.000
REMARK  Name = 5288250
REMARK  9 active torsions:
REMARK  status: ('A' for Active; 'I' for Inactive)
REMARK    1  A    between atoms: C_1  and  N_3
REMARK    2  A    between atoms: C_1  and  C_20
REMARK    3  A    between atoms: C_1  and  C_23
REMARK    4  A    between atoms: C_4  and  C_6
REMARK    5  A    between atoms: C_6  and  C_10
REMARK    6  A    between atoms: C_20  and  O_21
REMARK    7  A    between atoms: C_23  and  C_24
REMARK    8  A    between atoms: C_29  and  C_30
REMARK    9  A    between atoms: C_31  and  C_32
REMARK                            x       y       z     vdW  Elec       q    Type
REMARK                         _______ _______ _______ _____ _____    ______ ____
ROOT
ATOM      1  C   UNL     1      34.355 -18.098 -22.438  0.00  0.00    +0.176 C 
ENDROOT
BRANCH   1   3
ATOM      2  O   UNL     1      32.531 -18.335 -24.672  0.00  0.00    -0.275 OA
ATOM      3  N   UNL     1      34.562 -17.630 -23.789  0.00  0.00    -0.297 N 
ATOM      4  C   UNL     1      33.623 -17.790 -24.798  0.00  0.00    +0.223 C 
ATOM      5  H   UNL     1      35.408 -17.175 -24.003  0.00  0.00    +0.150 HD
BRANCH   4   6
ATOM      6  C   UNL     1      34.115 -17.197 -26.102  0.00  0.00    +0.087 C 
BRANCH   6  10
ATOM      7  N   UNL     1      33.005 -13.724 -25.014  0.00  0.00    -0.282 N 
ATOM      8  N   UNL     1      34.452 -13.316 -23.299  0.00  0.00    -0.331 N 
ATOM      9  N   UNL     1      32.707 -11.801 -23.719  0.00  0.00    -0.273 NA
ATOM     10  C   UNL     1      33.982 -15.676 -26.134  0.00  0.00    +0.029 C 
ATOM     11  C   UNL     1      33.333 -15.214 -27.447  0.00  0.00    +0.004 C 
ATOM     12  C   UNL     1      33.177 -15.173 -24.928  0.00  0.00    +0.094 C 
ATOM     13  C   UNL     1      33.136 -13.699 -27.454  0.00  0.00    +0.022 C 
ATOM     14  C   UNL     1      32.355 -13.236 -26.228  0.00  0.00    +0.093 C 
ATOM     15  C   UNL     1      33.353 -12.897 -24.002  0.00  0.00    +0.174 C 
ATOM     16  H   UNL     1      34.908 -14.151 -23.549  0.00  0.00    +0.145 HD
ATOM     17  H   UNL     1      34.785 -12.781 -22.542  0.00  0.00    +0.145 HD
ATOM     18  H   UNL     1      31.922 -11.541 -24.254  0.00  0.00    +0.189 HD
ENDBRANCH   6  10
ENDBRANCH   4   6
ENDBRANCH   1   3
BRANCH   1  20
ATOM     19  O   UNL     1      35.577 -17.551 -20.426  0.00  0.00    -0.248 OA
ATOM     20  C   UNL     1      34.944 -17.153 -21.399  0.00  0.00    +0.335 C 
BRANCH  20  21
ATOM     21  O   UNL     1      34.668 -15.848 -21.676  0.00  0.00    -0.443 OA
ATOM     22  C   UNL     1      34.461 -15.003 -20.540  0.00  0.00    +0.256 C 
ENDBRANCH  20  21
ENDBRANCH   1  20
BRANCH   1  23
ATOM     23  C   UNL     1      34.864 -19.537 -22.261  0.00  0.00    +0.057 C 
BRANCH  23  24
ATOM     24  C   UNL     1      34.240 -20.290 -21.107  0.00  0.00    -0.020 C 
ATOM     25  C   UNL     1      32.878 -20.158 -20.842  0.00  0.00    -0.004 C 
ATOM     26  C   UNL     1      35.029 -21.118 -20.308  0.00  0.00    -0.004 C 
ATOM     27  C   UNL     1      32.303 -20.852 -19.778  0.00  0.00    +0.008 C 
ATOM     28  C   UNL     1      34.455 -21.813 -19.244  0.00  0.00    +0.008 C 
ATOM     29  C   UNL     1      33.092 -21.680 -18.979  0.00  0.00    +0.042 C 
BRANCH  29  30
ATOM     30  C   UNL     1      32.503 -22.391 -17.888  0.00  0.00    -0.060 C 
ATOM     31  C   UNL     1      32.009 -22.988 -16.970  0.00  0.00    -0.060 C 
BRANCH  31  32
ATOM     32  C   UNL     1      31.419 -23.699 -15.877  0.00  0.00    +0.042 C 
ATOM     33  C   UNL     1      30.055 -23.987 -15.889  0.00  0.00    +0.008 C 
ATOM     34  C   UNL     1      32.209 -24.102 -14.800  0.00  0.00    +0.008 C 
ATOM     35  C   UNL     1      29.479 -24.680 -14.824  0.00  0.00    +0.001 C 
ATOM     36  C   UNL     1      31.633 -24.795 -13.735  0.00  0.00    +0.001 C 
ATOM     37  C   UNL     1      30.268 -25.083 -13.747  0.00  0.00    +0.000 C 
ENDBRANCH  31  32
ENDBRANCH  29  30
ENDBRANCH  23  24
ENDBRANCH   1  23
TORSDOF 9
ENDMDL
MODEL 2
REMARK VINA RESULT:     -11.9      5.687     11.945
REMARK  Name = 5288250
REMARK  9 active torsions:
REMARK  status: ('A' for Active; 'I' for Inactive)
REMARK    1  A    between atoms: C_1  and  N_3
REMARK    2  A    between atoms: C_1  and  C_20
REMARK    3  A    between atoms: C_1  and  C_23
REMARK    4  A    between atoms: C_4  and  C_6
REMARK    5  A    between atoms: C_6  and  C_10
REMARK    6  A    between atoms: C_20  and  O_21
REMARK    7  A    between atoms: C_23  and  C_24
REMARK    8  A    between atoms: C_29  and  C_30
REMARK    9  A    between atoms: C_31  and  C_32
REMARK                            x       y       z     vdW  Elec       q    Type
REMARK                         _______ _______ _______ _____ _____    ______ ____
ROOT
ATOM      1  C   UNL     1      33.956 -22.759 -16.805  0.00  0.00    +0.176 C 
ENDROOT
BRANCH   1   3
ATOM      2  O   UNL     1      36.447 -21.303 -17.028  0.00  0.00    -0.275 OA
ATOM      3  N   UNL     1      35.234 -23.122 -16.239  0.00  0.00    -0.297 N 
ATOM      4  C   UNL     1      36.380 -22.356 -16.400  0.00  0.00    +0.223 C 
ATOM      5  H   UNL     1      35.295 -23.952 -15.712  0.00  0.00    +0.150 HD
BRANCH   4   6
ATOM      6  C   UNL     1      37.562 -22.983 -15.693  0.00  0.00    +0.087 C 
BRANCH   6  10
ATOM      7  N   UNL     1      36.467 -24.468 -12.365  0.00  0.00    -0.282 N 
ATOM      8  N   UNL     1      34.254 -23.914 -12.343  0.00  0.00    -0.331 N 
ATOM      9  N   UNL     1      35.216 -24.892 -10.437  0.00  0.00    -0.273 NA
ATOM     10  C   UNL     1      37.137 -24.052 -14.688  0.00  0.00    +0.029 C 
ATOM     11  C   UNL     1      38.228 -25.123 -14.537  0.00  0.00    +0.004 C 
ATOM     12  C   UNL     1      36.807 -23.422 -13.328  0.00  0.00    +0.094 C 
ATOM     13  C   UNL     1      37.834 -26.156 -13.483  0.00  0.00    +0.022 C 
ATOM     14  C   UNL     1      37.490 -25.490 -12.155  0.00  0.00    +0.093 C 
ATOM     15  C   UNL     1      35.314 -24.447 -11.657  0.00  0.00    +0.174 C 
ATOM     16  H   UNL     1      34.376 -23.590 -13.264  0.00  0.00    +0.145 HD
ATOM     17  H   UNL     1      33.370 -23.855 -11.913  0.00  0.00    +0.145 HD
ATOM     18  H   UNL     1      36.007 -25.266  -9.985  0.00  0.00    +0.189 HD
ENDBRANCH   6  10
ENDBRANCH   4   6
ENDBRANCH   1   3
BRANCH   1  20
ATOM     19  O   UNL     1      32.936 -23.723 -14.838  0.00  0.00    -0.248 OA
ATOM     20  C   UNL     1      32.787 -23.244 -15.958  0.00  0.00    +0.335 C 
BRANCH  20  21
ATOM     21  O   UNL     1      31.592 -23.096 -16.596  0.00  0.00    -0.443 OA
ATOM     22  C   UNL     1      30.432 -23.432 -15.829  0.00  0.00    +0.256 C 
ENDBRANCH  20  21
ENDBRANCH   1  20
BRANCH   1  23
ATOM     23  C   UNL     1      33.839 -23.222 -18.265  0.00  0.00    +0.057 C 
BRANCH  23  24
ATOM     24  C   UNL     1      33.855 -22.106 -19.285  0.00  0.00    -0.020 C 
ATOM     25  C   UNL     1      32.666 -21.468 -19.640  0.00  0.00    -0.004 C 
ATOM     26  C   UNL     1      35.058 -21.713 -19.870  0.00  0.00    -0.004 C 
ATOM     27  C   UNL     1      32.681 -20.439 -20.581  0.00  0.00    +0.008 C 
ATOM     28  C   UNL     1      35.073 -20.684 -20.811  0.00  0.00    +0.008 C 
ATOM     29  C   UNL     1      33.885 -20.046 -21.166  0.00  0.00    +0.042 C 
BRANCH  29  30
ATOM     30  C   UNL     1      33.899 -18.992 -22.131  0.00  0.00    -0.060 C 
ATOM     31  C   UNL     1      33.911 -18.105 -22.940  0.00  0.00    -0.060 C 
BRANCH  31  32
ATOM     32  C   UNL     1      33.927 -17.048 -23.905  0.00  0.00    +0.042 C 
ATOM     33  C   UNL     1      33.920 -17.348 -25.267  0.00  0.00    +0.008 C 
ATOM     34  C   UNL     1      33.950 -15.719 -23.484  0.00  0.00    +0.008 C 
ATOM     35  C   UNL     1      33.935 -16.319 -26.209  0.00  0.00    +0.001 C 
ATOM     36  C   UNL     1      33.965 -14.690 -24.425  0.00  0.00    +0.001 C 
ATOM     37  C   UNL     1      33.958 -14.990 -25.788  0.00  0.00    +0.000 C 
ENDBRANCH  31  32
ENDBRANCH  29  30
ENDBRANCH  23  24
ENDBRANCH   1  23
TORSDOF 9
ENDMDL
MODEL 3
REMARK VINA RESULT:     -11.8      5.871     12.312
REMARK  Name = 5288250
REMARK  9 active torsions:
REMARK  status: ('A' for Active; 'I' for Inactive)
REMARK    1  A    between atoms: C_1  and  N_3
REMARK    2  A    between atoms: C_1  and  C_20
REMARK    3  A    between atoms: C_1  and  C_23
REMARK    4  A    between atoms: C_4  and  C_6
REMARK    5  A    between atoms: C_6  and  C_10
REMARK    6  A    between atoms: C_20  and  O_21
REMARK    7  A    between atoms: C_23  and  C_24
REMARK    8  A    between atoms: C_29  and  C_30
REMARK    9  A    between atoms: C_31  and  C_32
REMARK                            x       y       z     vdW  Elec       q    Type
REMARK                         _______ _______ _______ _____ _____    ______ ____
ROOT
ATOM      1  C   UNL     1      32.466 -22.835 -15.536  0.00  0.00    +0.176 C 
ENDROOT
BRANCH   1   3
ATOM      2  O   UNL     1      32.253 -25.189 -13.866  0.00  0.00    -0.275 OA
ATOM      3  N   UNL     1      33.246 -23.147 -14.361  0.00  0.00    -0.297 N 
ATOM      4  C   UNL     1      33.071 -24.307 -13.621  0.00  0.00    +0.223 C 
ATOM      5  H   UNL     1      33.934 -22.505 -14.072  0.00  0.00    +0.150 HD
BRANCH   4   6
ATOM      6  C   UNL     1      34.030 -24.360 -12.450  0.00  0.00    +0.087 C 
BRANCH   6  10
ATOM      7  N   UNL     1      37.567 -25.437 -13.348  0.00  0.00    -0.282 N 
ATOM      8  N   UNL     1      37.263 -26.231 -15.464  0.00  0.00    -0.331 N 
ATOM      9  N   UNL     1      39.351 -26.496 -14.425  0.00  0.00    -0.273 NA
ATOM     10  C   UNL     1      35.487 -24.221 -12.888  0.00  0.00    +0.029 C 
ATOM     11  C   UNL     1      36.262 -23.314 -11.921  0.00  0.00    +0.004 C 
ATOM     12  C   UNL     1      36.159 -25.598 -12.993  0.00  0.00    +0.094 C 
ATOM     13  C   UNL     1      37.735 -23.228 -12.318  0.00  0.00    +0.022 C 
ATOM     14  C   UNL     1      38.360 -24.615 -12.436  0.00  0.00    +0.093 C 
ATOM     15  C   UNL     1      38.119 -26.073 -14.407  0.00  0.00    +0.174 C 
ATOM     16  H   UNL     1      36.340 -25.895 -15.405  0.00  0.00    +0.145 HD
ATOM     17  H   UNL     1      37.571 -26.682 -16.284  0.00  0.00    +0.145 HD
ATOM     18  H   UNL     1      39.930 -26.359 -13.639  0.00  0.00    +0.189 HD
ENDBRANCH   6  10
ENDBRANCH   4   6
ENDBRANCH   1   3
BRANCH   1  20
ATOM     19  O   UNL     1      30.276 -22.583 -14.546  0.00  0.00    -0.248 OA
ATOM     20  C   UNL     1      30.990 -23.164 -15.358  0.00  0.00    +0.335 C 
BRANCH  20  21
ATOM     21  O   UNL     1      30.583 -24.170 -16.182  0.00  0.00    -0.443 OA
ATOM     22  C   UNL     1      29.304 -24.737 -15.884  0.00  0.00    +0.256 C 
ENDBRANCH  20  21
ENDBRANCH   1  20
BRANCH   1  23
ATOM     23  C   UNL     1      33.056 -23.499 -16.790  0.00  0.00    +0.057 C 
BRANCH  23  24
ATOM     24  C   UNL     1      33.252 -22.567 -17.965  0.00  0.00    -0.020 C 
ATOM     25  C   UNL     1      34.530 -22.354 -18.481  0.00  0.00    -0.004 C 
ATOM     26  C   UNL     1      32.154 -21.922 -18.533  0.00  0.00    -0.004 C 
ATOM     27  C   UNL     1      34.710 -21.494 -19.564  0.00  0.00    +0.008 C 
ATOM     28  C   UNL     1      32.334 -21.062 -19.617  0.00  0.00    +0.008 C 
ATOM     29  C   UNL     1      33.612 -20.849 -20.133  0.00  0.00    +0.042 C 
BRANCH  29  30
ATOM     30  C   UNL     1      33.798 -19.968 -21.242  0.00  0.00    -0.060 C 
ATOM     31  C   UNL     1      33.952 -19.228 -22.176  0.00  0.00    -0.060 C 
BRANCH  31  32
ATOM     32  C   UNL     1      34.136 -18.345 -23.287  0.00  0.00    +0.042 C 
ATOM     33  C   UNL     1      34.585 -17.042 -23.075  0.00  0.00    +0.008 C 
ATOM     34  C   UNL     1      33.866 -18.789 -24.582  0.00  0.00    +0.008 C 
ATOM     35  C   UNL     1      34.765 -16.181 -24.158  0.00  0.00    +0.001 C 
ATOM     36  C   UNL     1      34.046 -17.928 -25.665  0.00  0.00    +0.001 C 
ATOM     37  C   UNL     1      34.495 -16.624 -25.452  0.00  0.00    +0.000 C 
ENDBRANCH  31  32
ENDBRANCH  29  30
ENDBRANCH  23  24
ENDBRANCH   1  23
TORSDOF 9
ENDMDL
MODEL 4
REMARK VINA RESULT:     -11.6      5.563     11.374
REMARK  Name = 5288250
REMARK  9 active torsions:
REMARK  status: ('A' for Active; 'I' for Inactive)
REMARK    1  A    between atoms: C_1  and  N_3
REMARK    2  A    between atoms: C_1  and  C_20
REMARK    3  A    between atoms: C_1  and  C_23
REMARK    4  A    between atoms: C_4  and  C_6
REMARK    5  A    between atoms: C_6  and  C_10
REMARK    6  A    between atoms: C_20  and  O_21
REMARK    7  A    between atoms: C_23  and  C_24
REMARK    8  A    between atoms: C_29  and  C_30
REMARK    9  A    between atoms: C_31  and  C_32
REMARK                            x       y       z     vdW  Elec       q    Type
REMARK                         _______ _______ _______ _____ _____    ______ ____
ROOT
ATOM      1  C   UNL     1      35.078 -24.423 -15.868  0.00  0.00    +0.176 C 
ENDROOT
BRANCH   1   3
ATOM      2  O   UNL     1      34.900 -23.721 -13.066  0.00  0.00    -0.275 OA
ATOM      3  N   UNL     1      33.880 -24.307 -15.071  0.00  0.00    -0.297 N 
ATOM      4  C   UNL     1      33.894 -23.963 -13.727  0.00  0.00    +0.223 C 
ATOM      5  H   UNL     1      33.011 -24.480 -15.502  0.00  0.00    +0.150 HD
BRANCH   4   6
ATOM      6  C   UNL     1      32.491 -23.917 -13.158  0.00  0.00    +0.087 C 
BRANCH   6  10
ATOM      7  N   UNL     1      29.596 -23.340 -15.559  0.00  0.00    -0.282 N 
ATOM      8  N   UNL     1      30.668 -22.352 -17.313  0.00  0.00    -0.331 N 
ATOM      9  N   UNL     1      28.325 -22.495 -17.329  0.00  0.00    -0.273 NA
ATOM     10  C   UNL     1      31.430 -24.248 -14.206  0.00  0.00    +0.029 C 
ATOM     11  C   UNL     1      30.475 -25.335 -13.690  0.00  0.00    +0.004 C 
ATOM     12  C   UNL     1      30.648 -22.989 -14.607  0.00  0.00    +0.094 C 
ATOM     13  C   UNL     1      29.372 -25.620 -14.708  0.00  0.00    +0.022 C 
ATOM     14  C   UNL     1      28.637 -24.342 -15.101  0.00  0.00    +0.093 C 
ATOM     15  C   UNL     1      29.472 -22.721 -16.756  0.00  0.00    +0.174 C 
ATOM     16  H   UNL     1      31.511 -22.544 -16.843  0.00  0.00    +0.145 HD
ATOM     17  H   UNL     1      30.684 -21.894 -18.185  0.00  0.00    +0.145 HD
ATOM     18  H   UNL     1      27.491 -22.779 -16.889  0.00  0.00    +0.189 HD
ENDBRANCH   6  10
ENDBRANCH   4   6
ENDBRANCH   1   3
BRANCH   1  20
ATOM     19  O   UNL     1      35.694 -26.719 -15.435  0.00  0.00    -0.248 OA
ATOM     20  C   UNL     1      35.999 -25.531 -15.377  0.00  0.00    +0.335 C 
BRANCH  20  21
ATOM     21  O   UNL     1      37.162 -25.044 -14.862  0.00  0.00    -0.443 OA
ATOM     22  C   UNL     1      37.674 -25.736 -13.719  0.00  0.00    +0.256 C 
ENDBRANCH  20  21
ENDBRANCH   1  20
BRANCH   1  23
ATOM     23  C   UNL     1      35.808 -23.075 -15.978  0.00  0.00    +0.057 C 
BRANCH  23  24
ATOM     24  C   UNL     1      35.576 -22.335 -17.277  0.00  0.00    -0.020 C 
ATOM     25  C   UNL     1      34.356 -22.457 -17.941  0.00  0.00    -0.004 C 
ATOM     26  C   UNL     1      36.583 -21.530 -17.810  0.00  0.00    -0.004 C 
ATOM     27  C   UNL     1      34.142 -21.774 -19.139  0.00  0.00    +0.008 C 
ATOM     28  C   UNL     1      36.370 -20.847 -19.007  0.00  0.00    +0.008 C 
ATOM     29  C   UNL     1      35.149 -20.969 -19.671  0.00  0.00    +0.042 C 
BRANCH  29  30
ATOM     30  C   UNL     1      34.930 -20.271 -20.899  0.00  0.00    -0.060 C 
ATOM     31  C   UNL     1      34.747 -19.682 -21.929  0.00  0.00    -0.060 C 
BRANCH  31  32
ATOM     32  C   UNL     1      34.529 -18.982 -23.158  0.00  0.00    +0.042 C 
ATOM     33  C   UNL     1      34.635 -17.592 -23.197  0.00  0.00    +0.008 C 
ATOM     34  C   UNL     1      34.209 -19.690 -24.317  0.00  0.00    +0.008 C 
ATOM     35  C   UNL     1      34.422 -16.909 -24.394  0.00  0.00    +0.001 C 
ATOM     36  C   UNL     1      33.996 -19.007 -25.514  0.00  0.00    +0.001 C 
ATOM     37  C   UNL     1      34.102 -17.616 -25.552  0.00  0.00    +0.000 C 
ENDBRANCH  31  32
ENDBRANCH  29  30
ENDBRANCH  23  24
ENDBRANCH   1  23
TORSDOF 9
ENDMDL
MODEL 5
REMARK VINA RESULT:     -11.6      5.244     11.863
REMARK  Name = 5288250
REMARK  9 active torsions:
REMARK  status: ('A' for Active; 'I' for Inactive)
REMARK    1  A    between atoms: C_1  and  N_3
REMARK    2  A    between atoms: C_1  and  C_20
REMARK    3  A    between atoms: C_1  and  C_23
REMARK    4  A    between atoms: C_4  and  C_6
REMARK    5  A    between atoms: C_6  and  C_10
REMARK    6  A    between atoms: C_20  and  O_21
REMARK    7  A    between atoms: C_23  and  C_24
REMARK    8  A    between atoms: C_29  and  C_30
REMARK    9  A    between atoms: C_31  and  C_32
REMARK                            x       y       z     vdW  Elec       q    Type
REMARK                         _______ _______ _______ _____ _____    ______ ____
ROOT
ATOM      1  C   UNL     1      34.808 -21.933 -18.603  0.00  0.00    +0.176 C 
ENDROOT
BRANCH   1   3
ATOM      2  O   UNL     1      36.938 -20.853 -16.968  0.00  0.00    -0.275 OA
ATOM      3  N   UNL     1      35.486 -22.586 -17.506  0.00  0.00    -0.297 N 
ATOM      4  C   UNL     1      36.501 -21.984 -16.777  0.00  0.00    +0.223 C 
ATOM      5  H   UNL     1      35.213 -23.500 -17.265  0.00  0.00    +0.150 HD
BRANCH   4   6
ATOM      6  C   UNL     1      37.016 -22.905 -15.691  0.00  0.00    +0.087 C 
BRANCH   6  10
ATOM      7  N   UNL     1      35.546 -24.254 -12.451  0.00  0.00    -0.282 N 
ATOM      8  N   UNL     1      36.718 -23.055 -10.904  0.00  0.00    -0.331 N 
ATOM      9  N   UNL     1      35.289 -24.776 -10.187  0.00  0.00    -0.273 NA
ATOM     10  C   UNL     1      36.011 -23.080 -14.555  0.00  0.00    +0.029 C 
ATOM     11  C   UNL     1      34.658 -23.567 -15.094  0.00  0.00    +0.004 C 
ATOM     12  C   UNL     1      36.550 -24.050 -13.494  0.00  0.00    +0.094 C 
ATOM     13  C   UNL     1      33.671 -23.808 -13.952  0.00  0.00    +0.022 C 
ATOM     14  C   UNL     1      34.252 -24.755 -12.908  0.00  0.00    +0.093 C 
ATOM     15  C   UNL     1      35.823 -24.065 -11.140  0.00  0.00    +0.174 C 
ATOM     16  H   UNL     1      37.095 -22.545 -11.656  0.00  0.00    +0.145 HD
ATOM     17  H   UNL     1      36.984 -22.840  -9.980  0.00  0.00    +0.145 HD
ATOM     18  H   UNL     1      34.650 -25.492 -10.407  0.00  0.00    +0.189 HD
ENDBRANCH   6  10
ENDBRANCH   4   6
ENDBRANCH   1   3
BRANCH   1  20
ATOM     19  O   UNL     1      33.705 -23.704 -19.821  0.00  0.00    -0.248 OA
ATOM     20  C   UNL     1      33.602 -22.722 -19.092  0.00  0.00    +0.335 C 
BRANCH  20  21
ATOM     21  O   UNL     1      32.427 -22.199 -18.641  0.00  0.00    -0.443 OA
ATOM     22  C   UNL     1      31.953 -22.720 -17.395  0.00  0.00    +0.256 C 
ENDBRANCH  20  21
ENDBRANCH   1  20
BRANCH   1  23
ATOM     23  C   UNL     1      35.781 -21.603 -19.744  0.00  0.00    +0.057 C 
BRANCH  23  24
ATOM     24  C   UNL     1      35.413 -20.381 -20.555  0.00  0.00    -0.020 C 
ATOM     25  C   UNL     1      34.081 -20.140 -20.889  0.00  0.00    -0.004 C 
ATOM     26  C   UNL     1      36.407 -19.494 -20.969  0.00  0.00    -0.004 C 
ATOM     27  C   UNL     1      33.741 -19.013 -21.637  0.00  0.00    +0.008 C 
ATOM     28  C   UNL     1      36.068 -18.366 -21.716  0.00  0.00    +0.008 C 
ATOM     29  C   UNL     1      34.735 -18.125 -22.050  0.00  0.00    +0.042 C 
BRANCH  29  30
ATOM     30  C   UNL     1      34.388 -16.971 -22.818  0.00  0.00    -0.060 C 
ATOM     31  C   UNL     1      34.094 -16.001 -23.461  0.00  0.00    -0.060 C 
BRANCH  31  32
ATOM     32  C   UNL     1      33.746 -14.844 -24.228  0.00  0.00    +0.042 C 
ATOM     33  C   UNL     1      33.330 -14.984 -25.551  0.00  0.00    +0.008 C 
ATOM     34  C   UNL     1      33.823 -13.576 -23.652  0.00  0.00    +0.008 C 
ATOM     35  C   UNL     1      32.990 -13.857 -26.300  0.00  0.00    +0.001 C 
ATOM     36  C   UNL     1      33.483 -12.448 -24.400  0.00  0.00    +0.001 C 
ATOM     37  C   UNL     1      33.067 -12.590 -25.724  0.00  0.00    +0.000 C 
ENDBRANCH  31  32
ENDBRANCH  29  30
ENDBRANCH  23  24
ENDBRANCH   1  23
TORSDOF 9
ENDMDL
MODEL 6
REMARK VINA RESULT:     -11.5      1.363      1.894
REMARK  Name = 5288250
REMARK  9 active torsions:
REMARK  status: ('A' for Active; 'I' for Inactive)
REMARK    1  A    between atoms: C_1  and  N_3
REMARK    2  A    between atoms: C_1  and  C_20
REMARK    3  A    between atoms: C_1  and  C_23
REMARK    4  A    between atoms: C_4  and  C_6
REMARK    5  A    between atoms: C_6  and  C_10
REMARK    6  A    between atoms: C_20  and  O_21
REMARK    7  A    between atoms: C_23  and  C_24
REMARK    8  A    between atoms: C_29  and  C_30
REMARK    9  A    between atoms: C_31  and  C_32
REMARK                            x       y       z     vdW  Elec       q    Type
REMARK                         _______ _______ _______ _____ _____    ______ ____
ROOT
ATOM      1  C   UNL     1      34.433 -18.084 -22.614  0.00  0.00    +0.176 C 
ENDROOT
BRANCH   1   3
ATOM      2  O   UNL     1      32.405 -18.466 -24.643  0.00  0.00    -0.275 OA
ATOM      3  N   UNL     1      34.575 -17.891 -24.039  0.00  0.00    -0.297 N 
ATOM      4  C   UNL     1      33.539 -18.100 -24.938  0.00  0.00    +0.223 C 
ATOM      5  H   UNL     1      35.447 -17.597 -24.388  0.00  0.00    +0.150 HD
BRANCH   4   6
ATOM      6  C   UNL     1      33.981 -17.816 -26.358  0.00  0.00    +0.087 C 
BRANCH   6  10
ATOM      7  N   UNL     1      32.282 -14.478 -27.031  0.00  0.00    -0.282 N 
ATOM      8  N   UNL     1      33.960 -13.330 -28.064  0.00  0.00    -0.331 N 
ATOM      9  N   UNL     1      31.969 -12.213 -27.515  0.00  0.00    -0.273 NA
ATOM     10  C   UNL     1      33.079 -16.799 -27.054  0.00  0.00    +0.029 C 
ATOM     11  C   UNL     1      31.617 -17.272 -27.047  0.00  0.00    +0.004 C 
ATOM     12  C   UNL     1      33.202 -15.418 -26.393  0.00  0.00    +0.094 C 
ATOM     13  C   UNL     1      30.703 -16.226 -27.681  0.00  0.00    +0.022 C 
ATOM     14  C   UNL     1      30.872 -14.864 -27.016  0.00  0.00    +0.093 C 
ATOM     15  C   UNL     1      32.698 -13.293 -27.533  0.00  0.00    +0.174 C 
ATOM     16  H   UNL     1      34.474 -14.169 -28.055  0.00  0.00    +0.145 HD
ATOM     17  H   UNL     1      34.353 -12.516 -28.455  0.00  0.00    +0.145 HD
ATOM     18  H   UNL     1      31.066 -12.236 -27.121  0.00  0.00    +0.189 HD
ENDBRANCH   6  10
ENDBRANCH   4   6
ENDBRANCH   1   3
BRANCH   1  20
ATOM     19  O   UNL     1      34.873 -16.836 -20.592  0.00  0.00    -0.248 OA
ATOM     20  C   UNL     1      34.837 -16.850 -21.819  0.00  0.00    +0.335 C 
BRANCH  20  21
ATOM     21  O   UNL     1      35.125 -15.790 -22.625  0.00  0.00    -0.443 OA
ATOM     22  C   UNL     1      34.269 -14.652 -22.484  0.00  0.00    +0.256 C 
ENDBRANCH  20  21
ENDBRANCH   1  20
BRANCH   1  23
ATOM     23  C   UNL     1      35.180 -19.341 -22.143  0.00  0.00    +0.057 C 
BRANCH  23  24
ATOM     24  C   UNL     1      34.480 -20.120 -21.052  0.00  0.00    -0.020 C 
ATOM     25  C   UNL     1      35.215 -20.949 -20.205  0.00  0.00    -0.004 C 
ATOM     26  C   UNL     1      33.099 -20.008 -20.892  0.00  0.00    -0.004 C 
ATOM     27  C   UNL     1      34.569 -21.667 -19.199  0.00  0.00    +0.008 C 
ATOM     28  C   UNL     1      32.453 -20.725 -19.886  0.00  0.00    +0.008 C 
ATOM     29  C   UNL     1      33.188 -21.555 -19.039  0.00  0.00    +0.042 C 
BRANCH  29  30
ATOM     30  C   UNL     1      32.526 -22.292 -18.008  0.00  0.00    -0.060 C 
ATOM     31  C   UNL     1      31.972 -22.911 -17.142  0.00  0.00    -0.060 C 
BRANCH  31  32
ATOM     32  C   UNL     1      31.310 -23.649 -16.109  0.00  0.00    +0.042 C 
ATOM     33  C   UNL     1      29.951 -23.937 -16.221  0.00  0.00    +0.008 C 
ATOM     34  C   UNL     1      32.026 -24.077 -14.991  0.00  0.00    +0.008 C 
ATOM     35  C   UNL     1      29.305 -24.656 -15.214  0.00  0.00    +0.001 C 
ATOM     36  C   UNL     1      31.380 -24.796 -13.985  0.00  0.00    +0.001 C 
ATOM     37  C   UNL     1      30.019 -25.084 -14.097  0.00  0.00    +0.000 C 
ENDBRANCH  31  32
ENDBRANCH  29  30
ENDBRANCH  23  24
ENDBRANCH   1  23
TORSDOF 9
ENDMDL
MODEL 7
REMARK VINA RESULT:     -11.3      3.731     11.025
REMARK  Name = 5288250
REMARK  9 active torsions:
REMARK  status: ('A' for Active; 'I' for Inactive)
REMARK    1  A    between atoms: C_1  and  N_3
REMARK    2  A    between atoms: C_1  and  C_20
REMARK    3  A    between atoms: C_1  and  C_23
REMARK    4  A    between atoms: C_4  and  C_6
REMARK    5  A    between atoms: C_6  and  C_10
REMARK    6  A    between atoms: C_20  and  O_21
REMARK    7  A    between atoms: C_23  and  C_24
REMARK    8  A    between atoms: C_29  and  C_30
REMARK    9  A    between atoms: C_31  and  C_32
REMARK                            x       y       z     vdW  Elec       q    Type
REMARK                         _______ _______ _______ _____ _____    ______ ____
ROOT
ATOM      1  C   UNL     1      33.669 -17.646 -24.338  0.00  0.00    +0.176 C 
ENDROOT
BRANCH   1   3
ATOM      2  O   UNL     1      34.463 -17.368 -21.569  0.00  0.00    -0.275 OA
ATOM      3  N   UNL     1      34.448 -18.577 -23.554  0.00  0.00    -0.297 N 
ATOM      4  C   UNL     1      34.781 -18.356 -22.225  0.00  0.00    +0.223 C 
ATOM      5  H   UNL     1      34.756 -19.408 -23.982  0.00  0.00    +0.150 HD
BRANCH   4   6
ATOM      6  C   UNL     1      35.596 -19.503 -21.666  0.00  0.00    +0.087 C 
BRANCH   6  10
ATOM      7  N   UNL     1      35.175 -21.853 -18.704  0.00  0.00    -0.282 N 
ATOM      8  N   UNL     1      36.733 -21.024 -17.259  0.00  0.00    -0.331 N 
ATOM      9  N   UNL     1      35.609 -23.014 -16.722  0.00  0.00    -0.273 NA
ATOM     10  C   UNL     1      34.976 -20.093 -20.402  0.00  0.00    +0.029 C 
ATOM     11  C   UNL     1      33.532 -20.545 -20.663  0.00  0.00    +0.004 C 
ATOM     12  C   UNL     1      35.821 -21.261 -19.874  0.00  0.00    +0.094 C 
ATOM     13  C   UNL     1      32.932 -21.198 -19.419  0.00  0.00    +0.022 C 
ATOM     14  C   UNL     1      33.812 -22.336 -18.911  0.00  0.00    +0.093 C 
ATOM     15  C   UNL     1      35.825 -22.013 -17.528  0.00  0.00    +0.174 C 
ATOM     16  H   UNL     1      36.862 -20.287 -17.897  0.00  0.00    +0.145 HD
ATOM     17  H   UNL     1      37.257 -21.050 -16.425  0.00  0.00    +0.145 HD
ATOM     18  H   UNL     1      34.945 -23.702 -16.960  0.00  0.00    +0.189 HD
ENDBRANCH   6  10
ENDBRANCH   4   6
ENDBRANCH   1   3
BRANCH   1  20
ATOM     19  O   UNL     1      33.455 -19.172 -26.199  0.00  0.00    -0.248 OA
ATOM     20  C   UNL     1      32.929 -18.327 -25.481  0.00  0.00    +0.335 C 
BRANCH  20  21
ATOM     21  O   UNL     1      31.650 -17.875 -25.608  0.00  0.00    -0.443 OA
ATOM     22  C   UNL     1      31.366 -17.144 -26.805  0.00  0.00    +0.256 C 
ENDBRANCH  20  21
ENDBRANCH   1  20
BRANCH   1  23
ATOM     23  C   UNL     1      34.530 -16.472 -24.828  0.00  0.00    +0.057 C 
BRANCH  23  24
ATOM     24  C   UNL     1      34.037 -15.106 -24.401  0.00  0.00    -0.020 C 
ATOM     25  C   UNL     1      34.263 -14.658 -23.101  0.00  0.00    -0.004 C 
ATOM     26  C   UNL     1      33.357 -14.296 -25.311  0.00  0.00    -0.004 C 
ATOM     27  C   UNL     1      33.808 -13.399 -22.708  0.00  0.00    +0.008 C 
ATOM     28  C   UNL     1      32.902 -13.037 -24.919  0.00  0.00    +0.008 C 
ATOM     29  C   UNL     1      33.128 -12.589 -23.617  0.00  0.00    +0.042 C 
BRANCH  29  30
ATOM     30  C   UNL     1      32.661 -11.299 -23.214  0.00  0.00    -0.060 C 
ATOM     31  C   UNL     1      32.271 -10.216 -22.875  0.00  0.00    -0.060 C 
BRANCH  31  32
ATOM     32  C   UNL     1      31.805  -8.924 -22.472  0.00  0.00    +0.042 C 
ATOM     33  C   UNL     1      32.281  -8.348 -21.295  0.00  0.00    +0.008 C 
ATOM     34  C   UNL     1      30.873  -8.243 -23.256  0.00  0.00    +0.008 C 
ATOM     35  C   UNL     1      31.827  -7.089 -20.901  0.00  0.00    +0.001 C 
ATOM     36  C   UNL     1      30.420  -6.984 -22.862  0.00  0.00    +0.001 C 
ATOM     37  C   UNL     1      30.896  -6.407 -21.684  0.00  0.00    +0.000 C 
ENDBRANCH  31  32
ENDBRANCH  29  30
ENDBRANCH  23  24
ENDBRANCH   1  23
TORSDOF 9
ENDMDL
MODEL 8
REMARK VINA RESULT:     -11.0      3.253      6.384
REMARK  Name = 5288250
REMARK  9 active torsions:
REMARK  status: ('A' for Active; 'I' for Inactive)
REMARK    1  A    between atoms: C_1  and  N_3
REMARK    2  A    between atoms: C_1  and  C_20
REMARK    3  A    between atoms: C_1  and  C_23
REMARK    4  A    between atoms: C_4  and  C_6
REMARK    5  A    between atoms: C_6  and  C_10
REMARK    6  A    between atoms: C_20  and  O_21
REMARK    7  A    between atoms: C_23  and  C_24
REMARK    8  A    between atoms: C_29  and  C_30
REMARK    9  A    between atoms: C_31  and  C_32
REMARK                            x       y       z     vdW  Elec       q    Type
REMARK                         _______ _______ _______ _____ _____    ______ ____
ROOT
ATOM      1  C   UNL     1      33.049 -14.039 -26.557  0.00  0.00    +0.176 C 
ENDROOT
BRANCH   1   3
ATOM      2  O   UNL     1      33.939 -11.934 -24.782  0.00  0.00    -0.275 OA
ATOM      3  N   UNL     1      32.780 -13.916 -25.143  0.00  0.00    -0.297 N 
ATOM      4  C   UNL     1      33.253 -12.864 -24.371  0.00  0.00    +0.223 C 
ATOM      5  H   UNL     1      32.236 -14.610 -24.707  0.00  0.00    +0.150 HD
BRANCH   4   6
ATOM      6  C   UNL     1      32.809 -13.001 -22.929  0.00  0.00    +0.087 C 
BRANCH   6  10
ATOM      7  N   UNL     1      31.765  -9.465 -21.989  0.00  0.00    -0.282 N 
ATOM      8  N   UNL     1      31.591  -8.495 -24.046  0.00  0.00    -0.331 N 
ATOM      9  N   UNL     1      31.372  -7.165 -22.123  0.00  0.00    -0.273 NA
ATOM     10  C   UNL     1      31.889 -11.862 -22.495  0.00  0.00    +0.029 C 
ATOM     11  C   UNL     1      31.268 -12.157 -21.122  0.00  0.00    +0.004 C 
ATOM     12  C   UNL     1      32.646 -10.528 -22.470  0.00  0.00    +0.094 C 
ATOM     13  C   UNL     1      30.400 -10.990 -20.654  0.00  0.00    +0.022 C 
ATOM     14  C   UNL     1      31.180  -9.679 -20.667  0.00  0.00    +0.093 C 
ATOM     15  C   UNL     1      31.568  -8.323 -22.687  0.00  0.00    +0.174 C 
ATOM     16  H   UNL     1      31.742  -9.390 -24.427  0.00  0.00    +0.145 HD
ATOM     17  H   UNL     1      31.456  -7.723 -24.642  0.00  0.00    +0.145 HD
ATOM     18  H   UNL     1      31.364  -7.091 -21.141  0.00  0.00    +0.189 HD
ENDBRANCH   6  10
ENDBRANCH   4   6
ENDBRANCH   1   3
BRANCH   1  20
ATOM     19  O   UNL     1      31.590 -12.374 -27.525  0.00  0.00    -0.248 OA
ATOM     20  C   UNL     1      31.884 -13.560 -27.413  0.00  0.00    +0.335 C 
BRANCH  20  21
ATOM     21  O   UNL     1      31.221 -14.593 -28.005  0.00  0.00    -0.443 OA
ATOM     22  C   UNL     1      29.799 -14.591 -27.845  0.00  0.00    +0.256 C 
ENDBRANCH  20  21
ENDBRANCH   1  20
BRANCH   1  23
ATOM     23  C   UNL     1      33.481 -15.468 -26.921  0.00  0.00    +0.057 C 
BRANCH  23  24
ATOM     24  C   UNL     1      33.630 -16.403 -25.742  0.00  0.00    -0.020 C 
ATOM     25  C   UNL     1      32.890 -17.584 -25.689  0.00  0.00    -0.004 C 
ATOM     26  C   UNL     1      34.508 -16.084 -24.706  0.00  0.00    -0.004 C 
ATOM     27  C   UNL     1      33.027 -18.445 -24.601  0.00  0.00    +0.008 C 
ATOM     28  C   UNL     1      34.646 -16.945 -23.618  0.00  0.00    +0.008 C 
ATOM     29  C   UNL     1      33.905 -18.126 -23.566  0.00  0.00    +0.042 C 
BRANCH  29  30
ATOM     30  C   UNL     1      34.045 -19.009 -22.451  0.00  0.00    -0.060 C 
ATOM     31  C   UNL     1      34.163 -19.749 -21.513  0.00  0.00    -0.060 C 
BRANCH  31  32
ATOM     32  C   UNL     1      34.303 -20.633 -20.395  0.00  0.00    +0.042 C 
ATOM     33  C   UNL     1      33.175 -21.233 -19.836  0.00  0.00    +0.008 C 
ATOM     34  C   UNL     1      35.567 -20.892 -19.865  0.00  0.00    +0.008 C 
ATOM     35  C   UNL     1      33.310 -22.094 -18.747  0.00  0.00    +0.001 C 
ATOM     36  C   UNL     1      35.702 -21.753 -18.776  0.00  0.00    +0.001 C 
ATOM     37  C   UNL     1      34.573 -22.354 -18.217  0.00  0.00    +0.000 C 
ENDBRANCH  31  32
ENDBRANCH  29  30
ENDBRANCH  23  24
ENDBRANCH   1  23
TORSDOF 9
ENDMDL
MODEL 9
REMARK VINA RESULT:     -10.9      2.747      4.229
REMARK  Name = 5288250
REMARK  9 active torsions:
REMARK  status: ('A' for Active; 'I' for Inactive)
REMARK    1  A    between atoms: C_1  and  N_3
REMARK    2  A    between atoms: C_1  and  C_20
REMARK    3  A    between atoms: C_1  and  C_23
REMARK    4  A    between atoms: C_4  and  C_6
REMARK    5  A    between atoms: C_6  and  C_10
REMARK    6  A    between atoms: C_20  and  O_21
REMARK    7  A    between atoms: C_23  and  C_24
REMARK    8  A    between atoms: C_29  and  C_30
REMARK    9  A    between atoms: C_31  and  C_32
REMARK                            x       y       z     vdW  Elec       q    Type
REMARK                         _______ _______ _______ _____ _____    ______ ____
ROOT
ATOM      1  C   UNL     1      34.367 -19.156 -21.882  0.00  0.00    +0.176 C 
ENDROOT
BRANCH   1   3
ATOM      2  O   UNL     1      35.779 -16.795 -22.784  0.00  0.00    -0.275 OA
ATOM      3  N   UNL     1      34.230 -17.809 -21.378  0.00  0.00    -0.297 N 
ATOM      4  C   UNL     1      34.954 -16.735 -21.877  0.00  0.00    +0.223 C 
ATOM      5  H   UNL     1      33.592 -17.645 -20.647  0.00  0.00    +0.150 HD
BRANCH   4   6
ATOM      6  C   UNL     1      34.596 -15.452 -21.158  0.00  0.00    +0.087 C 
BRANCH   6  10
ATOM      7  N   UNL     1      33.259 -13.139 -23.867  0.00  0.00    -0.282 N 
ATOM      8  N   UNL     1      33.030 -14.590 -25.612  0.00  0.00    -0.331 N 
ATOM      9  N   UNL     1      32.682 -12.296 -25.969  0.00  0.00    -0.273 NA
ATOM     10  C   UNL     1      33.582 -14.615 -21.934  0.00  0.00    +0.029 C 
ATOM     11  C   UNL     1      32.971 -13.529 -21.037  0.00  0.00    +0.004 C 
ATOM     12  C   UNL     1      34.229 -13.987 -23.177  0.00  0.00    +0.094 C 
ATOM     13  C   UNL     1      32.005 -12.647 -21.828  0.00  0.00    +0.022 C 
ATOM     14  C   UNL     1      32.677 -12.064 -23.067  0.00  0.00    +0.093 C 
ATOM     15  C   UNL     1      32.977 -13.291 -25.182  0.00  0.00    +0.174 C 
ATOM     16  H   UNL     1      33.258 -15.310 -24.980  0.00  0.00    +0.145 HD
ATOM     17  H   UNL     1      32.840 -14.805 -26.554  0.00  0.00    +0.145 HD
ATOM     18  H   UNL     1      32.657 -11.378 -25.613  0.00  0.00    +0.189 HD
ENDBRANCH   6  10
ENDBRANCH   4   6
ENDBRANCH   1   3
BRANCH   1  20
ATOM     19  O   UNL     1      35.108 -19.772 -24.098  0.00  0.00    -0.248 OA
ATOM     20  C   UNL     1      34.262 -19.221 -23.400  0.00  0.00    +0.335 C 
BRANCH  20  21
ATOM     21  O   UNL     1      33.148 -18.591 -23.866  0.00  0.00    -0.443 OA
ATOM     22  C   UNL     1      33.184 -18.205 -25.244  0.00  0.00    +0.256 C 
ENDBRANCH  20  21
ENDBRANCH   1  20
BRANCH   1  23
ATOM     23  C   UNL     1      33.381 -20.112 -21.195  0.00  0.00    +0.057 C 
BRANCH  23  24
ATOM     24  C   UNL     1      33.952 -20.867 -20.015  0.00  0.00    -0.020 C 
ATOM     25  C   UNL     1      33.111 -21.615 -19.192  0.00  0.00    -0.004 C 
ATOM     26  C   UNL     1      35.321 -20.816 -19.751  0.00  0.00    -0.004 C 
ATOM     27  C   UNL     1      33.637 -22.310 -18.103  0.00  0.00    +0.008 C 
ATOM     28  C   UNL     1      35.848 -21.512 -18.663  0.00  0.00    +0.008 C 
ATOM     29  C   UNL     1      35.006 -22.259 -17.840  0.00  0.00    +0.042 C 
BRANCH  29  30
ATOM     30  C   UNL     1      35.545 -22.971 -16.724  0.00  0.00    -0.060 C 
ATOM     31  C   UNL     1      35.998 -23.568 -15.786  0.00  0.00    -0.060 C 
BRANCH  31  32
ATOM     32  C   UNL     1      36.538 -24.281 -14.668  0.00  0.00    +0.042 C 
ATOM     33  C   UNL     1      37.882 -24.650 -14.660  0.00  0.00    +0.008 C 
ATOM     34  C   UNL     1      35.718 -24.607 -13.588  0.00  0.00    +0.008 C 
ATOM     35  C   UNL     1      38.409 -25.344 -13.571  0.00  0.00    +0.001 C 
ATOM     36  C   UNL     1      36.244 -25.302 -12.499  0.00  0.00    +0.001 C 
ATOM     37  C   UNL     1      37.590 -25.671 -12.491  0.00  0.00    +0.000 C 
ENDBRANCH  31  32
ENDBRANCH  29  30
ENDBRANCH  23  24
ENDBRANCH   1  23
TORSDOF 9
ENDMDL
