MODEL 1
REMARK VINA RESULT:     -12.8      0.000      0.000
REMARK  Name = 93184
REMARK  8 active torsions:
REMARK  status: ('A' for Active; 'I' for Inactive)
REMARK    1  A    between atoms: C_1  and  C_2
REMARK    2  A    between atoms: C_1  and  C_10
REMARK    3  A    between atoms: C_1  and  C_27
REMARK    4  A    between atoms: N_9  and  CA_18
REMARK    5  A    between atoms: CA_17  and  C_23
REMARK    6  A    between atoms: C_23  and  O_24
REMARK    7  A    between atoms: C_27  and  O_28
REMARK    8  A    between atoms: O_28  and  C_35
REMARK                            x       y       z     vdW  Elec       q    Type
REMARK                         _______ _______ _______ _____ _____    ______ ____
ROOT
ATOM      1  C   UNL     1      32.223 -23.545 -16.778  0.00  0.00    +0.198 C 
ENDROOT
BRANCH   1   2
ATOM      2  C   UNL     1      30.781 -23.652 -16.311  0.00  0.00    -0.003 C 
ATOM      3  C   UNL     1      30.372 -24.800 -15.659  0.00  0.00    -0.003 C 
ATOM      4  C   UNL     1      29.918 -22.600 -16.552  0.00  0.00    -0.003 C 
ATOM      5  C   UNL     1      29.048 -24.899 -15.231  0.00  0.00    -0.000 C 
ATOM      6  C   UNL     1      28.595 -22.700 -16.124  0.00  0.00    -0.000 C 
ATOM      7  C   UNL     1      28.159 -23.849 -15.464  0.00  0.00    -0.000 C 
ENDBRANCH   1   2
BRANCH   1  10
ATOM      8  O   UNL     1      32.662 -22.934 -14.473  0.00  0.00    -0.274 OA
ATOM      9  N   UNL     1      34.464 -23.053 -15.927  0.00  0.00    -0.296 N 
ATOM     10  C   UNL     1      33.110 -23.142 -15.599  0.00  0.00    +0.237 C 
ATOM     11  H   UNL     1      34.736 -23.235 -16.855  0.00  0.00    +0.150 HD
BRANCH   9  18
ATOM     12  S   UNL     1      35.186 -25.429 -14.121  0.00  0.00    -0.118 S 
ATOM     13  O   UNL     1      37.583 -22.531 -16.420  0.00  0.00    -0.273 OA
ATOM     14  N   UNL     1      37.188 -23.819 -14.481  0.00  0.00    -0.260 N 
ATOM     15  C   UNL     1      35.854 -23.741 -13.879  0.00  0.00    +0.151 C 
ATOM     16  C   UNL     1      36.893 -26.164 -13.992  0.00  0.00    +0.068 C 
ATOM     17  CA  UNL     1      37.794 -25.119 -14.686  0.00  0.00    +0.184 C 
ATOM     18  CA  UNL     1      35.502 -22.699 -14.949  0.00  0.00    +0.178 C 
ATOM     19  C   UNL     1      36.942 -22.902 -15.462  0.00  0.00    +0.247 C 
ATOM     20  C   UNL     1      37.201 -26.384 -12.505  0.00  0.00    +0.013 C 
ATOM     21  C   UNL     1      36.916 -27.501 -14.736  0.00  0.00    +0.013 C 
BRANCH  17  23
ATOM     22  OXT UNL     1      40.170 -25.545 -14.706  0.00  0.00    -0.248 OA
ATOM     23  C   UNL     1      39.195 -25.040 -14.169  0.00  0.00    +0.333 C 
BRANCH  23  24
ATOM     24  O   UNL     1      39.240 -24.332 -13.014  0.00  0.00    -0.479 OA
ATOM     25  H   UNL     1      38.613 -24.498 -12.338  0.00  0.00    +0.295 HD
ENDBRANCH  23  24
ENDBRANCH  17  23
ENDBRANCH   9  18
ENDBRANCH   1  10
BRANCH   1  27
ATOM     26  O   UNL     1      31.688 -21.638 -18.203  0.00  0.00    -0.249 OA
ATOM     27  C   UNL     1      32.373 -22.630 -17.987  0.00  0.00    +0.334 C 
BRANCH  27  28
ATOM     28  O   UNL     1      33.437 -23.079 -18.768  0.00  0.00    -0.424 OA
BRANCH  28  35
ATOM     29  C   UNL     1      34.996 -18.652 -22.436  0.00  0.00    +0.009 C 
ATOM     30  C   UNL     1      33.676 -19.174 -21.851  0.00  0.00    +0.026 C 
ATOM     31  C   UNL     1      36.064 -18.827 -21.345  0.00  0.00    +0.026 C 
ATOM     32  C   UNL     1      34.173 -20.209 -20.892  0.00  0.00    -0.023 C 
ATOM     33  C   UNL     1      35.529 -20.011 -20.605  0.00  0.00    -0.026 C 
ATOM     34  C   UNL     1      33.454 -21.225 -20.284  0.00  0.00    +0.033 C 
ATOM     35  C   UNL     1      34.121 -22.059 -19.384  0.00  0.00    +0.148 C 
ATOM     36  C   UNL     1      36.193 -20.826 -19.704  0.00  0.00    -0.001 C 
ATOM     37  C   UNL     1      35.480 -21.861 -19.096  0.00  0.00    +0.037 C 
ENDBRANCH  28  35
ENDBRANCH  27  28
ENDBRANCH   1  27
TORSDOF 8
ENDMDL
MODEL 2
REMARK VINA RESULT:     -11.3     11.052     16.352
REMARK  Name = 93184
REMARK  8 active torsions:
REMARK  status: ('A' for Active; 'I' for Inactive)
REMARK    1  A    between atoms: C_1  and  C_2
REMARK    2  A    between atoms: C_1  and  C_10
REMARK    3  A    between atoms: C_1  and  C_27
REMARK    4  A    between atoms: N_9  and  CA_18
REMARK    5  A    between atoms: CA_17  and  C_23
REMARK    6  A    between atoms: C_23  and  O_24
REMARK    7  A    between atoms: C_27  and  O_28
REMARK    8  A    between atoms: O_28  and  C_35
REMARK                            x       y       z     vdW  Elec       q    Type
REMARK                         _______ _______ _______ _____ _____    ______ ____
ROOT
ATOM      1  C   UNL     1      32.691 -11.759 -24.042  0.00  0.00    +0.198 C 
ENDROOT
BRANCH   1   2
ATOM      2  C   UNL     1      33.091 -12.257 -25.420  0.00  0.00    -0.003 C 
ATOM      3  C   UNL     1      32.724 -13.532 -25.803  0.00  0.00    -0.003 C 
ATOM      4  C   UNL     1      33.812 -11.422 -26.252  0.00  0.00    -0.003 C 
ATOM      5  C   UNL     1      33.092 -13.991 -27.069  0.00  0.00    -0.000 C 
ATOM      6  C   UNL     1      34.180 -11.880 -27.516  0.00  0.00    -0.000 C 
ATOM      7  C   UNL     1      33.820 -13.164 -27.925  0.00  0.00    -0.000 C 
ENDBRANCH   1   2
BRANCH   1  10
ATOM      8  O   UNL     1      34.585 -10.245 -24.016  0.00  0.00    -0.274 OA
ATOM      9  N   UNL     1      32.561  -9.467 -23.192  0.00  0.00    -0.296 N 
ATOM     10  C   UNL     1      33.397 -10.433 -23.755  0.00  0.00    +0.237 C 
ATOM     11  H   UNL     1      31.622  -9.703 -23.016  0.00  0.00    +0.150 HD
BRANCH   9  18
ATOM     12  S   UNL     1      32.106  -7.492 -25.498  0.00  0.00    -0.118 S 
ATOM     13  O   UNL     1      31.243  -7.358 -21.179  0.00  0.00    -0.273 OA
ATOM     14  N   UNL     1      31.985  -6.342 -23.176  0.00  0.00    -0.260 N 
ATOM     15  C   UNL     1      32.998  -7.055 -23.961  0.00  0.00    +0.151 C 
ATOM     16  C   UNL     1      31.056  -5.959 -25.371  0.00  0.00    +0.068 C 
ATOM     17  CA  UNL     1      30.824  -5.801 -23.852  0.00  0.00    +0.184 C 
ATOM     18  CA  UNL     1      33.020  -8.114 -22.850  0.00  0.00    +0.178 C 
ATOM     19  C   UNL     1      31.951  -7.246 -22.155  0.00  0.00    +0.247 C 
ATOM     20  C   UNL     1      31.829  -4.802 -26.021  0.00  0.00    +0.013 C 
ATOM     21  C   UNL     1      29.740  -6.194 -26.115  0.00  0.00    +0.013 C 
BRANCH  17  23
ATOM     22  OXT UNL     1      29.678  -3.691 -23.603  0.00  0.00    -0.248 OA
ATOM     23  C   UNL     1      30.651  -4.394 -23.376  0.00  0.00    +0.333 C 
BRANCH  23  24
ATOM     24  O   UNL     1      31.727  -3.997 -22.654  0.00  0.00    -0.479 OA
ATOM     25  H   UNL     1      31.877  -4.355 -21.801  0.00  0.00    +0.295 HD
ENDBRANCH  23  24
ENDBRANCH  17  23
ENDBRANCH   9  18
ENDBRANCH   1  10
BRANCH   1  27
ATOM     26  O   UNL     1      32.045 -13.232 -22.208  0.00  0.00    -0.249 OA
ATOM     27  C   UNL     1      32.913 -12.808 -22.961  0.00  0.00    +0.334 C 
BRANCH  27  28
ATOM     28  O   UNL     1      34.241 -13.232 -23.004  0.00  0.00    -0.424 OA
BRANCH  28  35
ATOM     29  C   UNL     1      34.641 -19.154 -22.496  0.00  0.00    +0.009 C 
ATOM     30  C   UNL     1      34.936 -18.129 -23.601  0.00  0.00    +0.026 C 
ATOM     31  C   UNL     1      35.016 -18.489 -21.163  0.00  0.00    +0.026 C 
ATOM     32  C   UNL     1      34.728 -16.842 -22.865  0.00  0.00    -0.023 C 
ATOM     33  C   UNL     1      34.773 -17.048 -21.481  0.00  0.00    -0.026 C 
ATOM     34  C   UNL     1      34.557 -15.574 -23.395  0.00  0.00    +0.033 C 
ATOM     35  C   UNL     1      34.417 -14.502 -22.511  0.00  0.00    +0.148 C 
ATOM     36  C   UNL     1      34.649 -15.988 -20.598  0.00  0.00    -0.001 C 
ATOM     37  C   UNL     1      34.463 -14.708 -21.123  0.00  0.00    +0.037 C 
ENDBRANCH  28  35
ENDBRANCH  27  28
ENDBRANCH   1  27
TORSDOF 8
ENDMDL
MODEL 3
REMARK VINA RESULT:     -10.6     13.074     17.047
REMARK  Name = 93184
REMARK  8 active torsions:
REMARK  status: ('A' for Active; 'I' for Inactive)
REMARK    1  A    between atoms: C_1  and  C_2
REMARK    2  A    between atoms: C_1  and  C_10
REMARK    3  A    between atoms: C_1  and  C_27
REMARK    4  A    between atoms: N_9  and  CA_18
REMARK    5  A    between atoms: CA_17  and  C_23
REMARK    6  A    between atoms: C_23  and  O_24
REMARK    7  A    between atoms: C_27  and  O_28
REMARK    8  A    between atoms: O_28  and  C_35
REMARK                            x       y       z     vdW  Elec       q    Type
REMARK                         _______ _______ _______ _____ _____    ______ ____
ROOT
ATOM      1  C   UNL     1      34.134 -11.379 -25.105  0.00  0.00    +0.198 C 
ENDROOT
BRANCH   1   2
ATOM      2  C   UNL     1      33.475 -11.977 -23.874  0.00  0.00    -0.003 C 
ATOM      3  C   UNL     1      32.464 -11.274 -23.248  0.00  0.00    -0.003 C 
ATOM      4  C   UNL     1      33.905 -13.206 -23.413  0.00  0.00    -0.003 C 
ATOM      5  C   UNL     1      31.859 -11.822 -22.116  0.00  0.00    -0.000 C 
ATOM      6  C   UNL     1      33.301 -13.754 -22.283  0.00  0.00    -0.000 C 
ATOM      7  C   UNL     1      32.278 -13.062 -21.634  0.00  0.00    -0.000 C 
ENDBRANCH   1   2
BRANCH   1  10
ATOM      8  O   UNL     1      35.717  -9.737 -24.283  0.00  0.00    -0.274 OA
ATOM      9  N   UNL     1      33.703  -8.970 -25.139  0.00  0.00    -0.296 N 
ATOM     10  C   UNL     1      34.618  -9.963 -24.787  0.00  0.00    +0.237 C 
ATOM     11  H   UNL     1      32.845  -9.241 -25.538  0.00  0.00    +0.150 HD
BRANCH   9  18
ATOM     12  S   UNL     1      31.963  -7.232 -26.977  0.00  0.00    -0.118 S 
ATOM     13  O   UNL     1      32.882  -7.109 -22.669  0.00  0.00    -0.273 OA
ATOM     14  N   UNL     1      32.536  -6.041 -24.745  0.00  0.00    -0.260 N 
ATOM     15  C   UNL     1      33.279  -6.554 -25.901  0.00  0.00    +0.151 C 
ATOM     16  C   UNL     1      30.753  -5.953 -26.370  0.00  0.00    +0.068 C 
ATOM     17  CA  UNL     1      31.116  -5.786 -24.878  0.00  0.00    +0.184 C 
ATOM     18  CA  UNL     1      33.963  -7.538 -24.942  0.00  0.00    +0.178 C 
ATOM     19  C   UNL     1      33.102  -6.890 -23.839  0.00  0.00    +0.247 C 
ATOM     20  C   UNL     1      30.940  -4.686 -27.216  0.00  0.00    +0.013 C 
ATOM     21  C   UNL     1      29.332  -6.493 -26.541  0.00  0.00    +0.013 C 
BRANCH  17  23
ATOM     22  OXT UNL     1      29.749  -3.986 -24.030  0.00  0.00    -0.248 OA
ATOM     23  C   UNL     1      30.854  -4.431 -24.304  0.00  0.00    +0.333 C 
BRANCH  23  24
ATOM     24  O   UNL     1      32.015  -3.753 -24.130  0.00  0.00    -0.479 OA
ATOM     25  H   UNL     1      32.375  -3.655 -23.270  0.00  0.00    +0.295 HD
ENDBRANCH  23  24
ENDBRANCH  17  23
ENDBRANCH   9  18
ENDBRANCH   1  10
BRANCH   1  27
ATOM     26  O   UNL     1      32.240 -10.757 -26.511  0.00  0.00    -0.249 OA
ATOM     27  C   UNL     1      33.235 -11.448 -26.333  0.00  0.00    +0.334 C 
BRANCH  27  28
ATOM     28  O   UNL     1      33.757 -12.382 -27.228  0.00  0.00    -0.424 OA
BRANCH  28  35
ATOM     29  C   UNL     1      32.561 -18.162 -26.422  0.00  0.00    +0.009 C 
ATOM     30  C   UNL     1      33.476 -17.130 -25.747  0.00  0.00    +0.026 C 
ATOM     31  C   UNL     1      31.283 -17.417 -26.836  0.00  0.00    +0.026 C 
ATOM     32  C   UNL     1      33.059 -15.873 -26.443  0.00  0.00    -0.023 C 
ATOM     33  C   UNL     1      31.813 -16.037 -27.061  0.00  0.00    -0.026 C 
ATOM     34  C   UNL     1      33.722 -14.658 -26.482  0.00  0.00    +0.033 C 
ATOM     35  C   UNL     1      33.122 -13.599 -27.167  0.00  0.00    +0.148 C 
ATOM     36  C   UNL     1      31.206 -14.988 -27.731  0.00  0.00    -0.001 C 
ATOM     37  C   UNL     1      31.873 -13.762 -27.786  0.00  0.00    +0.037 C 
ENDBRANCH  28  35
ENDBRANCH  27  28
ENDBRANCH   1  27
TORSDOF 8
ENDMDL
MODEL 4
REMARK VINA RESULT:     -10.4     11.184     16.719
REMARK  Name = 93184
REMARK  8 active torsions:
REMARK  status: ('A' for Active; 'I' for Inactive)
REMARK    1  A    between atoms: C_1  and  C_2
REMARK    2  A    between atoms: C_1  and  C_10
REMARK    3  A    between atoms: C_1  and  C_27
REMARK    4  A    between atoms: N_9  and  CA_18
REMARK    5  A    between atoms: CA_17  and  C_23
REMARK    6  A    between atoms: C_23  and  O_24
REMARK    7  A    between atoms: C_27  and  O_28
REMARK    8  A    between atoms: O_28  and  C_35
REMARK                            x       y       z     vdW  Elec       q    Type
REMARK                         _______ _______ _______ _____ _____    ______ ____
ROOT
ATOM      1  C   UNL     1      32.370 -11.878 -23.630  0.00  0.00    +0.198 C 
ENDROOT
BRANCH   1   2
ATOM      2  C   UNL     1      33.107 -11.778 -24.954  0.00  0.00    -0.003 C 
ATOM      3  C   UNL     1      32.599 -12.443 -26.054  0.00  0.00    -0.003 C 
ATOM      4  C   UNL     1      34.264 -11.027 -25.023  0.00  0.00    -0.003 C 
ATOM      5  C   UNL     1      33.277 -12.352 -27.271  0.00  0.00    -0.000 C 
ATOM      6  C   UNL     1      34.941 -10.937 -26.238  0.00  0.00    -0.000 C 
ATOM      7  C   UNL     1      34.448 -11.599 -27.363  0.00  0.00    -0.000 C 
ENDBRANCH   1   2
BRANCH   1  10
ATOM      8  O   UNL     1      32.205 -10.329 -21.772  0.00  0.00    -0.274 OA
ATOM      9  N   UNL     1      32.331  -9.447 -23.913  0.00  0.00    -0.296 N 
ATOM     10  C   UNL     1      32.287 -10.492 -22.988  0.00  0.00    +0.237 C 
ATOM     11  H   UNL     1      32.397  -9.669 -24.870  0.00  0.00    +0.150 HD
BRANCH   9  18
ATOM     12  S   UNL     1      32.863  -7.588 -26.298  0.00  0.00    -0.118 S 
ATOM     13  O   UNL     1      29.786  -7.667 -23.145  0.00  0.00    -0.273 OA
ATOM     14  N   UNL     1      31.301  -6.505 -24.532  0.00  0.00    -0.260 N 
ATOM     15  C   UNL     1      32.684  -6.991 -24.577  0.00  0.00    +0.151 C 
ATOM     16  C   UNL     1      31.662  -6.303 -26.911  0.00  0.00    +0.068 C 
ATOM     17  CA  UNL     1      30.620  -6.207 -25.776  0.00  0.00    +0.184 C 
ATOM     18  CA  UNL     1      32.285  -8.032 -23.522  0.00  0.00    +0.178 C 
ATOM     19  C   UNL     1      30.877  -7.406 -23.599  0.00  0.00    +0.247 C 
ATOM     20  C   UNL     1      32.447  -5.008 -27.165  0.00  0.00    +0.013 C 
ATOM     21  C   UNL     1      31.027  -6.796 -28.212  0.00  0.00    +0.013 C 
BRANCH  17  23
ATOM     22  OXT UNL     1      30.274  -4.040 -24.769  0.00  0.00    -0.248 OA
ATOM     23  C   UNL     1      29.971  -4.869 -25.614  0.00  0.00    +0.333 C 
BRANCH  23  24
ATOM     24  O   UNL     1      28.993  -4.697 -26.536  0.00  0.00    -0.479 OA
ATOM     25  H   UNL     1      28.105  -4.575 -26.260  0.00  0.00    +0.295 HD
ENDBRANCH  23  24
ENDBRANCH  17  23
ENDBRANCH   9  18
ENDBRANCH   1  10
BRANCH   1  27
ATOM     26  O   UNL     1      32.467 -13.320 -21.664  0.00  0.00    -0.249 OA
ATOM     27  C   UNL     1      32.971 -12.933 -22.711  0.00  0.00    +0.334 C 
BRANCH  27  28
ATOM     28  O   UNL     1      34.152 -13.413 -23.279  0.00  0.00    -0.424 OA
BRANCH  28  35
ATOM     29  C   UNL     1      35.367 -19.105 -22.010  0.00  0.00    +0.009 C 
ATOM     30  C   UNL     1      35.134 -17.827 -21.190  0.00  0.00    +0.026 C 
ATOM     31  C   UNL     1      34.430 -19.029 -23.224  0.00  0.00    +0.026 C 
ATOM     32  C   UNL     1      34.724 -16.866 -22.261  0.00  0.00    -0.023 C 
ATOM     33  C   UNL     1      34.324 -17.550 -23.416  0.00  0.00    -0.026 C 
ATOM     34  C   UNL     1      34.669 -15.485 -22.193  0.00  0.00    +0.033 C 
ATOM     35  C   UNL     1      34.215 -14.785 -23.313  0.00  0.00    +0.148 C 
ATOM     36  C   UNL     1      33.861 -16.864 -24.526  0.00  0.00    -0.001 C 
ATOM     37  C   UNL     1      33.813 -15.470 -24.471  0.00  0.00    +0.037 C 
ENDBRANCH  28  35
ENDBRANCH  27  28
ENDBRANCH   1  27
TORSDOF 8
ENDMDL
MODEL 5
REMARK VINA RESULT:     -10.2     14.580     18.707
REMARK  Name = 93184
REMARK  8 active torsions:
REMARK  status: ('A' for Active; 'I' for Inactive)
REMARK    1  A    between atoms: C_1  and  C_2
REMARK    2  A    between atoms: C_1  and  C_10
REMARK    3  A    between atoms: C_1  and  C_27
REMARK    4  A    between atoms: N_9  and  CA_18
REMARK    5  A    between atoms: CA_17  and  C_23
REMARK    6  A    between atoms: C_23  and  O_24
REMARK    7  A    between atoms: C_27  and  O_28
REMARK    8  A    between atoms: O_28  and  C_35
REMARK                            x       y       z     vdW  Elec       q    Type
REMARK                         _______ _______ _______ _____ _____    ______ ____
ROOT
ATOM      1  C   UNL     1      32.801  -8.020 -22.103  0.00  0.00    +0.198 C 
ENDROOT
BRANCH   1   2
ATOM      2  C   UNL     1      32.049  -8.999 -21.218  0.00  0.00    -0.003 C 
ATOM      3  C   UNL     1      32.449  -9.156 -19.905  0.00  0.00    -0.003 C 
ATOM      4  C   UNL     1      30.987  -9.704 -21.750  0.00  0.00    -0.003 C 
ATOM      5  C   UNL     1      31.759 -10.056 -19.092  0.00  0.00    -0.000 C 
ATOM      6  C   UNL     1      30.298 -10.603 -20.937  0.00  0.00    -0.000 C 
ATOM      7  C   UNL     1      30.683 -10.780 -19.608  0.00  0.00    -0.000 C 
ENDBRANCH   1   2
BRANCH   1  10
ATOM      8  O   UNL     1      31.697  -6.260 -20.853  0.00  0.00    -0.274 OA
ATOM      9  N   UNL     1      32.410  -5.779 -23.006  0.00  0.00    -0.296 N 
ATOM     10  C   UNL     1      32.236  -6.613 -21.901  0.00  0.00    +0.237 C 
ATOM     11  H   UNL     1      32.853  -6.144 -23.806  0.00  0.00    +0.150 HD
BRANCH   9  18
ATOM     12  S   UNL     1      32.339  -4.653 -25.862  0.00  0.00    -0.118 S 
ATOM     13  O   UNL     1      29.472  -4.610 -22.516  0.00  0.00    -0.273 OA
ATOM     14  N   UNL     1      30.562  -3.555 -24.324  0.00  0.00    -0.260 N 
ATOM     15  C   UNL     1      32.025  -3.637 -24.372  0.00  0.00    +0.151 C 
ATOM     16  C   UNL     1      30.807  -3.987 -26.687  0.00  0.00    +0.068 C 
ATOM     17  CA  UNL     1      29.801  -3.841 -25.524  0.00  0.00    +0.184 C 
ATOM     18  CA  UNL     1      31.963  -4.380 -23.030  0.00  0.00    +0.178 C 
ATOM     19  C   UNL     1      30.433  -4.212 -23.136  0.00  0.00    +0.247 C 
ATOM     20  C   UNL     1      31.179  -2.667 -27.377  0.00  0.00    +0.013 C 
ATOM     21  C   UNL     1      30.319  -5.002 -27.722  0.00  0.00    +0.013 C 
BRANCH  17  23
ATOM     22  OXT UNL     1      27.926  -2.710 -26.539  0.00  0.00    -0.248 OA
ATOM     23  C   UNL     1      28.796  -2.745 -25.682  0.00  0.00    +0.333 C 
BRANCH  23  24
ATOM     24  O   UNL     1      28.983  -1.786 -24.744  0.00  0.00    -0.479 OA
ATOM     25  H   UNL     1      28.966  -2.010 -23.834  0.00  0.00    +0.295 HD
ENDBRANCH  23  24
ENDBRANCH  17  23
ENDBRANCH   9  18
ENDBRANCH   1  10
BRANCH   1  27
ATOM     26  O   UNL     1      31.986  -8.142 -24.399  0.00  0.00    -0.249 OA
ATOM     27  C   UNL     1      32.822  -8.457 -23.562  0.00  0.00    +0.334 C 
BRANCH  27  28
ATOM     28  O   UNL     1      33.963  -9.226 -23.791  0.00  0.00    -0.424 OA
BRANCH  28  35
ATOM     29  C   UNL     1      32.928 -13.601 -27.699  0.00  0.00    +0.009 C 
ATOM     30  C   UNL     1      33.803 -12.339 -27.677  0.00  0.00    +0.026 C 
ATOM     31  C   UNL     1      32.930 -14.166 -26.271  0.00  0.00    +0.026 C 
ATOM     32  C   UNL     1      33.615 -11.881 -26.265  0.00  0.00    -0.023 C 
ATOM     33  C   UNL     1      33.119 -12.919 -25.467  0.00  0.00    -0.026 C 
ATOM     34  C   UNL     1      33.909 -10.641 -25.723  0.00  0.00    +0.033 C 
ATOM     35  C   UNL     1      33.686 -10.446 -24.358  0.00  0.00    +0.148 C 
ATOM     36  C   UNL     1      32.908 -12.738 -24.110  0.00  0.00    -0.001 C 
ATOM     37  C   UNL     1      33.189 -11.487 -23.558  0.00  0.00    +0.037 C 
ENDBRANCH  28  35
ENDBRANCH  27  28
ENDBRANCH   1  27
TORSDOF 8
ENDMDL
MODEL 6
REMARK VINA RESULT:     -10.2      7.699     13.155
REMARK  Name = 93184
REMARK  8 active torsions:
REMARK  status: ('A' for Active; 'I' for Inactive)
REMARK    1  A    between atoms: C_1  and  C_2
REMARK    2  A    between atoms: C_1  and  C_10
REMARK    3  A    between atoms: C_1  and  C_27
REMARK    4  A    between atoms: N_9  and  CA_18
REMARK    5  A    between atoms: CA_17  and  C_23
REMARK    6  A    between atoms: C_23  and  O_24
REMARK    7  A    between atoms: C_27  and  O_28
REMARK    8  A    between atoms: O_28  and  C_35
REMARK                            x       y       z     vdW  Elec       q    Type
REMARK                         _______ _______ _______ _____ _____    ______ ____
ROOT
ATOM      1  C   UNL     1      33.447 -16.909 -24.147  0.00  0.00    +0.198 C 
ENDROOT
BRANCH   1   2
ATOM      2  C   UNL     1      32.873 -16.570 -25.511  0.00  0.00    -0.003 C 
ATOM      3  C   UNL     1      31.708 -17.189 -25.920  0.00  0.00    -0.003 C 
ATOM      4  C   UNL     1      33.531 -15.651 -26.306  0.00  0.00    -0.003 C 
ATOM      5  C   UNL     1      31.180 -16.878 -27.174  0.00  0.00    -0.000 C 
ATOM      6  C   UNL     1      33.004 -15.340 -27.559  0.00  0.00    -0.000 C 
ATOM      7  C   UNL     1      31.828 -15.954 -27.994  0.00  0.00    -0.000 C 
ENDBRANCH   1   2
BRANCH   1  10
ATOM      8  O   UNL     1      35.361 -15.684 -23.302  0.00  0.00    -0.274 OA
ATOM      9  N   UNL     1      33.328 -14.576 -23.419  0.00  0.00    -0.296 N 
ATOM     10  C   UNL     1      34.162 -15.683 -23.576  0.00  0.00    +0.237 C 
ATOM     11  H   UNL     1      32.378 -14.663 -23.664  0.00  0.00    +0.150 HD
BRANCH   9  18
ATOM     12  S   UNL     1      33.958 -12.607 -25.689  0.00  0.00    -0.118 S 
ATOM     13  O   UNL     1      31.663 -12.276 -21.942  0.00  0.00    -0.273 OA
ATOM     14  N   UNL     1      33.177 -11.403 -23.528  0.00  0.00    -0.260 N 
ATOM     15  C   UNL     1      34.303 -12.254 -23.926  0.00  0.00    +0.151 C 
ATOM     16  C   UNL     1      33.130 -10.951 -25.898  0.00  0.00    +0.068 C 
ATOM     17  CA  UNL     1      32.403 -10.734 -24.553  0.00  0.00    +0.184 C 
ATOM     18  CA  UNL     1      33.802 -13.284 -22.905  0.00  0.00    +0.178 C 
ATOM     19  C   UNL     1      32.675 -12.275 -22.606  0.00  0.00    +0.247 C 
ATOM     20  C   UNL     1      34.219  -9.915 -26.208  0.00  0.00    +0.013 C 
ATOM     21  C   UNL     1      32.139 -11.035 -27.061  0.00  0.00    +0.013 C 
BRANCH  17  23
ATOM     22  OXT UNL     1      31.604  -8.464 -24.734  0.00  0.00    -0.248 OA
ATOM     23  C   UNL     1      32.251  -9.308 -24.132  0.00  0.00    +0.333 C 
BRANCH  23  24
ATOM     24  O   UNL     1      32.934  -9.071 -22.986  0.00  0.00    -0.479 OA
ATOM     25  H   UNL     1      32.996  -9.739 -22.331  0.00  0.00    +0.295 HD
ENDBRANCH  23  24
ENDBRANCH  17  23
ENDBRANCH   9  18
ENDBRANCH   1  10
BRANCH   1  27
ATOM     26  O   UNL     1      34.363 -18.956 -25.108  0.00  0.00    -0.249 OA
ATOM     27  C   UNL     1      34.321 -18.156 -24.181  0.00  0.00    +0.334 C 
BRANCH  27  28
ATOM     28  O   UNL     1      35.088 -18.208 -23.017  0.00  0.00    -0.424 OA
BRANCH  28  35
ATOM     29  C   UNL     1      34.546 -22.426 -18.846  0.00  0.00    +0.009 C 
ATOM     30  C   UNL     1      35.628 -21.409 -19.239  0.00  0.00    +0.026 C 
ATOM     31  C   UNL     1      33.190 -21.740 -19.075  0.00  0.00    +0.026 C 
ATOM     32  C   UNL     1      34.911 -20.611 -20.282  0.00  0.00    -0.023 C 
ATOM     33  C   UNL     1      33.527 -20.800 -20.189  0.00  0.00    -0.026 C 
ATOM     34  C   UNL     1      35.452 -19.745 -21.217  0.00  0.00    +0.033 C 
ATOM     35  C   UNL     1      34.582 -19.071 -22.076  0.00  0.00    +0.148 C 
ATOM     36  C   UNL     1      32.656 -20.125 -21.028  0.00  0.00    -0.001 C 
ATOM     37  C   UNL     1      33.194 -19.259 -21.982  0.00  0.00    +0.037 C 
ENDBRANCH  28  35
ENDBRANCH  27  28
ENDBRANCH   1  27
TORSDOF 8
ENDMDL
MODEL 7
REMARK VINA RESULT:      -9.8     13.468     18.753
REMARK  Name = 93184
REMARK  8 active torsions:
REMARK  status: ('A' for Active; 'I' for Inactive)
REMARK    1  A    between atoms: C_1  and  C_2
REMARK    2  A    between atoms: C_1  and  C_10
REMARK    3  A    between atoms: C_1  and  C_27
REMARK    4  A    between atoms: N_9  and  CA_18
REMARK    5  A    between atoms: CA_17  and  C_23
REMARK    6  A    between atoms: C_23  and  O_24
REMARK    7  A    between atoms: C_27  and  O_28
REMARK    8  A    between atoms: O_28  and  C_35
REMARK                            x       y       z     vdW  Elec       q    Type
REMARK                         _______ _______ _______ _____ _____    ______ ____
ROOT
ATOM      1  C   UNL     1      33.634  -9.022 -24.740  0.00  0.00    +0.198 C 
ENDROOT
BRANCH   1   2
ATOM      2  C   UNL     1      32.902  -8.589 -23.482  0.00  0.00    -0.003 C 
ATOM      3  C   UNL     1      33.580  -7.845 -22.535  0.00  0.00    -0.003 C 
ATOM      4  C   UNL     1      31.578  -8.950 -23.318  0.00  0.00    -0.003 C 
ATOM      5  C   UNL     1      32.907  -7.448 -21.379  0.00  0.00    -0.000 C 
ATOM      6  C   UNL     1      30.906  -8.554 -22.163  0.00  0.00    -0.000 C 
ATOM      7  C   UNL     1      31.571  -7.802 -21.193  0.00  0.00    -0.000 C 
ENDBRANCH   1   2
BRANCH   1  10
ATOM      8  O   UNL     1      32.246  -9.964 -26.490  0.00  0.00    -0.274 OA
ATOM      9  N   UNL     1      32.341  -7.654 -26.305  0.00  0.00    -0.296 N 
ATOM     10  C   UNL     1      32.679  -8.957 -25.933  0.00  0.00    +0.237 C 
ATOM     11  H   UNL     1      32.735  -6.905 -25.803  0.00  0.00    +0.150 HD
BRANCH   9  18
ATOM     12  S   UNL     1      30.197  -5.615 -25.485  0.00  0.00    -0.118 S 
ATOM     13  O   UNL     1      32.897  -5.944 -28.952  0.00  0.00    -0.273 OA
ATOM     14  N   UNL     1      30.788  -5.465 -28.006  0.00  0.00    -0.260 N 
ATOM     15  C   UNL     1      30.209  -6.466 -27.105  0.00  0.00    +0.151 C 
ATOM     16  C   UNL     1      29.954  -3.963 -26.310  0.00  0.00    +0.068 C 
ATOM     17  CA  UNL     1      30.794  -4.074 -27.602  0.00  0.00    +0.184 C 
ATOM     18  CA  UNL     1      31.424  -7.351 -27.412  0.00  0.00    +0.178 C 
ATOM     19  C   UNL     1      31.896  -6.197 -28.320  0.00  0.00    +0.247 C 
ATOM     20  C   UNL     1      28.449  -3.769 -26.543  0.00  0.00    +0.013 C 
ATOM     21  C   UNL     1      30.489  -2.864 -25.390  0.00  0.00    +0.013 C 
BRANCH  17  23
ATOM     22  OXT UNL     1      29.662  -3.728 -29.706  0.00  0.00    -0.248 OA
ATOM     23  C   UNL     1      30.290  -3.274 -28.761  0.00  0.00    +0.333 C 
BRANCH  23  24
ATOM     24  O   UNL     1      30.630  -1.969 -28.626  0.00  0.00    -0.479 OA
ATOM     25  H   UNL     1      31.476  -1.674 -28.902  0.00  0.00    +0.295 HD
ENDBRANCH  23  24
ENDBRANCH  17  23
ENDBRANCH   9  18
ENDBRANCH   1  10
BRANCH   1  27
ATOM     26  O   UNL     1      35.367 -10.700 -25.104  0.00  0.00    -0.249 OA
ATOM     27  C   UNL     1      34.308 -10.378 -24.580  0.00  0.00    +0.334 C 
BRANCH  27  28
ATOM     28  O   UNL     1      33.551 -11.163 -23.709  0.00  0.00    -0.424 OA
BRANCH  28  35
ATOM     29  C   UNL     1      34.701 -17.006 -23.828  0.00  0.00    +0.009 C 
ATOM     30  C   UNL     1      34.611 -15.932 -22.735  0.00  0.00    +0.026 C 
ATOM     31  C   UNL     1      33.631 -16.663 -24.876  0.00  0.00    +0.026 C 
ATOM     32  C   UNL     1      34.113 -14.760 -23.521  0.00  0.00    -0.023 C 
ATOM     33  C   UNL     1      33.557 -15.176 -24.737  0.00  0.00    -0.026 C 
ATOM     34  C   UNL     1      34.116 -13.424 -23.156  0.00  0.00    +0.033 C 
ATOM     35  C   UNL     1      33.560 -12.496 -24.039  0.00  0.00    +0.148 C 
ATOM     36  C   UNL     1      32.993 -14.263 -25.612  0.00  0.00    -0.001 C 
ATOM     37  C   UNL     1      33.002 -12.913 -25.258  0.00  0.00    +0.037 C 
ENDBRANCH  28  35
ENDBRANCH  27  28
ENDBRANCH   1  27
TORSDOF 8
ENDMDL
