MODEL 1
REMARK VINA RESULT:     -12.0      0.000      0.000
REMARK  Name = 5287459
REMARK  5 active torsions:
REMARK  status: ('A' for Active; 'I' for Inactive)
REMARK    1  A    between atoms: C_1  and  C_7
REMARK    2  A    between atoms: C_4  and  C_21
REMARK    3  A    between atoms: C_5  and  C_25
REMARK    4  A    between atoms: C_8  and  C_13
REMARK    5  A    between atoms: C_25  and  O_26
REMARK                            x       y       z     vdW  Elec       q    Type
REMARK                         _______ _______ _______ _____ _____    ______ ____
ROOT
ATOM      1  C   UNL     1      36.428 -23.587 -15.310  0.00  0.00    +0.000 C 
ATOM      2  C   UNL     1      37.712 -24.129 -15.344  0.00  0.00    +0.005 C 
ATOM      3  C   UNL     1      35.647 -23.718 -14.162  0.00  0.00    +0.006 C 
ATOM      4  C   UNL     1      38.217 -24.799 -14.230  0.00  0.00    +0.053 C 
ATOM      5  C   UNL     1      36.150 -24.389 -13.048  0.00  0.00    +0.076 C 
ATOM      6  C   UNL     1      37.436 -24.929 -13.082  0.00  0.00    +0.011 C 
ENDROOT
BRANCH   1   7
ATOM      7  C   UNL     1      35.904 -22.892 -16.466  0.00  0.00    +0.000 C 
ATOM      8  C   UNL     1      34.894 -21.552 -18.695  0.00  0.00    +0.000 C 
ATOM      9  C   UNL     1      34.564 -23.042 -16.821  0.00  0.00    +0.000 C 
ATOM     10  C   UNL     1      36.740 -22.072 -17.224  0.00  0.00    +0.000 C 
ATOM     11  C   UNL     1      34.059 -22.372 -17.936  0.00  0.00    +0.000 C 
ATOM     12  C   UNL     1      36.235 -21.403 -18.339  0.00  0.00    +0.000 C 
BRANCH   8  13
ATOM     13  C   UNL     1      34.371 -20.858 -19.852  0.00  0.00    +0.000 C 
ATOM     14  C   UNL     1      32.994 -20.773 -20.052  0.00  0.00    +0.000 C 
ATOM     15  C   UNL     1      35.246 -20.273 -20.767  0.00  0.00    +0.000 C 
ATOM     16  C   UNL     1      32.491 -20.103 -21.167  0.00  0.00    +0.000 C 
ATOM     17  C   UNL     1      34.744 -19.603 -21.882  0.00  0.00    +0.000 C 
ATOM     18  C   UNL     1      33.366 -19.518 -22.083  0.00  0.00    +0.000 C 
ENDBRANCH   8  13
ENDBRANCH   1   7
BRANCH   4  21
ATOM     19  O   UNL     1      40.567 -24.639 -14.199  0.00  0.00    -0.270 OA
ATOM     20  N   UNL     1      39.676 -26.747 -14.359  0.00  0.00    -0.325 N 
ATOM     21  C   UNL     1      39.557 -25.363 -14.266  0.00  0.00    +0.243 C 
ATOM     22  H   UNL     1      40.567 -27.164 -14.387  0.00  0.00    +0.145 HD
ATOM     23  H   UNL     1      38.868 -27.308 -14.398  0.00  0.00    +0.145 HD
ENDBRANCH   4  21
BRANCH   5  25
ATOM     24  O   UNL     1      35.603 -25.238 -10.879  0.00  0.00    -0.245 OA
ATOM     25  C   UNL     1      35.335 -24.525 -11.851  0.00  0.00    +0.338 C 
BRANCH  25  26
ATOM     26  O   UNL     1      34.208 -23.763 -11.901  0.00  0.00    -0.477 OA
ATOM     27  H   UNL     1      34.232 -22.914 -12.294  0.00  0.00    +0.295 HD
ENDBRANCH  25  26
ENDBRANCH   5  25
TORSDOF 5
ENDMDL
MODEL 2
REMARK VINA RESULT:     -11.0      3.232      5.340
REMARK  Name = 5287459
REMARK  5 active torsions:
REMARK  status: ('A' for Active; 'I' for Inactive)
REMARK    1  A    between atoms: C_1  and  C_7
REMARK    2  A    between atoms: C_4  and  C_21
REMARK    3  A    between atoms: C_5  and  C_25
REMARK    4  A    between atoms: C_8  and  C_13
REMARK    5  A    between atoms: C_25  and  O_26
REMARK                            x       y       z     vdW  Elec       q    Type
REMARK                         _______ _______ _______ _____ _____    ______ ____
ROOT
ATOM      1  C   UNL     1      33.168 -22.463 -17.778  0.00  0.00    +0.000 C 
ATOM      2  C   UNL     1      31.851 -22.724 -17.404  0.00  0.00    +0.005 C 
ATOM      3  C   UNL     1      34.222 -23.024 -17.058  0.00  0.00    +0.006 C 
ATOM      4  C   UNL     1      31.587 -23.549 -16.310  0.00  0.00    +0.053 C 
ATOM      5  C   UNL     1      33.959 -23.848 -15.963  0.00  0.00    +0.076 C 
ATOM      6  C   UNL     1      32.640 -24.110 -15.590  0.00  0.00    +0.011 C 
ENDROOT
BRANCH   1   7
ATOM      7  C   UNL     1      33.442 -21.607 -18.912  0.00  0.00    +0.000 C 
ATOM      8  C   UNL     1      33.971 -19.958 -21.099  0.00  0.00    +0.000 C 
ATOM      9  C   UNL     1      34.754 -21.432 -19.352  0.00  0.00    +0.000 C 
ATOM     10  C   UNL     1      32.394 -20.959 -19.566  0.00  0.00    +0.000 C 
ATOM     11  C   UNL     1      35.019 -20.606 -20.446  0.00  0.00    +0.000 C 
ATOM     12  C   UNL     1      32.659 -20.134 -20.659  0.00  0.00    +0.000 C 
BRANCH   8  13
ATOM     13  C   UNL     1      34.245 -19.101 -22.233  0.00  0.00    +0.000 C 
ATOM     14  C   UNL     1      34.047 -19.575 -23.529  0.00  0.00    +0.000 C 
ATOM     15  C   UNL     1      34.706 -17.802 -22.028  0.00  0.00    +0.000 C 
ATOM     16  C   UNL     1      34.310 -18.748 -24.622  0.00  0.00    +0.000 C 
ATOM     17  C   UNL     1      34.970 -16.975 -23.120  0.00  0.00    +0.000 C 
ATOM     18  C   UNL     1      34.772 -17.447 -24.417  0.00  0.00    +0.000 C 
ENDBRANCH   8  13
ENDBRANCH   1   7
BRANCH   4  21
ATOM     19  O   UNL     1      29.291 -23.033 -16.199  0.00  0.00    -0.270 OA
ATOM     20  N   UNL     1      29.955 -25.006 -15.235  0.00  0.00    -0.325 N 
ATOM     21  C   UNL     1      30.212 -23.822 -15.920  0.00  0.00    +0.243 C 
ATOM     22  H   UNL     1      29.037 -25.223 -14.955  0.00  0.00    +0.145 HD
ATOM     23  H   UNL     1      30.692 -25.626 -15.032  0.00  0.00    +0.145 HD
ENDBRANCH   4  21
BRANCH   5  25
ATOM     24  O   UNL     1      36.241 -24.445 -15.566  0.00  0.00    -0.245 OA
ATOM     25  C   UNL     1      35.058 -24.434 -15.213  0.00  0.00    +0.338 C 
BRANCH  25  26
ATOM     26  O   UNL     1      34.648 -24.989 -14.039  0.00  0.00    -0.477 OA
ATOM     27  H   UNL     1      35.164 -25.655 -13.630  0.00  0.00    +0.295 HD
ENDBRANCH  25  26
ENDBRANCH   5  25
TORSDOF 5
ENDMDL
MODEL 3
REMARK VINA RESULT:     -11.0      3.311      5.458
REMARK  Name = 5287459
REMARK  5 active torsions:
REMARK  status: ('A' for Active; 'I' for Inactive)
REMARK    1  A    between atoms: C_1  and  C_7
REMARK    2  A    between atoms: C_4  and  C_21
REMARK    3  A    between atoms: C_5  and  C_25
REMARK    4  A    between atoms: C_8  and  C_13
REMARK    5  A    between atoms: C_25  and  O_26
REMARK                            x       y       z     vdW  Elec       q    Type
REMARK                         _______ _______ _______ _____ _____    ______ ____
ROOT
ATOM      1  C   UNL     1      33.604 -22.034 -18.299  0.00  0.00    +0.000 C 
ATOM      2  C   UNL     1      32.332 -22.408 -17.870  0.00  0.00    +0.005 C 
ATOM      3  C   UNL     1      34.731 -22.460 -17.597  0.00  0.00    +0.006 C 
ATOM      4  C   UNL     1      32.186 -23.211 -16.738  0.00  0.00    +0.053 C 
ATOM      5  C   UNL     1      34.586 -23.262 -16.465  0.00  0.00    +0.076 C 
ATOM      6  C   UNL     1      33.312 -23.637 -16.036  0.00  0.00    +0.011 C 
ENDROOT
BRANCH   1   7
ATOM      7  C   UNL     1      33.756 -21.201 -19.473  0.00  0.00    +0.000 C 
ATOM      8  C   UNL     1      34.046 -19.596 -21.737  0.00  0.00    +0.000 C 
ATOM      9  C   UNL     1      32.628 -20.677 -20.107  0.00  0.00    +0.000 C 
ATOM     10  C   UNL     1      35.028 -20.922 -19.971  0.00  0.00    +0.000 C 
ATOM     11  C   UNL     1      32.774 -19.875 -21.239  0.00  0.00    +0.000 C 
ATOM     12  C   UNL     1      35.174 -20.120 -21.103  0.00  0.00    +0.000 C 
BRANCH   8  13
ATOM     13  C   UNL     1      34.198 -18.765 -22.911  0.00  0.00    +0.000 C 
ATOM     14  C   UNL     1      34.609 -17.439 -22.779  0.00  0.00    +0.000 C 
ATOM     15  C   UNL     1      33.933 -19.290 -24.175  0.00  0.00    +0.000 C 
ATOM     16  C   UNL     1      34.756 -16.638 -23.912  0.00  0.00    +0.000 C 
ATOM     17  C   UNL     1      34.080 -18.490 -25.308  0.00  0.00    +0.000 C 
ATOM     18  C   UNL     1      34.491 -17.164 -25.177  0.00  0.00    +0.000 C 
ENDBRANCH   8  13
ENDBRANCH   1   7
BRANCH   4  21
ATOM     19  O   UNL     1      30.696 -24.536 -15.485  0.00  0.00    -0.270 OA
ATOM     20  N   UNL     1      29.771 -22.883 -16.779  0.00  0.00    -0.325 N 
ATOM     21  C   UNL     1      30.859 -23.602 -16.290  0.00  0.00    +0.243 C 
ATOM     22  H   UNL     1      28.858 -23.120 -16.498  0.00  0.00    +0.145 HD
ATOM     23  H   UNL     1      29.916 -22.138 -17.406  0.00  0.00    +0.145 HD
ENDBRANCH   4  21
BRANCH   5  25
ATOM     24  O   UNL     1      36.670 -22.976 -15.326  0.00  0.00    -0.245 OA
ATOM     25  C   UNL     1      35.761 -23.706 -15.732  0.00  0.00    +0.338 C 
BRANCH  25  26
ATOM     26  O   UNL     1      35.767 -25.052 -15.527  0.00  0.00    -0.477 OA
ATOM     27  H   UNL     1      36.272 -25.610 -16.086  0.00  0.00    +0.295 HD
ENDBRANCH  25  26
ENDBRANCH   5  25
TORSDOF 5
ENDMDL
MODEL 4
REMARK VINA RESULT:     -10.9      8.663     12.880
REMARK  Name = 5287459
REMARK  5 active torsions:
REMARK  status: ('A' for Active; 'I' for Inactive)
REMARK    1  A    between atoms: C_1  and  C_7
REMARK    2  A    between atoms: C_4  and  C_21
REMARK    3  A    between atoms: C_5  and  C_25
REMARK    4  A    between atoms: C_8  and  C_13
REMARK    5  A    between atoms: C_25  and  O_26
REMARK                            x       y       z     vdW  Elec       q    Type
REMARK                         _______ _______ _______ _____ _____    ______ ____
ROOT
ATOM      1  C   UNL     1      33.751 -15.159 -24.134  0.00  0.00    +0.000 C 
ATOM      2  C   UNL     1      33.863 -13.863 -23.633  0.00  0.00    +0.005 C 
ATOM      3  C   UNL     1      33.340 -15.364 -25.451  0.00  0.00    +0.006 C 
ATOM      4  C   UNL     1      33.566 -12.771 -24.449  0.00  0.00    +0.053 C 
ATOM      5  C   UNL     1      33.042 -14.273 -26.267  0.00  0.00    +0.076 C 
ATOM      6  C   UNL     1      33.156 -12.977 -25.765  0.00  0.00    +0.011 C 
ENDROOT
BRANCH   1   7
ATOM      7  C   UNL     1      34.059 -16.292 -23.288  0.00  0.00    +0.000 C 
ATOM      8  C   UNL     1      34.652 -18.476 -21.657  0.00  0.00    +0.000 C 
ATOM      9  C   UNL     1      33.833 -17.589 -23.749  0.00  0.00    +0.000 C 
ATOM     10  C   UNL     1      34.582 -16.087 -22.011  0.00  0.00    +0.000 C 
ATOM     11  C   UNL     1      34.129 -18.681 -22.933  0.00  0.00    +0.000 C 
ATOM     12  C   UNL     1      34.878 -17.179 -21.195  0.00  0.00    +0.000 C 
BRANCH   8  13
ATOM     13  C   UNL     1      34.959 -19.608 -20.809  0.00  0.00    +0.000 C 
ATOM     14  C   UNL     1      36.280 -19.874 -20.451  0.00  0.00    +0.000 C 
ATOM     15  C   UNL     1      33.932 -20.433 -20.351  0.00  0.00    +0.000 C 
ATOM     16  C   UNL     1      36.575 -20.965 -19.634  0.00  0.00    +0.000 C 
ATOM     17  C   UNL     1      34.227 -21.524 -19.534  0.00  0.00    +0.000 C 
ATOM     18  C   UNL     1      35.548 -21.791 -19.175  0.00  0.00    +0.000 C 
ENDBRANCH   8  13
ENDBRANCH   1   7
BRANCH   4  21
ATOM     19  O   UNL     1      32.805 -10.931 -23.191  0.00  0.00    -0.270 OA
ATOM     20  N   UNL     1      34.821 -10.690 -24.260  0.00  0.00    -0.325 N 
ATOM     21  C   UNL     1      33.683 -11.419 -23.926  0.00  0.00    +0.243 C 
ATOM     22  H   UNL     1      34.933  -9.772 -23.924  0.00  0.00    +0.145 HD
ATOM     23  H   UNL     1      35.513 -11.094 -24.832  0.00  0.00    +0.145 HD
ENDBRANCH   4  21
BRANCH   5  25
ATOM     24  O   UNL     1      32.732 -15.543 -28.271  0.00  0.00    -0.245 OA
ATOM     25  C   UNL     1      32.614 -14.488 -27.640  0.00  0.00    +0.338 C 
BRANCH  25  26
ATOM     26  O   UNL     1      32.049 -13.376 -28.188  0.00  0.00    -0.477 OA
ATOM     27  H   UNL     1      32.191 -12.537 -27.797  0.00  0.00    +0.295 HD
ENDBRANCH  25  26
ENDBRANCH   5  25
TORSDOF 5
ENDMDL
MODEL 5
REMARK VINA RESULT:     -10.8      8.634     12.732
REMARK  Name = 5287459
REMARK  5 active torsions:
REMARK  status: ('A' for Active; 'I' for Inactive)
REMARK    1  A    between atoms: C_1  and  C_7
REMARK    2  A    between atoms: C_4  and  C_21
REMARK    3  A    between atoms: C_5  and  C_25
REMARK    4  A    between atoms: C_8  and  C_13
REMARK    5  A    between atoms: C_25  and  O_26
REMARK                            x       y       z     vdW  Elec       q    Type
REMARK                         _______ _______ _______ _____ _____    ______ ____
ROOT
ATOM      1  C   UNL     1      33.745 -15.169 -24.092  0.00  0.00    +0.000 C 
ATOM      2  C   UNL     1      33.299 -15.373 -25.397  0.00  0.00    +0.005 C 
ATOM      3  C   UNL     1      33.890 -13.874 -23.598  0.00  0.00    +0.006 C 
ATOM      4  C   UNL     1      32.996 -14.279 -26.209  0.00  0.00    +0.053 C 
ATOM      5  C   UNL     1      33.589 -12.780 -24.410  0.00  0.00    +0.076 C 
ATOM      6  C   UNL     1      33.142 -12.984 -25.716  0.00  0.00    +0.011 C 
ENDROOT
BRANCH   1   7
ATOM      7  C   UNL     1      34.058 -16.304 -23.249  0.00  0.00    +0.000 C 
ATOM      8  C   UNL     1      34.662 -18.491 -21.626  0.00  0.00    +0.000 C 
ATOM      9  C   UNL     1      33.846 -17.600 -23.718  0.00  0.00    +0.000 C 
ATOM     10  C   UNL     1      34.574 -16.101 -21.969  0.00  0.00    +0.000 C 
ATOM     11  C   UNL     1      34.147 -18.694 -22.906  0.00  0.00    +0.000 C 
ATOM     12  C   UNL     1      34.875 -17.194 -21.157  0.00  0.00    +0.000 C 
BRANCH   8  13
ATOM     13  C   UNL     1      34.975 -19.625 -20.783  0.00  0.00    +0.000 C 
ATOM     14  C   UNL     1      33.953 -20.453 -20.321  0.00  0.00    +0.000 C 
ATOM     15  C   UNL     1      36.299 -19.888 -20.434  0.00  0.00    +0.000 C 
ATOM     16  C   UNL     1      34.255 -21.547 -19.509  0.00  0.00    +0.000 C 
ATOM     17  C   UNL     1      36.602 -20.981 -19.621  0.00  0.00    +0.000 C 
ATOM     18  C   UNL     1      35.580 -21.811 -19.158  0.00  0.00    +0.000 C 
ENDBRANCH   8  13
ENDBRANCH   1   7
BRANCH   4  21
ATOM     19  O   UNL     1      32.879 -15.491 -28.225  0.00  0.00    -0.270 OA
ATOM     20  N   UNL     1      31.668 -13.546 -28.116  0.00  0.00    -0.325 N 
ATOM     21  C   UNL     1      32.531 -14.492 -27.570  0.00  0.00    +0.243 C 
ATOM     22  H   UNL     1      31.333 -13.657 -29.035  0.00  0.00    +0.145 HD
ATOM     23  H   UNL     1      31.391 -12.767 -27.582  0.00  0.00    +0.145 HD
ENDBRANCH   4  21
BRANCH   5  25
ATOM     24  O   UNL     1      32.902 -10.819 -23.223  0.00  0.00    -0.245 OA
ATOM     25  C   UNL     1      33.740 -11.428 -23.895  0.00  0.00    +0.338 C 
BRANCH  25  26
ATOM     26  O   UNL     1      34.937 -10.874 -24.235  0.00  0.00    -0.477 OA
ATOM     27  H   UNL     1      35.325 -10.223 -23.685  0.00  0.00    +0.295 HD
ENDBRANCH  25  26
ENDBRANCH   5  25
TORSDOF 5
ENDMDL
MODEL 6
REMARK VINA RESULT:     -10.3      4.344      5.800
REMARK  Name = 5287459
REMARK  5 active torsions:
REMARK  status: ('A' for Active; 'I' for Inactive)
REMARK    1  A    between atoms: C_1  and  C_7
REMARK    2  A    between atoms: C_4  and  C_21
REMARK    3  A    between atoms: C_5  and  C_25
REMARK    4  A    between atoms: C_8  and  C_13
REMARK    5  A    between atoms: C_25  and  O_26
REMARK                            x       y       z     vdW  Elec       q    Type
REMARK                         _______ _______ _______ _____ _____    ______ ____
ROOT
ATOM      1  C   UNL     1      34.058 -23.574 -14.552  0.00  0.00    +0.000 C 
ATOM      2  C   UNL     1      34.355 -24.139 -13.313  0.00  0.00    +0.005 C 
ATOM      3  C   UNL     1      35.088 -23.214 -15.420  0.00  0.00    +0.006 C 
ATOM      4  C   UNL     1      35.684 -24.347 -12.941  0.00  0.00    +0.053 C 
ATOM      5  C   UNL     1      36.417 -23.421 -15.049  0.00  0.00    +0.076 C 
ATOM      6  C   UNL     1      36.714 -23.988 -13.809  0.00  0.00    +0.011 C 
ENDROOT
BRANCH   1   7
ATOM      7  C   UNL     1      32.680 -23.358 -14.937  0.00  0.00    +0.000 C 
ATOM      8  C   UNL     1      30.022 -22.943 -15.678  0.00  0.00    +0.000 C 
ATOM      9  C   UNL     1      31.684 -23.304 -13.962  0.00  0.00    +0.000 C 
ATOM     10  C   UNL     1      32.347 -23.205 -16.283  0.00  0.00    +0.000 C 
ATOM     11  C   UNL     1      30.355 -23.097 -14.332  0.00  0.00    +0.000 C 
ATOM     12  C   UNL     1      31.019 -22.998 -16.654  0.00  0.00    +0.000 C 
BRANCH   8  13
ATOM     13  C   UNL     1      28.644 -22.729 -16.064  0.00  0.00    +0.000 C 
ATOM     14  C   UNL     1      28.229 -23.024 -17.361  0.00  0.00    +0.000 C 
ATOM     15  C   UNL     1      27.732 -22.227 -15.136  0.00  0.00    +0.000 C 
ATOM     16  C   UNL     1      26.900 -22.818 -17.732  0.00  0.00    +0.000 C 
ATOM     17  C   UNL     1      26.403 -22.021 -15.506  0.00  0.00    +0.000 C 
ATOM     18  C   UNL     1      25.986 -22.316 -16.804  0.00  0.00    +0.000 C 
ENDBRANCH   8  13
ENDBRANCH   1   7
BRANCH   4  21
ATOM     19  O   UNL     1      36.399 -26.109 -11.552  0.00  0.00    -0.270 OA
ATOM     20  N   UNL     1      35.839 -24.140 -10.518  0.00  0.00    -0.325 N 
ATOM     21  C   UNL     1      35.994 -24.937 -11.649  0.00  0.00    +0.243 C 
ATOM     22  H   UNL     1      36.039 -24.506  -9.626  0.00  0.00    +0.145 HD
ATOM     23  H   UNL     1      35.530 -23.210 -10.611  0.00  0.00    +0.145 HD
ENDBRANCH   4  21
BRANCH   5  25
ATOM     24  O   UNL     1      37.427 -22.166 -16.818  0.00  0.00    -0.245 OA
ATOM     25  C   UNL     1      37.492 -23.046 -15.954  0.00  0.00    +0.338 C 
BRANCH  25  26
ATOM     26  O   UNL     1      38.621 -23.781 -15.753  0.00  0.00    -0.477 OA
ATOM     27  H   UNL     1      39.013 -24.243 -16.467  0.00  0.00    +0.295 HD
ENDBRANCH  25  26
ENDBRANCH   5  25
TORSDOF 5
ENDMDL
MODEL 7
REMARK VINA RESULT:     -10.2      9.271     13.507
REMARK  Name = 5287459
REMARK  5 active torsions:
REMARK  status: ('A' for Active; 'I' for Inactive)
REMARK    1  A    between atoms: C_1  and  C_7
REMARK    2  A    between atoms: C_4  and  C_21
REMARK    3  A    between atoms: C_5  and  C_25
REMARK    4  A    between atoms: C_8  and  C_13
REMARK    5  A    between atoms: C_25  and  O_26
REMARK                            x       y       z     vdW  Elec       q    Type
REMARK                         _______ _______ _______ _____ _____    ______ ____
ROOT
ATOM      1  C   UNL     1      33.670 -13.979 -24.072  0.00  0.00    +0.000 C 
ATOM      2  C   UNL     1      33.394 -12.809 -23.365  0.00  0.00    +0.005 C 
ATOM      3  C   UNL     1      33.625 -13.979 -25.466  0.00  0.00    +0.006 C 
ATOM      4  C   UNL     1      33.075 -11.638 -24.053  0.00  0.00    +0.053 C 
ATOM      5  C   UNL     1      33.305 -12.809 -26.154  0.00  0.00    +0.076 C 
ATOM      6  C   UNL     1      33.030 -11.638 -25.446  0.00  0.00    +0.011 C 
ENDROOT
BRANCH   1   7
ATOM      7  C   UNL     1      34.001 -15.194 -23.359  0.00  0.00    +0.000 C 
ATOM      8  C   UNL     1      34.639 -17.536 -21.983  0.00  0.00    +0.000 C 
ATOM      9  C   UNL     1      34.353 -15.137 -22.010  0.00  0.00    +0.000 C 
ATOM     10  C   UNL     1      33.967 -16.422 -24.020  0.00  0.00    +0.000 C 
ATOM     11  C   UNL     1      34.672 -16.308 -21.323  0.00  0.00    +0.000 C 
ATOM     12  C   UNL     1      34.287 -17.593 -23.332  0.00  0.00    +0.000 C 
BRANCH   8  13
ATOM     13  C   UNL     1      34.971 -18.751 -21.271  0.00  0.00    +0.000 C 
ATOM     14  C   UNL     1      33.960 -19.625 -20.872  0.00  0.00    +0.000 C 
ATOM     15  C   UNL     1      36.303 -19.048 -20.984  0.00  0.00    +0.000 C 
ATOM     16  C   UNL     1      34.281 -20.797 -20.186  0.00  0.00    +0.000 C 
ATOM     17  C   UNL     1      36.624 -20.219 -20.298  0.00  0.00    +0.000 C 
ATOM     18  C   UNL     1      35.614 -21.094 -19.899  0.00  0.00    +0.000 C 
ENDBRANCH   8  13
ENDBRANCH   1   7
BRANCH   4  21
ATOM     19  O   UNL     1      31.960 -10.402 -22.387  0.00  0.00    -0.270 OA
ATOM     20  N   UNL     1      33.483  -9.266 -23.671  0.00  0.00    -0.325 N 
ATOM     21  C   UNL     1      32.788 -10.418 -23.316  0.00  0.00    +0.243 C 
ATOM     22  H   UNL     1      33.314  -8.421 -23.195  0.00  0.00    +0.145 HD
ATOM     23  H   UNL     1      34.144  -9.296 -24.400  0.00  0.00    +0.145 HD
ENDBRANCH   4  21
BRANCH   5  25
ATOM     24  O   UNL     1      34.215 -13.035 -28.355  0.00  0.00    -0.245 OA
ATOM     25  C   UNL     1      33.258 -12.809 -27.607  0.00  0.00    +0.338 C 
BRANCH  25  26
ATOM     26  O   UNL     1      32.016 -12.527 -28.087  0.00  0.00    -0.477 OA
ATOM     27  H   UNL     1      31.917 -12.137 -28.933  0.00  0.00    +0.295 HD
ENDBRANCH  25  26
ENDBRANCH   5  25
TORSDOF 5
ENDMDL
MODEL 8
REMARK VINA RESULT:     -10.0      9.740     13.495
REMARK  Name = 5287459
REMARK  5 active torsions:
REMARK  status: ('A' for Active; 'I' for Inactive)
REMARK    1  A    between atoms: C_1  and  C_7
REMARK    2  A    between atoms: C_4  and  C_21
REMARK    3  A    between atoms: C_5  and  C_25
REMARK    4  A    between atoms: C_8  and  C_13
REMARK    5  A    between atoms: C_25  and  O_26
REMARK                            x       y       z     vdW  Elec       q    Type
REMARK                         _______ _______ _______ _____ _____    ______ ____
ROOT
ATOM      1  C   UNL     1      33.539 -14.240 -23.684  0.00  0.00    +0.000 C 
ATOM      2  C   UNL     1      34.174 -14.984 -22.690  0.00  0.00    +0.005 C 
ATOM      3  C   UNL     1      33.263 -14.821 -24.921  0.00  0.00    +0.006 C 
ATOM      4  C   UNL     1      34.531 -16.311 -22.933  0.00  0.00    +0.053 C 
ATOM      5  C   UNL     1      33.620 -16.147 -25.165  0.00  0.00    +0.076 C 
ATOM      6  C   UNL     1      34.255 -16.891 -24.170  0.00  0.00    +0.011 C 
ENDROOT
BRANCH   1   7
ATOM      7  C   UNL     1      33.169 -12.864 -23.432  0.00  0.00    +0.000 C 
ATOM      8  C   UNL     1      32.456 -10.211 -22.946  0.00  0.00    +0.000 C 
ATOM      9  C   UNL     1      33.752 -11.837 -24.176  0.00  0.00    +0.000 C 
ATOM     10  C   UNL     1      32.229 -12.564 -22.446  0.00  0.00    +0.000 C 
ATOM     11  C   UNL     1      33.396 -10.511 -23.932  0.00  0.00    +0.000 C 
ATOM     12  C   UNL     1      31.873 -11.237 -22.202  0.00  0.00    +0.000 C 
BRANCH   8  13
ATOM     13  C   UNL     1      32.086  -8.835 -22.693  0.00  0.00    +0.000 C 
ATOM     14  C   UNL     1      30.815  -8.378 -23.040  0.00  0.00    +0.000 C 
ATOM     15  C   UNL     1      33.002  -7.966 -22.101  0.00  0.00    +0.000 C 
ATOM     16  C   UNL     1      30.459  -7.052 -22.795  0.00  0.00    +0.000 C 
ATOM     17  C   UNL     1      32.647  -6.639 -21.856  0.00  0.00    +0.000 C 
ATOM     18  C   UNL     1      31.376  -6.181 -22.203  0.00  0.00    +0.000 C 
ENDBRANCH   8  13
ENDBRANCH   1   7
BRANCH   4  21
ATOM     19  O   UNL     1      34.935 -16.913 -20.692  0.00  0.00    -0.270 OA
ATOM     20  N   UNL     1      36.117 -18.048 -22.296  0.00  0.00    -0.325 N 
ATOM     21  C   UNL     1      35.193 -17.087 -21.897  0.00  0.00    +0.243 C 
ATOM     22  H   UNL     1      36.586 -18.592 -21.622  0.00  0.00    +0.145 HD
ATOM     23  H   UNL     1      36.303 -18.184 -23.254  0.00  0.00    +0.145 HD
ENDBRANCH   4  21
BRANCH   5  25
ATOM     24  O   UNL     1      32.910 -16.153 -27.449  0.00  0.00    -0.245 OA
ATOM     25  C   UNL     1      33.332 -16.752 -26.455  0.00  0.00    +0.338 C 
BRANCH  25  26
ATOM     26  O   UNL     1      33.580 -18.091 -26.468  0.00  0.00    -0.477 OA
ATOM     27  H   UNL     1      32.977 -18.676 -26.882  0.00  0.00    +0.295 HD
ENDBRANCH  25  26
ENDBRANCH   5  25
TORSDOF 5
ENDMDL
MODEL 9
REMARK VINA RESULT:      -9.9      9.205     13.365
REMARK  Name = 5287459
REMARK  5 active torsions:
REMARK  status: ('A' for Active; 'I' for Inactive)
REMARK    1  A    between atoms: C_1  and  C_7
REMARK    2  A    between atoms: C_4  and  C_21
REMARK    3  A    between atoms: C_5  and  C_25
REMARK    4  A    between atoms: C_8  and  C_13
REMARK    5  A    between atoms: C_25  and  O_26
REMARK                            x       y       z     vdW  Elec       q    Type
REMARK                         _______ _______ _______ _____ _____    ______ ____
ROOT
ATOM      1  C   UNL     1      33.674 -13.851 -24.026  0.00  0.00    +0.000 C 
ATOM      2  C   UNL     1      33.651 -13.822 -25.420  0.00  0.00    +0.005 C 
ATOM      3  C   UNL     1      33.382 -12.697 -23.300  0.00  0.00    +0.006 C 
ATOM      4  C   UNL     1      33.334 -12.640 -26.089  0.00  0.00    +0.053 C 
ATOM      5  C   UNL     1      33.065 -11.513 -23.968  0.00  0.00    +0.076 C 
ATOM      6  C   UNL     1      33.041 -11.486 -25.363  0.00  0.00    +0.011 C 
ENDROOT
BRANCH   1   7
ATOM      7  C   UNL     1      34.004 -15.077 -23.333  0.00  0.00    +0.000 C 
ATOM      8  C   UNL     1      34.638 -17.443 -21.997  0.00  0.00    +0.000 C 
ATOM      9  C   UNL     1      33.982 -16.293 -24.018  0.00  0.00    +0.000 C 
ATOM     10  C   UNL     1      34.343 -15.044 -21.980  0.00  0.00    +0.000 C 
ATOM     11  C   UNL     1      34.299 -17.475 -23.349  0.00  0.00    +0.000 C 
ATOM     12  C   UNL     1      34.660 -16.227 -21.312  0.00  0.00    +0.000 C 
BRANCH   8  13
ATOM     13  C   UNL     1      34.967 -18.669 -21.303  0.00  0.00    +0.000 C 
ATOM     14  C   UNL     1      36.295 -18.967 -21.001  0.00  0.00    +0.000 C 
ATOM     15  C   UNL     1      33.953 -19.554 -20.935  0.00  0.00    +0.000 C 
ATOM     16  C   UNL     1      36.611 -20.149 -20.331  0.00  0.00    +0.000 C 
ATOM     17  C   UNL     1      34.268 -20.736 -20.266  0.00  0.00    +0.000 C 
ATOM     18  C   UNL     1      35.597 -21.035 -19.964  0.00  0.00    +0.000 C 
ENDBRANCH   8  13
ENDBRANCH   1   7
BRANCH   4  21
ATOM     19  O   UNL     1      32.237 -12.626 -28.173  0.00  0.00    -0.270 OA
ATOM     20  N   UNL     1      34.529 -12.546 -28.210  0.00  0.00    -0.325 N 
ATOM     21  C   UNL     1      33.309 -12.610 -27.542  0.00  0.00    +0.243 C 
ATOM     22  H   UNL     1      34.551 -12.526 -29.195  0.00  0.00    +0.145 HD
ATOM     23  H   UNL     1      35.369 -12.522 -27.698  0.00  0.00    +0.145 HD
ENDBRANCH   4  21
BRANCH   5  25
ATOM     24  O   UNL     1      33.323  -9.218 -23.344  0.00  0.00    -0.245 OA
ATOM     25  C   UNL     1      32.761 -10.310 -23.211  0.00  0.00    +0.338 C 
BRANCH  25  26
ATOM     26  O   UNL     1      31.759 -10.503 -22.309  0.00  0.00    -0.477 OA
ATOM     27  H   UNL     1      31.275 -11.305 -22.310  0.00  0.00    +0.295 HD
ENDBRANCH  25  26
ENDBRANCH   5  25
TORSDOF 5
ENDMDL
