MODEL 1
REMARK VINA RESULT:     -13.8      0.000      0.000
REMARK  Name = 448408
REMARK  8 active torsions:
REMARK  status: ('A' for Active; 'I' for Inactive)
REMARK    1  A    between atoms: N_2  and  C_25
REMARK    2  A    between atoms: C_3  and  C_6
REMARK    3  A    between atoms: C_5  and  N_12
REMARK    4  A    between atoms: C_25  and  C_26
REMARK    5  A    between atoms: C_27  and  S_32
REMARK    6  A    between atoms: S_32  and  C_33
REMARK    7  A    between atoms: C_34  and  C_39
REMARK    8  A    between atoms: C_39  and  O_40
REMARK                            x       y       z     vdW  Elec       q    Type
REMARK                         _______ _______ _______ _____ _____    ______ ____
ROOT
ATOM      1  O   UNL     1      32.991 -19.790 -21.775  0.00  0.00    -0.270 OA
ATOM      2  N   UNL     1      35.205 -19.373 -22.323  0.00  0.00    -0.297 N 
ATOM      3  C   UNL     1      34.201 -19.922 -21.517  0.00  0.00    +0.246 C 
ATOM      4  H   UNL     1      36.143 -19.515 -22.060  0.00  0.00    +0.150 HD
ENDROOT
BRANCH   3   6
ATOM      5  C   UNL     1      34.110 -22.120 -18.465  0.00  0.00    +0.090 C 
ATOM      6  C   UNL     1      34.629 -20.645 -20.330  0.00  0.00    +0.055 C 
ATOM      7  C   UNL     1      33.712 -21.415 -19.614  0.00  0.00    +0.023 C 
ATOM      8  C   UNL     1      35.450 -22.032 -18.053  0.00  0.00    +0.018 C 
ATOM      9  C   UNL     1      35.957 -20.569 -19.908  0.00  0.00    +0.005 C 
ATOM     10  C   UNL     1      36.367 -21.262 -18.770  0.00  0.00    +0.002 C 
BRANCH   5  12
ATOM     11  O   UNL     1      29.106 -22.445 -17.107  0.00  0.00    -0.207 OA
ATOM     12  N   UNL     1      33.197 -22.888 -17.751  0.00  0.00    -0.137 N 
ATOM     13  N   UNL     1      33.466 -23.523 -16.580  0.00  0.00    -0.215 N 
ATOM     14  N   UNL     1      31.843 -22.580 -17.862  0.00  0.00    -0.143 NA
ATOM     15  N   UNL     1      31.927 -24.142 -14.766  0.00  0.00    -0.309 NA
ATOM     16  N   UNL     1      29.620 -23.532 -15.125  0.00  0.00    -0.251 NA
ATOM     17  N   UNL     1      30.248 -24.619 -13.183  0.00  0.00    -0.283 N 
ATOM     18  C   UNL     1      32.307 -23.653 -15.887  0.00  0.00    +0.243 C 
ATOM     19  C   UNL     1      31.310 -23.026 -16.768  0.00  0.00    +0.241 C 
ATOM     20  C   UNL     1      29.905 -22.974 -16.349  0.00  0.00    +0.239 C 
ATOM     21  C   UNL     1      30.580 -24.072 -14.401  0.00  0.00    +0.208 C 
ATOM     22  H   UNL     1      34.352 -23.835 -16.285  0.00  0.00    +0.175 HD
ATOM     23  H   UNL     1      30.943 -25.031 -12.620  0.00  0.00    +0.156 HD
ATOM     24  H   UNL     1      29.313 -24.600 -12.873  0.00  0.00    +0.156 HD
ENDBRANCH   5  12
ENDBRANCH   3   6
BRANCH   2  25
ATOM     25  C   UNL     1      34.939 -18.607 -23.520  0.00  0.00    +0.117 C 
BRANCH  25  26
ATOM     26  C   UNL     1      34.678 -17.161 -23.215  0.00  0.00    +0.003 C 
ATOM     27  C   UNL     1      34.376 -16.243 -24.217  0.00  0.00    +0.027 C 
ATOM     28  C   UNL     1      34.748 -16.755 -21.885  0.00  0.00    -0.002 C 
ATOM     29  C   UNL     1      34.142 -14.909 -23.886  0.00  0.00    +0.006 C 
ATOM     30  C   UNL     1      34.513 -15.421 -21.555  0.00  0.00    -0.000 C 
ATOM     31  C   UNL     1      34.210 -14.498 -22.554  0.00  0.00    +0.000 C 
BRANCH  27  32
ATOM     32  S   UNL     1      34.277 -16.720 -25.937  0.00  0.00    -0.087 S 
BRANCH  32  33
ATOM     33  C   UNL     1      33.172 -15.470 -26.576  0.00  0.00    +0.028 C 
ATOM     34  C   UNL     1      31.914 -15.794 -27.087  0.00  0.00    +0.013 C 
ATOM     35  C   UNL     1      33.594 -14.140 -26.558  0.00  0.00    +0.006 C 
ATOM     36  C   UNL     1      31.079 -14.789 -27.577  0.00  0.00    -0.001 C 
ATOM     37  C   UNL     1      32.759 -13.135 -27.049  0.00  0.00    +0.000 C 
ATOM     38  C   UNL     1      31.502 -13.460 -27.558  0.00  0.00    -0.000 C 
BRANCH  34  39
ATOM     39  C   UNL     1      31.415 -17.203 -27.129  0.00  0.00    +0.164 C 
BRANCH  39  40
ATOM     40  O   UNL     1      30.947 -17.572 -25.839  0.00  0.00    -0.377 OA
ATOM     41  H   UNL     1      30.581 -16.792 -25.393  0.00  0.00    +0.211 HD
ENDBRANCH  39  40
ENDBRANCH  34  39
ENDBRANCH  32  33
ENDBRANCH  27  32
ENDBRANCH  25  26
ENDBRANCH   2  25
TORSDOF 8
ENDMDL
MODEL 2
REMARK VINA RESULT:     -13.8      2.381      3.113
REMARK  Name = 448408
REMARK  8 active torsions:
REMARK  status: ('A' for Active; 'I' for Inactive)
REMARK    1  A    between atoms: N_2  and  C_25
REMARK    2  A    between atoms: C_3  and  C_6
REMARK    3  A    between atoms: C_5  and  N_12
REMARK    4  A    between atoms: C_25  and  C_26
REMARK    5  A    between atoms: C_27  and  S_32
REMARK    6  A    between atoms: S_32  and  C_33
REMARK    7  A    between atoms: C_34  and  C_39
REMARK    8  A    between atoms: C_39  and  O_40
REMARK                            x       y       z     vdW  Elec       q    Type
REMARK                         _______ _______ _______ _____ _____    ______ ____
ROOT
ATOM      1  O   UNL     1      36.774 -19.298 -20.741  0.00  0.00    -0.270 OA
ATOM      2  N   UNL     1      34.908 -18.761 -22.008  0.00  0.00    -0.297 N 
ATOM      3  C   UNL     1      35.564 -19.452 -20.983  0.00  0.00    +0.246 C 
ATOM      4  H   UNL     1      33.948 -18.932 -22.144  0.00  0.00    +0.150 HD
ENDROOT
BRANCH   3   6
ATOM      5  C   UNL     1      34.604 -22.026 -18.411  0.00  0.00    +0.090 C 
ATOM      6  C   UNL     1      34.770 -20.395 -20.209  0.00  0.00    +0.055 C 
ATOM      7  C   UNL     1      35.358 -21.112 -19.167  0.00  0.00    +0.023 C 
ATOM      8  C   UNL     1      33.247 -22.203 -18.728  0.00  0.00    +0.018 C 
ATOM      9  C   UNL     1      33.420 -20.582 -20.511  0.00  0.00    +0.005 C 
ATOM     10  C   UNL     1      32.660 -21.486 -19.770  0.00  0.00    +0.002 C 
BRANCH   5  12
ATOM     11  O   UNL     1      33.549 -24.690 -14.077  0.00  0.00    -0.207 OA
ATOM     12  N   UNL     1      35.190 -22.740 -17.372  0.00  0.00    -0.137 N 
ATOM     13  N   UNL     1      36.374 -22.423 -16.784  0.00  0.00    -0.215 N 
ATOM     14  N   UNL     1      34.360 -23.436 -16.496  0.00  0.00    -0.143 NA
ATOM     15  N   UNL     1      37.152 -22.913 -14.505  0.00  0.00    -0.309 NA
ATOM     16  N   UNL     1      35.586 -24.126 -13.125  0.00  0.00    -0.251 NA
ATOM     17  N   UNL     1      37.649 -23.510 -12.279  0.00  0.00    -0.283 N 
ATOM     18  C   UNL     1      36.363 -22.897 -15.513  0.00  0.00    +0.243 C 
ATOM     19  C   UNL     1      35.042 -23.533 -15.398  0.00  0.00    +0.241 C 
ATOM     20  C   UNL     1      34.655 -24.173 -14.135  0.00  0.00    +0.239 C 
ATOM     21  C   UNL     1      36.747 -23.532 -13.318  0.00  0.00    +0.208 C 
ATOM     22  H   UNL     1      37.115 -21.933 -17.210  0.00  0.00    +0.175 HD
ATOM     23  H   UNL     1      38.524 -23.075 -12.395  0.00  0.00    +0.156 HD
ATOM     24  H   UNL     1      37.418 -23.931 -11.419  0.00  0.00    +0.156 HD
ENDBRANCH   5  12
ENDBRANCH   3   6
BRANCH   2  25
ATOM     25  C   UNL     1      35.564 -17.811 -22.878  0.00  0.00    +0.117 C 
BRANCH  25  26
ATOM     26  C   UNL     1      34.883 -16.473 -22.863  0.00  0.00    +0.003 C 
ATOM     27  C   UNL     1      34.404 -15.881 -24.028  0.00  0.00    +0.027 C 
ATOM     28  C   UNL     1      34.741 -15.831 -21.636  0.00  0.00    -0.002 C 
ATOM     29  C   UNL     1      33.779 -14.636 -23.965  0.00  0.00    +0.006 C 
ATOM     30  C   UNL     1      34.116 -14.586 -21.574  0.00  0.00    -0.000 C 
ATOM     31  C   UNL     1      33.634 -13.989 -22.738  0.00  0.00    +0.000 C 
BRANCH  27  32
ATOM     32  S   UNL     1      34.565 -16.670 -25.624  0.00  0.00    -0.087 S 
BRANCH  32  33
ATOM     33  C   UNL     1      33.144 -16.006 -26.479  0.00  0.00    +0.028 C 
ATOM     34  C   UNL     1      32.054 -16.807 -26.825  0.00  0.00    +0.013 C 
ATOM     35  C   UNL     1      33.140 -14.649 -26.804  0.00  0.00    +0.006 C 
ATOM     36  C   UNL     1      30.963 -16.252 -27.492  0.00  0.00    -0.001 C 
ATOM     37  C   UNL     1      32.049 -14.094 -27.473  0.00  0.00    +0.000 C 
ATOM     38  C   UNL     1      30.960 -14.895 -27.817  0.00  0.00    -0.000 C 
BRANCH  34  39
ATOM     39  C   UNL     1      32.010 -18.266 -26.500  0.00  0.00    +0.164 C 
BRANCH  39  40
ATOM     40  O   UNL     1      31.162 -18.470 -25.377  0.00  0.00    -0.377 OA
ATOM     41  H   UNL     1      31.030 -19.421 -25.240  0.00  0.00    +0.211 HD
ENDBRANCH  39  40
ENDBRANCH  34  39
ENDBRANCH  32  33
ENDBRANCH  27  32
ENDBRANCH  25  26
ENDBRANCH   2  25
TORSDOF 8
ENDMDL
MODEL 3
REMARK VINA RESULT:     -13.3      6.726     12.099
REMARK  Name = 448408
REMARK  8 active torsions:
REMARK  status: ('A' for Active; 'I' for Inactive)
REMARK    1  A    between atoms: N_2  and  C_25
REMARK    2  A    between atoms: C_3  and  C_6
REMARK    3  A    between atoms: C_5  and  N_12
REMARK    4  A    between atoms: C_25  and  C_26
REMARK    5  A    between atoms: C_27  and  S_32
REMARK    6  A    between atoms: S_32  and  C_33
REMARK    7  A    between atoms: C_34  and  C_39
REMARK    8  A    between atoms: C_39  and  O_40
REMARK                            x       y       z     vdW  Elec       q    Type
REMARK                         _______ _______ _______ _____ _____    ______ ____
ROOT
ATOM      1  O   UNL     1      33.062 -13.587 -22.024  0.00  0.00    -0.270 OA
ATOM      2  N   UNL     1      34.297 -14.614 -23.695  0.00  0.00    -0.297 N 
ATOM      3  C   UNL     1      33.539 -13.561 -23.172  0.00  0.00    +0.246 C 
ATOM      4  H   UNL     1      34.644 -14.527 -24.613  0.00  0.00    +0.150 HD
ENDROOT
BRANCH   3   6
ATOM      5  C   UNL     1      32.810 -10.055 -24.327  0.00  0.00    +0.090 C 
ATOM      6  C   UNL     1      33.302 -12.421 -24.045  0.00  0.00    +0.055 C 
ATOM      7  C   UNL     1      33.041 -11.165 -23.497  0.00  0.00    +0.023 C 
ATOM      8  C   UNL     1      32.845 -10.237 -25.719  0.00  0.00    +0.018 C 
ATOM      9  C   UNL     1      33.333 -12.585 -25.430  0.00  0.00    +0.005 C 
ATOM     10  C   UNL     1      33.106 -11.494 -26.267  0.00  0.00    +0.002 C 
BRANCH   5  12
ATOM     11  O   UNL     1      32.735  -7.392 -19.866  0.00  0.00    -0.207 OA
ATOM     12  N   UNL     1      32.551  -8.802 -23.781  0.00  0.00    -0.137 N 
ATOM     13  N   UNL     1      31.565  -7.964 -24.197  0.00  0.00    -0.215 N 
ATOM     14  N   UNL     1      32.872  -8.584 -22.444  0.00  0.00    -0.143 NA
ATOM     15  N   UNL     1      30.374  -6.226 -22.931  0.00  0.00    -0.309 NA
ATOM     16  N   UNL     1      31.057  -5.985 -20.628  0.00  0.00    -0.251 NA
ATOM     17  N   UNL     1      29.392  -4.634 -21.497  0.00  0.00    -0.283 N 
ATOM     18  C   UNL     1      31.208  -7.172 -23.156  0.00  0.00    +0.243 C 
ATOM     19  C   UNL     1      32.086  -7.625 -22.066  0.00  0.00    +0.241 C 
ATOM     20  C   UNL     1      31.990  -6.988 -20.747  0.00  0.00    +0.239 C 
ATOM     21  C   UNL     1      30.312  -5.644 -21.661  0.00  0.00    +0.208 C 
ATOM     22  H   UNL     1      31.177  -7.936 -25.101  0.00  0.00    +0.175 HD
ATOM     23  H   UNL     1      28.822  -4.358 -22.250  0.00  0.00    +0.156 HD
ATOM     24  H   UNL     1      29.304  -4.187 -20.624  0.00  0.00    +0.156 HD
ENDBRANCH   5  12
ENDBRANCH   3   6
BRANCH   2  25
ATOM     25  C   UNL     1      34.599 -15.823 -22.962  0.00  0.00    +0.117 C 
BRANCH  25  26
ATOM     26  C   UNL     1      34.414 -17.051 -23.805  0.00  0.00    +0.003 C 
ATOM     27  C   UNL     1      34.857 -18.302 -23.385  0.00  0.00    +0.027 C 
ATOM     28  C   UNL     1      33.779 -16.905 -25.035  0.00  0.00    -0.002 C 
ATOM     29  C   UNL     1      34.665 -19.416 -24.202  0.00  0.00    +0.006 C 
ATOM     30  C   UNL     1      33.586 -18.018 -25.852  0.00  0.00    -0.000 C 
ATOM     31  C   UNL     1      34.029 -19.274 -25.436  0.00  0.00    +0.000 C 
BRANCH  27  32
ATOM     32  S   UNL     1      35.677 -18.536 -21.813  0.00  0.00    -0.087 S 
BRANCH  32  33
ATOM     33  C   UNL     1      34.542 -19.647 -20.996  0.00  0.00    +0.028 C 
ATOM     34  C   UNL     1      34.986 -20.628 -20.108  0.00  0.00    +0.013 C 
ATOM     35  C   UNL     1      33.179 -19.519 -21.265  0.00  0.00    +0.006 C 
ATOM     36  C   UNL     1      34.069 -21.477 -19.489  0.00  0.00    -0.001 C 
ATOM     37  C   UNL     1      32.261 -20.369 -20.647  0.00  0.00    +0.000 C 
ATOM     38  C   UNL     1      32.707 -21.348 -19.759  0.00  0.00    -0.000 C 
BRANCH  34  39
ATOM     39  C   UNL     1      36.435 -20.807 -19.786  0.00  0.00    +0.164 C 
BRANCH  39  40
ATOM     40  O   UNL     1      36.588 -20.952 -18.380  0.00  0.00    -0.377 OA
ATOM     41  H   UNL     1      37.252 -21.635 -18.196  0.00  0.00    +0.211 HD
ENDBRANCH  39  40
ENDBRANCH  34  39
ENDBRANCH  32  33
ENDBRANCH  27  32
ENDBRANCH  25  26
ENDBRANCH   2  25
TORSDOF 8
ENDMDL
MODEL 4
REMARK VINA RESULT:     -13.2      4.047     11.607
REMARK  Name = 448408
REMARK  8 active torsions:
REMARK  status: ('A' for Active; 'I' for Inactive)
REMARK    1  A    between atoms: N_2  and  C_25
REMARK    2  A    between atoms: C_3  and  C_6
REMARK    3  A    between atoms: C_5  and  N_12
REMARK    4  A    between atoms: C_25  and  C_26
REMARK    5  A    between atoms: C_27  and  S_32
REMARK    6  A    between atoms: S_32  and  C_33
REMARK    7  A    between atoms: C_34  and  C_39
REMARK    8  A    between atoms: C_39  and  O_40
REMARK                            x       y       z     vdW  Elec       q    Type
REMARK                         _______ _______ _______ _____ _____    ______ ____
ROOT
ATOM      1  O   UNL     1      32.334 -21.951 -19.970  0.00  0.00    -0.270 OA
ATOM      2  N   UNL     1      33.634 -22.734 -18.218  0.00  0.00    -0.297 N 
ATOM      3  C   UNL     1      33.413 -21.944 -19.351  0.00  0.00    +0.246 C 
ATOM      4  H   UNL     1      34.513 -22.680 -17.777  0.00  0.00    +0.150 HD
ENDROOT
BRANCH   3   6
ATOM      5  C   UNL     1      35.405 -19.443 -21.335  0.00  0.00    +0.090 C 
ATOM      6  C   UNL     1      34.519 -21.116 -19.805  0.00  0.00    +0.055 C 
ATOM      7  C   UNL     1      34.345 -20.249 -20.884  0.00  0.00    +0.023 C 
ATOM      8  C   UNL     1      36.643 -19.530 -20.676  0.00  0.00    +0.018 C 
ATOM      9  C   UNL     1      35.756 -21.190 -19.162  0.00  0.00    +0.005 C 
ATOM     10  C   UNL     1      36.817 -20.398 -19.597  0.00  0.00    +0.002 C 
BRANCH   5  12
ATOM     11  O   UNL     1      34.689 -14.453 -22.589  0.00  0.00    -0.207 OA
ATOM     12  N   UNL     1      35.232 -18.579 -22.409  0.00  0.00    -0.137 N 
ATOM     13  N   UNL     1      34.528 -18.872 -23.535  0.00  0.00    -0.215 N 
ATOM     14  N   UNL     1      35.250 -17.207 -22.165  0.00  0.00    -0.143 NA
ATOM     15  N   UNL     1      33.368 -17.349 -25.077  0.00  0.00    -0.309 NA
ATOM     16  N   UNL     1      33.502 -15.009 -24.501  0.00  0.00    -0.251 NA
ATOM     17  N   UNL     1      32.343 -15.680 -26.387  0.00  0.00    -0.283 N 
ATOM     18  C   UNL     1      34.064 -17.713 -24.065  0.00  0.00    +0.243 C 
ATOM     19  C   UNL     1      34.564 -16.688 -23.136  0.00  0.00    +0.241 C 
ATOM     20  C   UNL     1      34.258 -15.275 -23.384  0.00  0.00    +0.239 C 
ATOM     21  C   UNL     1      33.096 -15.993 -25.279  0.00  0.00    +0.208 C 
ATOM     22  H   UNL     1      34.381 -19.773 -23.903  0.00  0.00    +0.175 HD
ATOM     23  H   UNL     1      32.027 -16.394 -26.987  0.00  0.00    +0.156 HD
ATOM     24  H   UNL     1      32.121 -14.740 -26.581  0.00  0.00    +0.156 HD
ENDBRANCH   5  12
ENDBRANCH   3   6
BRANCH   2  25
ATOM     25  C   UNL     1      32.643 -23.626 -17.659  0.00  0.00    +0.117 C 
BRANCH  25  26
ATOM     26  C   UNL     1      32.490 -23.438 -16.178  0.00  0.00    +0.003 C 
ATOM     27  C   UNL     1      33.587 -23.445 -15.321  0.00  0.00    +0.027 C 
ATOM     28  C   UNL     1      31.205 -23.255 -15.676  0.00  0.00    -0.002 C 
ATOM     29  C   UNL     1      33.397 -23.267 -13.951  0.00  0.00    +0.006 C 
ATOM     30  C   UNL     1      31.015 -23.077 -14.306  0.00  0.00    -0.000 C 
ATOM     31  C   UNL     1      32.110 -23.083 -13.443  0.00  0.00    +0.000 C 
BRANCH  27  32
ATOM     32  S   UNL     1      35.255 -23.677 -15.922  0.00  0.00    -0.087 S 
BRANCH  32  33
ATOM     33  C   UNL     1      36.084 -24.213 -14.434  0.00  0.00    +0.028 C 
ATOM     34  C   UNL     1      36.361 -25.560 -14.190  0.00  0.00    +0.013 C 
ATOM     35  C   UNL     1      36.459 -23.246 -13.499  0.00  0.00    +0.006 C 
ATOM     36  C   UNL     1      37.011 -25.938 -13.016  0.00  0.00    -0.001 C 
ATOM     37  C   UNL     1      37.109 -23.626 -12.324  0.00  0.00    +0.000 C 
ATOM     38  C   UNL     1      37.384 -24.971 -12.083  0.00  0.00    -0.000 C 
BRANCH  34  39
ATOM     39  C   UNL     1      35.980 -26.633 -15.159  0.00  0.00    +0.164 C 
BRANCH  39  40
ATOM     40  O   UNL     1      37.089 -26.916 -16.003  0.00  0.00    -0.377 OA
ATOM     41  H   UNL     1      36.904 -26.593 -16.899  0.00  0.00    +0.211 HD
ENDBRANCH  39  40
ENDBRANCH  34  39
ENDBRANCH  32  33
ENDBRANCH  27  32
ENDBRANCH  25  26
ENDBRANCH   2  25
TORSDOF 8
ENDMDL
MODEL 5
REMARK VINA RESULT:     -13.1      4.098     11.712
REMARK  Name = 448408
REMARK  8 active torsions:
REMARK  status: ('A' for Active; 'I' for Inactive)
REMARK    1  A    between atoms: N_2  and  C_25
REMARK    2  A    between atoms: C_3  and  C_6
REMARK    3  A    between atoms: C_5  and  N_12
REMARK    4  A    between atoms: C_25  and  C_26
REMARK    5  A    between atoms: C_27  and  S_32
REMARK    6  A    between atoms: S_32  and  C_33
REMARK    7  A    between atoms: C_34  and  C_39
REMARK    8  A    between atoms: C_39  and  O_40
REMARK                            x       y       z     vdW  Elec       q    Type
REMARK                         _______ _______ _______ _____ _____    ______ ____
ROOT
ATOM      1  O   UNL     1      32.394 -22.016 -19.933  0.00  0.00    -0.270 OA
ATOM      2  N   UNL     1      34.268 -22.689 -18.745  0.00  0.00    -0.297 N 
ATOM      3  C   UNL     1      33.593 -21.855 -19.643  0.00  0.00    +0.246 C 
ATOM      4  H   UNL     1      35.218 -22.504 -18.561  0.00  0.00    +0.150 HD
ENDROOT
BRANCH   3   6
ATOM      5  C   UNL     1      34.497 -18.906 -21.798  0.00  0.00    +0.090 C 
ATOM      6  C   UNL     1      34.363 -20.784 -20.256  0.00  0.00    +0.055 C 
ATOM      7  C   UNL     1      33.765 -19.945 -21.196  0.00  0.00    +0.023 C 
ATOM      8  C   UNL     1      35.842 -18.732 -21.433  0.00  0.00    +0.018 C 
ATOM      9  C   UNL     1      35.701 -20.598 -19.904  0.00  0.00    +0.005 C 
ATOM     10  C   UNL     1      36.440 -19.572 -20.492  0.00  0.00    +0.002 C 
BRANCH   5  12
ATOM     11  O   UNL     1      32.180 -18.842 -26.448  0.00  0.00    -0.207 OA
ATOM     12  N   UNL     1      33.901 -18.069 -22.735  0.00  0.00    -0.137 N 
ATOM     13  N   UNL     1      34.317 -16.807 -23.022  0.00  0.00    -0.215 N 
ATOM     14  N   UNL     1      33.251 -18.648 -23.821  0.00  0.00    -0.143 NA
ATOM     15  N   UNL     1      34.060 -15.528 -25.105  0.00  0.00    -0.309 NA
ATOM     16  N   UNL     1      32.909 -16.685 -26.883  0.00  0.00    -0.251 NA
ATOM     17  N   UNL     1      33.680 -14.528 -27.205  0.00  0.00    -0.283 N 
ATOM     18  C   UNL     1      33.956 -16.515 -24.296  0.00  0.00    +0.243 C 
ATOM     19  C   UNL     1      33.278 -17.740 -24.747  0.00  0.00    +0.241 C 
ATOM     20  C   UNL     1      32.735 -17.807 -26.109  0.00  0.00    +0.239 C 
ATOM     21  C   UNL     1      33.531 -15.630 -26.394  0.00  0.00    +0.208 C 
ATOM     22  H   UNL     1      34.798 -16.206 -22.408  0.00  0.00    +0.175 HD
ATOM     23  H   UNL     1      34.140 -13.726 -26.867  0.00  0.00    +0.156 HD
ATOM     24  H   UNL     1      33.327 -14.542 -28.124  0.00  0.00    +0.156 HD
ENDBRANCH   5  12
ENDBRANCH   3   6
BRANCH   2  25
ATOM     25  C   UNL     1      33.648 -23.810 -18.074  0.00  0.00    +0.117 C 
BRANCH  25  26
ATOM     26  C   UNL     1      33.200 -23.454 -16.686  0.00  0.00    +0.003 C 
ATOM     27  C   UNL     1      34.110 -23.198 -15.664  0.00  0.00    +0.027 C 
ATOM     28  C   UNL     1      31.831 -23.385 -16.443  0.00  0.00    -0.002 C 
ATOM     29  C   UNL     1      33.648 -22.873 -14.390  0.00  0.00    +0.006 C 
ATOM     30  C   UNL     1      31.369 -23.059 -15.169  0.00  0.00    -0.000 C 
ATOM     31  C   UNL     1      32.276 -22.802 -14.142  0.00  0.00    +0.000 C 
BRANCH  27  32
ATOM     32  S   UNL     1      35.876 -23.275 -15.932  0.00  0.00    -0.087 S 
BRANCH  32  33
ATOM     33  C   UNL     1      36.418 -24.060 -14.421  0.00  0.00    +0.028 C 
ATOM     34  C   UNL     1      36.396 -25.448 -14.265  0.00  0.00    +0.013 C 
ATOM     35  C   UNL     1      36.870 -23.251 -13.378  0.00  0.00    +0.006 C 
ATOM     36  C   UNL     1      36.828 -26.023 -13.070  0.00  0.00    -0.001 C 
ATOM     37  C   UNL     1      37.301 -23.826 -12.182  0.00  0.00    +0.000 C 
ATOM     38  C   UNL     1      37.280 -25.213 -12.029  0.00  0.00    -0.000 C 
BRANCH  34  39
ATOM     39  C   UNL     1      35.921 -26.358 -15.351  0.00  0.00    +0.164 C 
BRANCH  39  40
ATOM     40  O   UNL     1      37.045 -26.936 -16.002  0.00  0.00    -0.377 OA
ATOM     41  H   UNL     1      37.487 -27.553 -15.397  0.00  0.00    +0.211 HD
ENDBRANCH  39  40
ENDBRANCH  34  39
ENDBRANCH  32  33
ENDBRANCH  27  32
ENDBRANCH  25  26
ENDBRANCH   2  25
TORSDOF 8
ENDMDL
MODEL 6
REMARK VINA RESULT:     -12.9      3.034      4.079
REMARK  Name = 448408
REMARK  8 active torsions:
REMARK  status: ('A' for Active; 'I' for Inactive)
REMARK    1  A    between atoms: N_2  and  C_25
REMARK    2  A    between atoms: C_3  and  C_6
REMARK    3  A    between atoms: C_5  and  N_12
REMARK    4  A    between atoms: C_25  and  C_26
REMARK    5  A    between atoms: C_27  and  S_32
REMARK    6  A    between atoms: S_32  and  C_33
REMARK    7  A    between atoms: C_34  and  C_39
REMARK    8  A    between atoms: C_39  and  O_40
REMARK                            x       y       z     vdW  Elec       q    Type
REMARK                         _______ _______ _______ _____ _____    ______ ____
ROOT
ATOM      1  O   UNL     1      36.980 -19.803 -20.451  0.00  0.00    -0.270 OA
ATOM      2  N   UNL     1      35.017 -19.200 -21.526  0.00  0.00    -0.297 N 
ATOM      3  C   UNL     1      35.750 -19.931 -20.584  0.00  0.00    +0.246 C 
ATOM      4  H   UNL     1      34.045 -19.352 -21.578  0.00  0.00    +0.150 HD
ENDROOT
BRANCH   3   6
ATOM      5  C   UNL     1      34.839 -22.228 -17.747  0.00  0.00    +0.090 C 
ATOM      6  C   UNL     1      35.013 -20.882 -19.767  0.00  0.00    +0.055 C 
ATOM      7  C   UNL     1      35.539 -21.309 -18.547  0.00  0.00    +0.023 C 
ATOM      8  C   UNL     1      33.600 -22.708 -18.201  0.00  0.00    +0.018 C 
ATOM      9  C   UNL     1      33.781 -21.369 -20.204  0.00  0.00    +0.005 C 
ATOM     10  C   UNL     1      33.074 -22.281 -19.422  0.00  0.00    +0.002 C 
BRANCH   5  12
ATOM     11  O   UNL     1      39.132 -24.078 -15.481  0.00  0.00    -0.207 OA
ATOM     12  N   UNL     1      35.362 -22.652 -16.531  0.00  0.00    -0.137 N 
ATOM     13  N   UNL     1      34.671 -23.348 -15.589  0.00  0.00    -0.215 N 
ATOM     14  N   UNL     1      36.728 -22.913 -16.453  0.00  0.00    -0.143 NA
ATOM     15  N   UNL     1      35.514 -24.906 -13.885  0.00  0.00    -0.309 NA
ATOM     16  N   UNL     1      37.904 -25.240 -13.894  0.00  0.00    -0.251 NA
ATOM     17  N   UNL     1      36.579 -26.348 -12.355  0.00  0.00    -0.283 N 
ATOM     18  C   UNL     1      35.551 -24.083 -14.866  0.00  0.00    +0.243 C 
ATOM     19  C   UNL     1      36.850 -23.756 -15.475  0.00  0.00    +0.241 C 
ATOM     20  C   UNL     1      38.072 -24.374 -14.949  0.00  0.00    +0.239 C 
ATOM     21  C   UNL     1      36.700 -25.475 -13.412  0.00  0.00    +0.208 C 
ATOM     22  H   UNL     1      33.696 -23.322 -15.456  0.00  0.00    +0.175 HD
ATOM     23  H   UNL     1      35.692 -26.542 -11.974  0.00  0.00    +0.156 HD
ATOM     24  H   UNL     1      37.381 -26.779 -11.980  0.00  0.00    +0.156 HD
ENDBRANCH   5  12
ENDBRANCH   3   6
BRANCH   2  25
ATOM     25  C   UNL     1      35.608 -18.236 -22.427  0.00  0.00    +0.117 C 
BRANCH  25  26
ATOM     26  C   UNL     1      35.051 -16.858 -22.217  0.00  0.00    +0.003 C 
ATOM     27  C   UNL     1      34.838 -15.984 -23.280  0.00  0.00    +0.027 C 
ATOM     28  C   UNL     1      34.750 -16.470 -20.915  0.00  0.00    -0.002 C 
ATOM     29  C   UNL     1      34.319 -14.712 -23.037  0.00  0.00    +0.006 C 
ATOM     30  C   UNL     1      34.231 -15.199 -20.673  0.00  0.00    -0.000 C 
ATOM     31  C   UNL     1      34.015 -14.320 -21.733  0.00  0.00    +0.000 C 
BRANCH  27  32
ATOM     32  S   UNL     1      35.211 -16.440 -24.968  0.00  0.00    -0.087 S 
BRANCH  32  33
ATOM     33  C   UNL     1      33.607 -16.979 -25.540  0.00  0.00    +0.028 C 
ATOM     34  C   UNL     1      32.761 -16.132 -26.259  0.00  0.00    +0.013 C 
ATOM     35  C   UNL     1      33.203 -18.283 -25.251  0.00  0.00    +0.006 C 
ATOM     36  C   UNL     1      31.516 -16.590 -26.689  0.00  0.00    -0.001 C 
ATOM     37  C   UNL     1      31.957 -18.740 -25.680  0.00  0.00    +0.000 C 
ATOM     38  C   UNL     1      31.113 -17.893 -26.399  0.00  0.00    -0.000 C 
BRANCH  34  39
ATOM     39  C   UNL     1      33.146 -14.727 -26.595  0.00  0.00    +0.164 C 
BRANCH  39  40
ATOM     40  O   UNL     1      33.717 -14.696 -27.896  0.00  0.00    -0.377 OA
ATOM     41  H   UNL     1      34.171 -13.849 -28.030  0.00  0.00    +0.211 HD
ENDBRANCH  39  40
ENDBRANCH  34  39
ENDBRANCH  32  33
ENDBRANCH  27  32
ENDBRANCH  25  26
ENDBRANCH   2  25
TORSDOF 8
ENDMDL
MODEL 7
REMARK VINA RESULT:     -12.9      4.718      7.866
REMARK  Name = 448408
REMARK  8 active torsions:
REMARK  status: ('A' for Active; 'I' for Inactive)
REMARK    1  A    between atoms: N_2  and  C_25
REMARK    2  A    between atoms: C_3  and  C_6
REMARK    3  A    between atoms: C_5  and  N_12
REMARK    4  A    between atoms: C_25  and  C_26
REMARK    5  A    between atoms: C_27  and  S_32
REMARK    6  A    between atoms: S_32  and  C_33
REMARK    7  A    between atoms: C_34  and  C_39
REMARK    8  A    between atoms: C_39  and  O_40
REMARK                            x       y       z     vdW  Elec       q    Type
REMARK                         _______ _______ _______ _____ _____    ______ ____
ROOT
ATOM      1  O   UNL     1      33.244 -13.599 -22.435  0.00  0.00    -0.270 OA
ATOM      2  N   UNL     1      32.629 -12.793 -24.520  0.00  0.00    -0.297 N 
ATOM      3  C   UNL     1      33.126 -13.779 -23.660  0.00  0.00    +0.246 C 
ATOM      4  H   UNL     1      32.562 -13.003 -25.480  0.00  0.00    +0.150 HD
ENDROOT
BRANCH   3   6
ATOM      5  C   UNL     1      34.239 -17.355 -24.025  0.00  0.00    +0.090 C 
ATOM      6  C   UNL     1      33.532 -15.039 -24.264  0.00  0.00    +0.055 C 
ATOM      7  C   UNL     1      33.845 -16.131 -23.456  0.00  0.00    +0.023 C 
ATOM      8  C   UNL     1      34.312 -17.454 -25.424  0.00  0.00    +0.018 C 
ATOM      9  C   UNL     1      33.609 -15.153 -25.653  0.00  0.00    +0.005 C 
ATOM     10  C   UNL     1      33.998 -16.360 -26.233  0.00  0.00    +0.002 C 
BRANCH   5  12
ATOM     11  O   UNL     1      32.228 -20.724 -20.619  0.00  0.00    -0.207 OA
ATOM     12  N   UNL     1      34.551 -18.445 -23.219  0.00  0.00    -0.137 N 
ATOM     13  N   UNL     1      35.724 -18.606 -22.553  0.00  0.00    -0.215 N 
ATOM     14  N   UNL     1      33.510 -19.116 -22.582  0.00  0.00    -0.143 NA
ATOM     15  N   UNL     1      36.175 -19.867 -20.492  0.00  0.00    -0.309 NA
ATOM     16  N   UNL     1      34.257 -20.968 -19.524  0.00  0.00    -0.251 NA
ATOM     17  N   UNL     1      36.332 -21.143 -18.516  0.00  0.00    -0.283 N 
ATOM     18  C   UNL     1      35.497 -19.383 -21.465  0.00  0.00    +0.243 C 
ATOM     19  C   UNL     1      34.057 -19.672 -21.547  0.00  0.00    +0.241 C 
ATOM     20  C   UNL     1      33.427 -20.507 -20.518  0.00  0.00    +0.239 C 
ATOM     21  C   UNL     1      35.539 -20.657 -19.530  0.00  0.00    +0.208 C 
ATOM     22  H   UNL     1      36.593 -18.224 -22.816  0.00  0.00    +0.175 HD
ATOM     23  H   UNL     1      37.292 -20.928 -18.495  0.00  0.00    +0.156 HD
ATOM     24  H   UNL     1      35.938 -21.705 -17.810  0.00  0.00    +0.156 HD
ENDBRANCH   5  12
ENDBRANCH   3   6
BRANCH   2  25
ATOM     25  C   UNL     1      32.208 -11.484 -24.076  0.00  0.00    +0.117 C 
BRANCH  25  26
ATOM     26  C   UNL     1      33.294 -10.461 -24.237  0.00  0.00    +0.003 C 
ATOM     27  C   UNL     1      33.092  -9.120 -23.921  0.00  0.00    +0.027 C 
ATOM     28  C   UNL     1      34.527 -10.893 -24.717  0.00  0.00    -0.002 C 
ATOM     29  C   UNL     1      34.130  -8.205 -24.088  0.00  0.00    +0.006 C 
ATOM     30  C   UNL     1      35.566  -9.977 -24.883  0.00  0.00    -0.000 C 
ATOM     31  C   UNL     1      35.368  -8.634 -24.568  0.00  0.00    +0.000 C 
BRANCH  27  32
ATOM     32  S   UNL     1      31.525  -8.521 -23.302  0.00  0.00    -0.087 S 
BRANCH  32  33
ATOM     33  C   UNL     1      31.489  -9.268 -21.680  0.00  0.00    +0.028 C 
ATOM     34  C   UNL     1      32.171  -8.707 -20.598  0.00  0.00    +0.013 C 
ATOM     35  C   UNL     1      30.757 -10.444 -21.506  0.00  0.00    +0.006 C 
ATOM     36  C   UNL     1      32.119  -9.320 -19.346  0.00  0.00    -0.001 C 
ATOM     37  C   UNL     1      30.706 -11.057 -20.254  0.00  0.00    +0.000 C 
ATOM     38  C   UNL     1      31.386 -10.495 -19.174  0.00  0.00    -0.000 C 
BRANCH  34  39
ATOM     39  C   UNL     1      32.969  -7.450 -20.731  0.00  0.00    +0.164 C 
BRANCH  39  40
ATOM     40  O   UNL     1      33.351  -6.999 -19.439  0.00  0.00    -0.377 OA
ATOM     41  H   UNL     1      33.442  -7.760 -18.845  0.00  0.00    +0.211 HD
ENDBRANCH  39  40
ENDBRANCH  34  39
ENDBRANCH  32  33
ENDBRANCH  27  32
ENDBRANCH  25  26
ENDBRANCH   2  25
TORSDOF 8
ENDMDL
MODEL 8
REMARK VINA RESULT:     -12.7      5.381      8.718
REMARK  Name = 448408
REMARK  8 active torsions:
REMARK  status: ('A' for Active; 'I' for Inactive)
REMARK    1  A    between atoms: N_2  and  C_25
REMARK    2  A    between atoms: C_3  and  C_6
REMARK    3  A    between atoms: C_5  and  N_12
REMARK    4  A    between atoms: C_25  and  C_26
REMARK    5  A    between atoms: C_27  and  S_32
REMARK    6  A    between atoms: S_32  and  C_33
REMARK    7  A    between atoms: C_34  and  C_39
REMARK    8  A    between atoms: C_39  and  O_40
REMARK                            x       y       z     vdW  Elec       q    Type
REMARK                         _______ _______ _______ _____ _____    ______ ____
ROOT
ATOM      1  O   UNL     1      33.571 -12.531 -26.552  0.00  0.00    -0.270 OA
ATOM      2  N   UNL     1      32.939 -12.872 -24.347  0.00  0.00    -0.297 N 
ATOM      3  C   UNL     1      33.217 -13.308 -25.648  0.00  0.00    +0.246 C 
ATOM      4  H   UNL     1      32.663 -13.542 -23.680  0.00  0.00    +0.150 HD
ENDROOT
BRANCH   3   6
ATOM      5  C   UNL     1      33.437 -17.047 -25.290  0.00  0.00    +0.090 C 
ATOM      6  C   UNL     1      33.051 -14.728 -25.918  0.00  0.00    +0.055 C 
ATOM      7  C   UNL     1      33.589 -15.672 -25.043  0.00  0.00    +0.023 C 
ATOM      8  C   UNL     1      32.733 -17.451 -26.437  0.00  0.00    +0.018 C 
ATOM      9  C   UNL     1      32.354 -15.145 -27.052  0.00  0.00    +0.005 C 
ATOM     10  C   UNL     1      32.195 -16.506 -27.312  0.00  0.00    +0.002 C 
BRANCH   5  12
ATOM     11  O   UNL     1      32.296 -20.090 -21.237  0.00  0.00    -0.207 OA
ATOM     12  N   UNL     1      33.972 -17.989 -24.418  0.00  0.00    -0.137 N 
ATOM     13  N   UNL     1      35.239 -17.958 -23.927  0.00  0.00    -0.215 N 
ATOM     14  N   UNL     1      33.108 -18.655 -23.552  0.00  0.00    -0.143 NA
ATOM     15  N   UNL     1      36.108 -18.889 -21.825  0.00  0.00    -0.309 NA
ATOM     16  N   UNL     1      34.474 -20.011 -20.447  0.00  0.00    -0.251 NA
ATOM     17  N   UNL     1      36.678 -19.870 -19.759  0.00  0.00    -0.283 N 
ATOM     18  C   UNL     1      35.252 -18.599 -22.732  0.00  0.00    +0.243 C 
ATOM     19  C   UNL     1      33.853 -19.019 -22.555  0.00  0.00    +0.241 C 
ATOM     20  C   UNL     1      33.467 -19.759 -21.349  0.00  0.00    +0.239 C 
ATOM     21  C   UNL     1      35.702 -19.595 -20.689  0.00  0.00    +0.208 C 
ATOM     22  H   UNL     1      36.016 -17.542 -24.365  0.00  0.00    +0.175 HD
ATOM     23  H   UNL     1      37.603 -19.573 -19.912  0.00  0.00    +0.156 HD
ATOM     24  H   UNL     1      36.450 -20.365 -18.938  0.00  0.00    +0.156 HD
ENDBRANCH   5  12
ENDBRANCH   3   6
BRANCH   2  25
ATOM     25  C   UNL     1      33.034 -11.491 -23.930  0.00  0.00    +0.117 C 
BRANCH  25  26
ATOM     26  C   UNL     1      32.179 -11.207 -22.730  0.00  0.00    +0.003 C 
ATOM     27  C   UNL     1      31.680  -9.934 -22.469  0.00  0.00    +0.027 C 
ATOM     28  C   UNL     1      31.894 -12.265 -21.871  0.00  0.00    -0.002 C 
ATOM     29  C   UNL     1      30.890  -9.717 -21.340  0.00  0.00    +0.006 C 
ATOM     30  C   UNL     1      31.105 -12.048 -20.743  0.00  0.00    -0.000 C 
ATOM     31  C   UNL     1      30.602 -10.775 -20.477  0.00  0.00    +0.000 C 
BRANCH  27  32
ATOM     32  S   UNL     1      32.021  -8.547 -23.545  0.00  0.00    -0.087 S 
BRANCH  32  33
ATOM     33  C   UNL     1      31.433  -7.187 -22.547  0.00  0.00    +0.028 C 
ATOM     34  C   UNL     1      32.122  -6.758 -21.410  0.00  0.00    +0.013 C 
ATOM     35  C   UNL     1      30.252  -6.548 -22.926  0.00  0.00    +0.006 C 
ATOM     36  C   UNL     1      31.631  -5.692 -20.657  0.00  0.00    -0.001 C 
ATOM     37  C   UNL     1      29.760  -5.482 -22.172  0.00  0.00    +0.000 C 
ATOM     38  C   UNL     1      30.450  -5.054 -21.038  0.00  0.00    -0.000 C 
BRANCH  34  39
ATOM     39  C   UNL     1      33.391  -7.408 -20.962  0.00  0.00    +0.164 C 
BRANCH  39  40
ATOM     40  O   UNL     1      33.510  -7.279 -19.551  0.00  0.00    -0.377 OA
ATOM     41  H   UNL     1      32.654  -7.019 -19.177  0.00  0.00    +0.211 HD
ENDBRANCH  39  40
ENDBRANCH  34  39
ENDBRANCH  32  33
ENDBRANCH  27  32
ENDBRANCH  25  26
ENDBRANCH   2  25
TORSDOF 8
ENDMDL
MODEL 9
REMARK VINA RESULT:     -12.7      2.787      4.354
REMARK  Name = 448408
REMARK  8 active torsions:
REMARK  status: ('A' for Active; 'I' for Inactive)
REMARK    1  A    between atoms: N_2  and  C_25
REMARK    2  A    between atoms: C_3  and  C_6
REMARK    3  A    between atoms: C_5  and  N_12
REMARK    4  A    between atoms: C_25  and  C_26
REMARK    5  A    between atoms: C_27  and  S_32
REMARK    6  A    between atoms: S_32  and  C_33
REMARK    7  A    between atoms: C_34  and  C_39
REMARK    8  A    between atoms: C_39  and  O_40
REMARK                            x       y       z     vdW  Elec       q    Type
REMARK                         _______ _______ _______ _____ _____    ______ ____
ROOT
ATOM      1  O   UNL     1      36.099 -19.277 -21.119  0.00  0.00    -0.270 OA
ATOM      2  N   UNL     1      34.321 -19.487 -22.592  0.00  0.00    -0.297 N 
ATOM      3  C   UNL     1      34.960 -19.712 -21.368  0.00  0.00    +0.246 C 
ATOM      4  H   UNL     1      33.419 -19.861 -22.722  0.00  0.00    +0.150 HD
ENDROOT
BRANCH   3   6
ATOM      5  C   UNL     1      34.270 -21.998 -18.460  0.00  0.00    +0.090 C 
ATOM      6  C   UNL     1      34.243 -20.509 -20.385  0.00  0.00    +0.055 C 
ATOM      7  C   UNL     1      34.949 -21.223 -19.416  0.00  0.00    +0.023 C 
ATOM      8  C   UNL     1      32.866 -22.039 -18.501  0.00  0.00    +0.018 C 
ATOM      9  C   UNL     1      32.849 -20.560 -20.412  0.00  0.00    +0.005 C 
ATOM     10  C   UNL     1      32.161 -21.324 -19.470  0.00  0.00    +0.002 C 
BRANCH   5  12
ATOM     11  O   UNL     1      33.695 -24.991 -14.253  0.00  0.00    -0.207 OA
ATOM     12  N   UNL     1      34.973 -22.709 -17.494  0.00  0.00    -0.137 N 
ATOM     13  N   UNL     1      36.151 -22.312 -16.943  0.00  0.00    -0.215 N 
ATOM     14  N   UNL     1      34.258 -23.530 -16.625  0.00  0.00    -0.143 NA
ATOM     15  N   UNL     1      37.088 -22.852 -14.736  0.00  0.00    -0.309 NA
ATOM     16  N   UNL     1      35.716 -24.286 -13.362  0.00  0.00    -0.251 NA
ATOM     17  N   UNL     1      37.753 -23.522 -12.576  0.00  0.00    -0.283 N 
ATOM     18  C   UNL     1      36.250 -22.855 -15.704  0.00  0.00    +0.243 C 
ATOM     19  C   UNL     1      35.002 -23.622 -15.567  0.00  0.00    +0.241 C 
ATOM     20  C   UNL     1      34.743 -24.367 -14.330  0.00  0.00    +0.239 C 
ATOM     21  C   UNL     1      36.805 -23.572 -13.572  0.00  0.00    +0.208 C 
ATOM     22  H   UNL     1      36.819 -21.729 -17.371  0.00  0.00    +0.175 HD
ATOM     23  H   UNL     1      38.576 -22.997 -12.705  0.00  0.00    +0.156 HD
ATOM     24  H   UNL     1      37.607 -24.010 -11.733  0.00  0.00    +0.156 HD
ENDBRANCH   5  12
ENDBRANCH   3   6
BRANCH   2  25
ATOM     25  C   UNL     1      34.912 -18.736 -23.677  0.00  0.00    +0.117 C 
BRANCH  25  26
ATOM     26  C   UNL     1      33.873 -18.187 -24.610  0.00  0.00    +0.003 C 
ATOM     27  C   UNL     1      33.861 -16.847 -24.987  0.00  0.00    +0.027 C 
ATOM     28  C   UNL     1      32.908 -19.064 -25.097  0.00  0.00    -0.002 C 
ATOM     29  C   UNL     1      32.875 -16.380 -25.856  0.00  0.00    +0.006 C 
ATOM     30  C   UNL     1      31.922 -18.598 -25.966  0.00  0.00    -0.000 C 
ATOM     31  C   UNL     1      31.906 -17.256 -26.346  0.00  0.00    +0.000 C 
BRANCH  27  32
ATOM     32  S   UNL     1      35.080 -15.685 -24.386  0.00  0.00    -0.087 S 
BRANCH  32  33
ATOM     33  C   UNL     1      34.085 -14.674 -23.300  0.00  0.00    +0.028 C 
ATOM     34  C   UNL     1      34.075 -14.871 -21.918  0.00  0.00    +0.013 C 
ATOM     35  C   UNL     1      33.302 -13.666 -23.865  0.00  0.00    +0.006 C 
ATOM     36  C   UNL     1      33.285 -14.060 -21.103  0.00  0.00    -0.001 C 
ATOM     37  C   UNL     1      32.512 -12.856 -23.050  0.00  0.00    +0.000 C 
ATOM     38  C   UNL     1      32.503 -13.053 -21.669  0.00  0.00    -0.000 C 
BRANCH  34  39
ATOM     39  C   UNL     1      34.895 -15.936 -21.264  0.00  0.00    +0.164 C 
BRANCH  39  40
ATOM     40  O   UNL     1      34.584 -15.981 -19.878  0.00  0.00    -0.377 OA
ATOM     41  H   UNL     1      34.726 -15.105 -19.487  0.00  0.00    +0.211 HD
ENDBRANCH  39  40
ENDBRANCH  34  39
ENDBRANCH  32  33
ENDBRANCH  27  32
ENDBRANCH  25  26
ENDBRANCH   2  25
TORSDOF 8
ENDMDL
