MODEL 1
REMARK VINA RESULT:     -12.1      0.000      0.000
REMARK  Name = 46937052
REMARK  7 active torsions:
REMARK  status: ('A' for Active; 'I' for Inactive)
REMARK    1  A    between atoms: O_1  and  C_3
REMARK    2  A    between atoms: O_1  and  C_17
REMARK    3  A    between atoms: C_4  and  C_11
REMARK    4  A    between atoms: C_17  and  C_18
REMARK    5  A    between atoms: C_18  and  N_19
REMARK    6  A    between atoms: C_18  and  C_23
REMARK    7  A    between atoms: C_23  and  C_25
REMARK                            x       y       z     vdW  Elec       q    Type
REMARK                         _______ _______ _______ _____ _____    ______ ____
ROOT
ATOM      1  O   UNL     1      32.417 -22.324 -18.847  0.00  0.00    -0.476 OA
ENDROOT
BRANCH   1   3
ATOM      2  N   UNL     1      30.923 -23.240 -15.636  0.00  0.00    -0.239 NA
ATOM      3  C   UNL     1      32.310 -22.797 -17.565  0.00  0.00    +0.158 C 
ATOM      4  C   UNL     1      33.281 -23.772 -15.592  0.00  0.00    +0.039 C 
ATOM      5  C   UNL     1      33.419 -23.298 -16.892  0.00  0.00    +0.042 C 
ATOM      6  C   UNL     1      31.096 -22.790 -16.899  0.00  0.00    +0.136 C 
ATOM      7  C   UNL     1      32.022 -23.721 -15.014  0.00  0.00    +0.101 C 
BRANCH   4  11
ATOM      8  N   UNL     1      35.288 -25.055 -15.479  0.00  0.00    -0.264 NA
ATOM      9  N   UNL     1      37.481 -25.620 -12.544  0.00  0.00    -0.150 NA
ATOM     10  N   UNL     1      37.144 -25.032 -11.248  0.00  0.00    -0.147 NA
ATOM     11  C   UNL     1      34.447 -24.315 -14.844  0.00  0.00    +0.078 C 
ATOM     12  C   UNL     1      35.558 -24.436 -12.751  0.00  0.00    +0.040 C 
ATOM     13  C   UNL     1      36.552 -25.263 -13.390  0.00  0.00    +0.107 C 
ATOM     14  C   UNL     1      36.466 -25.630 -14.825  0.00  0.00    +0.173 C 
ATOM     15  C   UNL     1      34.513 -23.951 -13.401  0.00  0.00    +0.022 C 
ATOM     16  C   UNL     1      36.037 -24.361 -11.390  0.00  0.00    +0.123 C 
ENDBRANCH   4  11
ENDBRANCH   1   3
BRANCH   1  17
ATOM     17  C   UNL     1      33.702 -21.881 -19.263  0.00  0.00    +0.184 C 
BRANCH  17  18
ATOM     18  C   UNL     1      33.580 -20.935 -20.463  0.00  0.00    -0.017 C 
BRANCH  18  19
ATOM     19  N   UNL     1      32.337 -20.173 -20.324  0.00  0.00    +0.384 N 
ATOM     20  H   UNL     1      31.541 -20.789 -20.491  0.00  0.00    -0.089 HD
ATOM     21  H   UNL     1      32.326 -19.412 -21.003  0.00  0.00    -0.089 HD
ATOM     22  H   UNL     1      32.277 -19.789 -19.380  0.00  0.00    -0.089 HD
ENDBRANCH  18  19
BRANCH  18  23
ATOM     23  C   UNL     1      34.768 -19.948 -20.581  0.00  0.00    +0.010 C 
BRANCH  23  25
ATOM     24  N   UNL     1      34.553 -18.467 -24.007  0.00  0.00    -0.244 NA
ATOM     25  C   UNL     1      34.684 -19.016 -21.720  0.00  0.00    -0.004 C 
ATOM     26  C   UNL     1      34.639 -17.683 -21.839  0.00  0.00    +0.011 C 
ATOM     27  C   UNL     1      34.558 -17.332 -23.242  0.00  0.00    +0.080 C 
ATOM     28  C   UNL     1      34.626 -19.425 -23.133  0.00  0.00    +0.094 C 
ATOM     29  C   UNL     1      34.659 -16.680 -20.805  0.00  0.00    -0.020 C 
ATOM     30  C   UNL     1      34.501 -16.052 -23.627  0.00  0.00    +0.015 C 
ATOM     31  C   UNL     1      34.518 -14.927 -22.611  0.00  0.00    -0.020 C 
ATOM     32  C   UNL     1      34.602 -15.386 -21.167  0.00  0.00    +0.052 C 
ENDBRANCH  23  25
ENDBRANCH  18  23
ENDBRANCH  17  18
ENDBRANCH   1  17
TORSDOF 7
ENDMDL
MODEL 2
REMARK VINA RESULT:     -11.6      1.150      2.123
REMARK  Name = 46937052
REMARK  7 active torsions:
REMARK  status: ('A' for Active; 'I' for Inactive)
REMARK    1  A    between atoms: O_1  and  C_3
REMARK    2  A    between atoms: O_1  and  C_17
REMARK    3  A    between atoms: C_4  and  C_11
REMARK    4  A    between atoms: C_17  and  C_18
REMARK    5  A    between atoms: C_18  and  N_19
REMARK    6  A    between atoms: C_18  and  C_23
REMARK    7  A    between atoms: C_23  and  C_25
REMARK                            x       y       z     vdW  Elec       q    Type
REMARK                         _______ _______ _______ _____ _____    ______ ____
ROOT
ATOM      1  O   UNL     1      32.727 -22.508 -18.800  0.00  0.00    -0.476 OA
ENDROOT
BRANCH   1   3
ATOM      2  N   UNL     1      30.852 -23.123 -15.719  0.00  0.00    -0.239 NA
ATOM      3  C   UNL     1      32.461 -22.874 -17.506  0.00  0.00    +0.158 C 
ATOM      4  C   UNL     1      33.169 -23.718 -15.367  0.00  0.00    +0.039 C 
ATOM      5  C   UNL     1      33.468 -23.353 -16.675  0.00  0.00    +0.042 C 
ATOM      6  C   UNL     1      31.181 -22.779 -16.985  0.00  0.00    +0.136 C 
ATOM      7  C   UNL     1      31.857 -23.584 -14.942  0.00  0.00    +0.101 C 
BRANCH   4  11
ATOM      8  N   UNL     1      34.075 -24.051 -13.186  0.00  0.00    -0.264 NA
ATOM      9  N   UNL     1      37.241 -25.740 -12.256  0.00  0.00    -0.150 NA
ATOM     10  N   UNL     1      38.114 -26.291 -13.292  0.00  0.00    -0.147 NA
ATOM     11  C   UNL     1      34.223 -24.233 -14.453  0.00  0.00    +0.078 C 
ATOM     12  C   UNL     1      36.303 -25.363 -14.286  0.00  0.00    +0.040 C 
ATOM     13  C   UNL     1      36.207 -25.211 -12.855  0.00  0.00    +0.107 C 
ATOM     14  C   UNL     1      35.060 -24.525 -12.212  0.00  0.00    +0.173 C 
ATOM     15  C   UNL     1      35.377 -24.906 -15.113  0.00  0.00    +0.022 C 
ATOM     16  C   UNL     1      37.558 -26.060 -14.447  0.00  0.00    +0.123 C 
ENDBRANCH   4  11
ENDBRANCH   1   3
BRANCH   1  17
ATOM     17  C   UNL     1      33.935 -21.795 -19.029  0.00  0.00    +0.184 C 
BRANCH  17  18
ATOM     18  C   UNL     1      33.872 -21.050 -20.368  0.00  0.00    -0.017 C 
BRANCH  18  19
ATOM     19  N   UNL     1      32.741 -20.120 -20.324  0.00  0.00    +0.384 N 
ATOM     20  H   UNL     1      31.868 -20.642 -20.406  0.00  0.00    -0.089 HD
ATOM     21  H   UNL     1      32.814 -19.458 -21.096  0.00  0.00    -0.089 HD
ATOM     22  H   UNL     1      32.751 -19.614 -19.438  0.00  0.00    -0.089 HD
ENDBRANCH  18  19
BRANCH  18  23
ATOM     23  C   UNL     1      35.166 -20.259 -20.685  0.00  0.00    +0.010 C 
BRANCH  23  25
ATOM     24  N   UNL     1      34.812 -16.674 -21.683  0.00  0.00    -0.244 NA
ATOM     25  C   UNL     1      34.956 -19.013 -21.443  0.00  0.00    -0.004 C 
ATOM     26  C   UNL     1      34.675 -18.729 -22.721  0.00  0.00    +0.011 C 
ATOM     27  C   UNL     1      34.584 -17.293 -22.882  0.00  0.00    +0.080 C 
ATOM     28  C   UNL     1      35.023 -17.661 -20.865  0.00  0.00    +0.094 C 
ATOM     29  C   UNL     1      34.480 -19.631 -23.827  0.00  0.00    -0.020 C 
ATOM     30  C   UNL     1      34.312 -16.751 -24.075  0.00  0.00    +0.015 C 
ATOM     31  C   UNL     1      34.089 -17.620 -25.297  0.00  0.00    -0.020 C 
ATOM     32  C   UNL     1      34.205 -19.112 -25.037  0.00  0.00    +0.052 C 
ENDBRANCH  23  25
ENDBRANCH  18  23
ENDBRANCH  17  18
ENDBRANCH   1  17
TORSDOF 7
ENDMDL
MODEL 3
REMARK VINA RESULT:     -11.6      2.067     10.208
REMARK  Name = 46937052
REMARK  7 active torsions:
REMARK  status: ('A' for Active; 'I' for Inactive)
REMARK    1  A    between atoms: O_1  and  C_3
REMARK    2  A    between atoms: O_1  and  C_17
REMARK    3  A    between atoms: C_4  and  C_11
REMARK    4  A    between atoms: C_17  and  C_18
REMARK    5  A    between atoms: C_18  and  N_19
REMARK    6  A    between atoms: C_18  and  C_23
REMARK    7  A    between atoms: C_23  and  C_25
REMARK                            x       y       z     vdW  Elec       q    Type
REMARK                         _______ _______ _______ _____ _____    ______ ____
ROOT
ATOM      1  O   UNL     1      32.961 -22.192 -18.949  0.00  0.00    -0.476 OA
ENDROOT
BRANCH   1   3
ATOM      2  N   UNL     1      36.367 -20.926 -19.381  0.00  0.00    -0.239 NA
ATOM      3  C   UNL     1      34.010 -21.460 -19.443  0.00  0.00    +0.158 C 
ATOM      4  C   UNL     1      34.903 -19.808 -20.947  0.00  0.00    +0.039 C 
ATOM      5  C   UNL     1      33.821 -20.536 -20.465  0.00  0.00    +0.042 C 
ATOM      6  C   UNL     1      35.291 -21.616 -18.940  0.00  0.00    +0.136 C 
ATOM      7  C   UNL     1      36.144 -20.038 -20.375  0.00  0.00    +0.101 C 
BRANCH   4  11
ATOM      8  N   UNL     1      34.894 -17.565 -21.758  0.00  0.00    -0.264 NA
ATOM      9  N   UNL     1      34.210 -16.380 -25.203  0.00  0.00    -0.150 NA
ATOM     10  N   UNL     1      33.883 -17.337 -26.260  0.00  0.00    -0.147 NA
ATOM     11  C   UNL     1      34.734 -18.812 -22.039  0.00  0.00    +0.078 C 
ATOM     12  C   UNL     1      34.230 -18.474 -24.333  0.00  0.00    +0.040 C 
ATOM     13  C   UNL     1      34.404 -17.061 -24.105  0.00  0.00    +0.107 C 
ATOM     14  C   UNL     1      34.750 -16.516 -22.769  0.00  0.00    +0.173 C 
ATOM     15  C   UNL     1      34.372 -19.372 -23.371  0.00  0.00    +0.022 C 
ATOM     16  C   UNL     1      33.897 -18.530 -25.737  0.00  0.00    +0.123 C 
ENDBRANCH   4  11
ENDBRANCH   1   3
BRANCH   1  17
ATOM     17  C   UNL     1      33.289 -23.335 -18.170  0.00  0.00    +0.184 C 
BRANCH  17  18
ATOM     18  C   UNL     1      32.975 -23.082 -16.690  0.00  0.00    -0.017 C 
BRANCH  18  19
ATOM     19  N   UNL     1      31.520 -23.108 -16.518  0.00  0.00    +0.384 N 
ATOM     20  H   UNL     1      31.097 -23.638 -17.280  0.00  0.00    -0.089 HD
ATOM     21  H   UNL     1      31.160 -22.153 -16.528  0.00  0.00    -0.089 HD
ATOM     22  H   UNL     1      31.291 -23.549 -15.628  0.00  0.00    -0.089 HD
ENDBRANCH  18  19
BRANCH  18  23
ATOM     23  C   UNL     1      33.615 -24.130 -15.746  0.00  0.00    +0.010 C 
BRANCH  23  25
ATOM     24  N   UNL     1      37.019 -22.653 -15.300  0.00  0.00    -0.244 NA
ATOM     25  C   UNL     1      35.054 -23.936 -15.494  0.00  0.00    -0.004 C 
ATOM     26  C   UNL     1      36.067 -24.750 -15.177  0.00  0.00    +0.011 C 
ATOM     27  C   UNL     1      37.283 -23.973 -15.054  0.00  0.00    +0.080 C 
ATOM     28  C   UNL     1      35.745 -22.638 -15.551  0.00  0.00    +0.094 C 
ATOM     29  C   UNL     1      36.054 -26.176 -14.968  0.00  0.00    -0.020 C 
ATOM     30  C   UNL     1      38.445 -24.559 -14.741  0.00  0.00    +0.015 C 
ATOM     31  C   UNL     1      38.529 -26.054 -14.504  0.00  0.00    -0.020 C 
ATOM     32  C   UNL     1      37.209 -26.789 -14.652  0.00  0.00    +0.052 C 
ENDBRANCH  23  25
ENDBRANCH  18  23
ENDBRANCH  17  18
ENDBRANCH   1  17
TORSDOF 7
ENDMDL
MODEL 4
REMARK VINA RESULT:     -11.6      1.895      2.617
REMARK  Name = 46937052
REMARK  7 active torsions:
REMARK  status: ('A' for Active; 'I' for Inactive)
REMARK    1  A    between atoms: O_1  and  C_3
REMARK    2  A    between atoms: O_1  and  C_17
REMARK    3  A    between atoms: C_4  and  C_11
REMARK    4  A    between atoms: C_17  and  C_18
REMARK    5  A    between atoms: C_18  and  N_19
REMARK    6  A    between atoms: C_18  and  C_23
REMARK    7  A    between atoms: C_23  and  C_25
REMARK                            x       y       z     vdW  Elec       q    Type
REMARK                         _______ _______ _______ _____ _____    ______ ____
ROOT
ATOM      1  O   UNL     1      35.080 -21.236 -19.438  0.00  0.00    -0.476 OA
ENDROOT
BRANCH   1   3
ATOM      2  N   UNL     1      32.654 -23.187 -17.517  0.00  0.00    -0.239 NA
ATOM      3  C   UNL     1      34.554 -22.007 -18.434  0.00  0.00    +0.158 C 
ATOM      4  C   UNL     1      34.768 -23.176 -16.343  0.00  0.00    +0.039 C 
ATOM      5  C   UNL     1      35.328 -22.393 -17.346  0.00  0.00    +0.042 C 
ATOM      6  C   UNL     1      33.235 -22.427 -18.472  0.00  0.00    +0.136 C 
ATOM      7  C   UNL     1      33.438 -23.543 -16.474  0.00  0.00    +0.101 C 
BRANCH   4  11
ATOM      8  N   UNL     1      36.791 -23.964 -15.356  0.00  0.00    -0.264 NA
ATOM      9  N   UNL     1      37.458 -24.705 -11.785  0.00  0.00    -0.150 NA
ATOM     10  N   UNL     1      36.403 -24.533 -10.787  0.00  0.00    -0.147 NA
ATOM     11  C   UNL     1      35.569 -23.605 -15.165  0.00  0.00    +0.078 C 
ATOM     12  C   UNL     1      35.580 -23.969 -12.819  0.00  0.00    +0.040 C 
ATOM     13  C   UNL     1      36.958 -24.374 -12.946  0.00  0.00    +0.107 C 
ATOM     14  C   UNL     1      37.655 -24.398 -14.255  0.00  0.00    +0.173 C 
ATOM     15  C   UNL     1      34.853 -23.590 -13.858  0.00  0.00    +0.022 C 
ATOM     16  C   UNL     1      35.335 -24.114 -11.403  0.00  0.00    +0.123 C 
ENDBRANCH   4  11
ENDBRANCH   1   3
BRANCH   1  17
ATOM     17  C   UNL     1      34.156 -20.555 -20.275  0.00  0.00    +0.184 C 
BRANCH  17  18
ATOM     18  C   UNL     1      34.844 -19.392 -20.999  0.00  0.00    -0.017 C 
BRANCH  18  19
ATOM     19  N   UNL     1      36.262 -19.394 -20.628  0.00  0.00    +0.384 N 
ATOM     20  H   UNL     1      36.787 -19.957 -21.298  0.00  0.00    -0.089 HD
ATOM     21  H   UNL     1      36.369 -19.790 -19.694  0.00  0.00    -0.089 HD
ATOM     22  H   UNL     1      36.617 -18.438 -20.636  0.00  0.00    -0.089 HD
ENDBRANCH  18  19
BRANCH  18  23
ATOM     23  C   UNL     1      34.724 -19.480 -22.541  0.00  0.00    +0.010 C 
BRANCH  23  25
ATOM     24  N   UNL     1      34.674 -15.859 -23.470  0.00  0.00    -0.244 NA
ATOM     25  C   UNL     1      34.476 -18.192 -23.214  0.00  0.00    -0.004 C 
ATOM     26  C   UNL     1      33.801 -17.822 -24.309  0.00  0.00    +0.011 C 
ATOM     27  C   UNL     1      33.915 -16.388 -24.478  0.00  0.00    +0.080 C 
ATOM     28  C   UNL     1      34.992 -16.894 -22.751  0.00  0.00    +0.094 C 
ATOM     29  C   UNL     1      33.054 -18.639 -25.232  0.00  0.00    -0.020 C 
ATOM     30  C   UNL     1      33.323 -15.768 -25.506  0.00  0.00    +0.015 C 
ATOM     31  C   UNL     1      32.516 -16.544 -26.528  0.00  0.00    -0.020 C 
ATOM     32  C   UNL     1      32.451 -18.039 -26.274  0.00  0.00    +0.052 C 
ENDBRANCH  23  25
ENDBRANCH  18  23
ENDBRANCH  17  18
ENDBRANCH   1  17
TORSDOF 7
ENDMDL
MODEL 5
REMARK VINA RESULT:     -11.5      4.644     12.226
REMARK  Name = 46937052
REMARK  7 active torsions:
REMARK  status: ('A' for Active; 'I' for Inactive)
REMARK    1  A    between atoms: O_1  and  C_3
REMARK    2  A    between atoms: O_1  and  C_17
REMARK    3  A    between atoms: C_4  and  C_11
REMARK    4  A    between atoms: C_17  and  C_18
REMARK    5  A    between atoms: C_18  and  N_19
REMARK    6  A    between atoms: C_18  and  C_23
REMARK    7  A    between atoms: C_23  and  C_25
REMARK                            x       y       z     vdW  Elec       q    Type
REMARK                         _______ _______ _______ _____ _____    ______ ____
ROOT
ATOM      1  O   UNL     1      32.995 -18.579 -24.670  0.00  0.00    -0.476 OA
ENDROOT
BRANCH   1   3
ATOM      2  N   UNL     1      31.532 -17.230 -27.740  0.00  0.00    -0.239 NA
ATOM      3  C   UNL     1      32.654 -17.679 -25.646  0.00  0.00    +0.158 C 
ATOM      4  C   UNL     1      32.693 -15.459 -26.571  0.00  0.00    +0.039 C 
ATOM      5  C   UNL     1      33.054 -16.350 -25.567  0.00  0.00    +0.042 C 
ATOM      6  C   UNL     1      31.901 -18.065 -26.743  0.00  0.00    +0.136 C 
ATOM      7  C   UNL     1      31.938 -15.945 -27.627  0.00  0.00    +0.101 C 
BRANCH   4  11
ATOM      8  N   UNL     1      33.483 -13.462 -27.609  0.00  0.00    -0.264 NA
ATOM      9  N   UNL     1      34.152 -10.175 -26.032  0.00  0.00    -0.150 NA
ATOM     10  N   UNL     1      33.945  -9.990 -24.596  0.00  0.00    -0.147 NA
ATOM     11  C   UNL     1      33.105 -14.031 -26.517  0.00  0.00    +0.078 C 
ATOM     12  C   UNL     1      33.416 -12.124 -25.138  0.00  0.00    +0.040 C 
ATOM     13  C   UNL     1      33.842 -11.411 -26.317  0.00  0.00    +0.107 C 
ATOM     14  C   UNL     1      33.904 -12.060 -27.650  0.00  0.00    +0.173 C 
ATOM     15  C   UNL     1      33.052 -13.396 -25.170  0.00  0.00    +0.022 C 
ATOM     16  C   UNL     1      33.526 -11.121 -24.105  0.00  0.00    +0.123 C 
ENDBRANCH   4  11
ENDBRANCH   1   3
BRANCH   1  17
ATOM     17  C   UNL     1      34.324 -19.084 -24.699  0.00  0.00    +0.184 C 
BRANCH  17  18
ATOM     18  C   UNL     1      34.882 -19.203 -23.275  0.00  0.00    -0.017 C 
BRANCH  18  19
ATOM     19  N   UNL     1      36.059 -18.337 -23.170  0.00  0.00    +0.384 N 
ATOM     20  H   UNL     1      35.952 -17.715 -22.368  0.00  0.00    -0.089 HD
ATOM     21  H   UNL     1      36.151 -17.782 -24.020  0.00  0.00    -0.089 HD
ATOM     22  H   UNL     1      36.894 -18.910 -23.046  0.00  0.00    -0.089 HD
ENDBRANCH  18  19
BRANCH  18  23
ATOM     23  C   UNL     1      33.859 -18.802 -22.185  0.00  0.00    +0.010 C 
BRANCH  23  25
ATOM     24  N   UNL     1      32.294 -21.284 -19.868  0.00  0.00    -0.244 NA
ATOM     25  C   UNL     1      33.628 -19.826 -21.149  0.00  0.00    -0.004 C 
ATOM     26  C   UNL     1      34.417 -20.490 -20.297  0.00  0.00    +0.011 C 
ATOM     27  C   UNL     1      33.609 -21.391 -19.502  0.00  0.00    +0.080 C 
ATOM     28  C   UNL     1      32.312 -20.388 -20.809  0.00  0.00    +0.094 C 
ATOM     29  C   UNL     1      35.845 -20.397 -20.123  0.00  0.00    -0.020 C 
ATOM     30  C   UNL     1      34.166 -22.174 -18.570  0.00  0.00    +0.015 C 
ATOM     31  C   UNL     1      35.660 -22.144 -18.315  0.00  0.00    -0.020 C 
ATOM     32  C   UNL     1      36.429 -21.173 -19.193  0.00  0.00    +0.052 C 
ENDBRANCH  23  25
ENDBRANCH  18  23
ENDBRANCH  17  18
ENDBRANCH   1  17
TORSDOF 7
ENDMDL
MODEL 6
REMARK VINA RESULT:     -11.4      2.088      4.035
REMARK  Name = 46937052
REMARK  7 active torsions:
REMARK  status: ('A' for Active; 'I' for Inactive)
REMARK    1  A    between atoms: O_1  and  C_3
REMARK    2  A    between atoms: O_1  and  C_17
REMARK    3  A    between atoms: C_4  and  C_11
REMARK    4  A    between atoms: C_17  and  C_18
REMARK    5  A    between atoms: C_18  and  N_19
REMARK    6  A    between atoms: C_18  and  C_23
REMARK    7  A    between atoms: C_23  and  C_25
REMARK                            x       y       z     vdW  Elec       q    Type
REMARK                         _______ _______ _______ _____ _____    ______ ____
ROOT
ATOM      1  O   UNL     1      36.081 -21.250 -18.594  0.00  0.00    -0.476 OA
ENDROOT
BRANCH   1   3
ATOM      2  N   UNL     1      36.887 -22.935 -15.448  0.00  0.00    -0.239 NA
ATOM      3  C   UNL     1      35.912 -21.959 -17.433  0.00  0.00    +0.158 C 
ATOM      4  C   UNL     1      34.514 -23.133 -15.867  0.00  0.00    +0.039 C 
ATOM      5  C   UNL     1      34.656 -22.417 -17.050  0.00  0.00    +0.042 C 
ATOM      6  C   UNL     1      36.985 -22.241 -16.604  0.00  0.00    +0.136 C 
ATOM      7  C   UNL     1      35.651 -23.363 -15.108  0.00  0.00    +0.101 C 
BRANCH   4  11
ATOM      8  N   UNL     1      33.135 -24.421 -14.407  0.00  0.00    -0.264 NA
ATOM      9  N   UNL     1      29.451 -24.825 -14.504  0.00  0.00    -0.150 NA
ATOM     10  N   UNL     1      28.664 -24.158 -15.540  0.00  0.00    -0.147 NA
ATOM     11  C   UNL     1      33.184 -23.638 -15.429  0.00  0.00    +0.078 C 
ATOM     12  C   UNL     1      30.848 -23.642 -15.843  0.00  0.00    +0.040 C 
ATOM     13  C   UNL     1      30.704 -24.513 -14.702  0.00  0.00    +0.107 C 
ATOM     14  C   UNL     1      31.871 -24.964 -13.904  0.00  0.00    +0.173 C 
ATOM     15  C   UNL     1      32.023 -23.190 -16.248  0.00  0.00    +0.022 C 
ATOM     16  C   UNL     1      29.485 -23.489 -16.297  0.00  0.00    +0.123 C 
ENDBRANCH   4  11
ENDBRANCH   1   3
BRANCH   1  17
ATOM     17  C   UNL     1      35.493 -21.793 -19.768  0.00  0.00    +0.184 C 
BRANCH  17  18
ATOM     18  C   UNL     1      34.863 -20.680 -20.616  0.00  0.00    -0.017 C 
BRANCH  18  19
ATOM     19  N   UNL     1      33.502 -20.445 -20.126  0.00  0.00    +0.384 N 
ATOM     20  H   UNL     1      33.048 -19.742 -20.709  0.00  0.00    -0.089 HD
ATOM     21  H   UNL     1      33.539 -20.115 -19.162  0.00  0.00    -0.089 HD
ATOM     22  H   UNL     1      32.971 -21.315 -20.168  0.00  0.00    -0.089 HD
ENDBRANCH  18  19
BRANCH  18  23
ATOM     23  C   UNL     1      35.657 -19.352 -20.562  0.00  0.00    +0.010 C 
BRANCH  23  25
ATOM     24  N   UNL     1      35.039 -17.754 -23.884  0.00  0.00    -0.244 NA
ATOM     25  C   UNL     1      35.335 -18.397 -21.638  0.00  0.00    -0.004 C 
ATOM     26  C   UNL     1      34.973 -17.109 -21.670  0.00  0.00    +0.011 C 
ATOM     27  C   UNL     1      34.788 -16.700 -23.047  0.00  0.00    +0.080 C 
ATOM     28  C   UNL     1      35.351 -18.720 -23.074  0.00  0.00    +0.094 C 
ATOM     29  C   UNL     1      34.774 -16.196 -20.573  0.00  0.00    -0.020 C 
ATOM     30  C   UNL     1      34.422 -15.449 -23.349  0.00  0.00    +0.015 C 
ATOM     31  C   UNL     1      34.190 -14.417 -22.262  0.00  0.00    -0.020 C 
ATOM     32  C   UNL     1      34.406 -14.932 -20.851  0.00  0.00    +0.052 C 
ENDBRANCH  23  25
ENDBRANCH  18  23
ENDBRANCH  17  18
ENDBRANCH   1  17
TORSDOF 7
ENDMDL
MODEL 7
REMARK VINA RESULT:     -11.4      2.590      4.508
REMARK  Name = 46937052
REMARK  7 active torsions:
REMARK  status: ('A' for Active; 'I' for Inactive)
REMARK    1  A    between atoms: O_1  and  C_3
REMARK    2  A    between atoms: O_1  and  C_17
REMARK    3  A    between atoms: C_4  and  C_11
REMARK    4  A    between atoms: C_17  and  C_18
REMARK    5  A    between atoms: C_18  and  N_19
REMARK    6  A    between atoms: C_18  and  C_23
REMARK    7  A    between atoms: C_23  and  C_25
REMARK                            x       y       z     vdW  Elec       q    Type
REMARK                         _______ _______ _______ _____ _____    ______ ____
ROOT
ATOM      1  O   UNL     1      35.075 -21.471 -20.048  0.00  0.00    -0.476 OA
ENDROOT
BRANCH   1   3
ATOM      2  N   UNL     1      36.551 -22.148 -16.769  0.00  0.00    -0.239 NA
ATOM      3  C   UNL     1      35.182 -21.882 -18.744  0.00  0.00    +0.158 C 
ATOM      4  C   UNL     1      34.233 -22.837 -16.751  0.00  0.00    +0.039 C 
ATOM      5  C   UNL     1      34.095 -22.430 -18.074  0.00  0.00    +0.042 C 
ATOM      6  C   UNL     1      36.377 -21.763 -18.054  0.00  0.00    +0.136 C 
ATOM      7  C   UNL     1      35.471 -22.676 -16.150  0.00  0.00    +0.101 C 
BRANCH   4  11
ATOM      8  N   UNL     1      33.338 -24.074 -14.919  0.00  0.00    -0.264 NA
ATOM      9  N   UNL     1      29.790 -24.899 -14.231  0.00  0.00    -0.150 NA
ATOM     10  N   UNL     1      28.740 -24.463 -15.151  0.00  0.00    -0.147 NA
ATOM     11  C   UNL     1      33.089 -23.428 -16.005  0.00  0.00    +0.078 C 
ATOM     12  C   UNL     1      30.739 -23.748 -15.938  0.00  0.00    +0.040 C 
ATOM     13  C   UNL     1      30.930 -24.476 -14.708  0.00  0.00    +0.107 C 
ATOM     14  C   UNL     1      32.275 -24.686 -14.118  0.00  0.00    +0.173 C 
ATOM     15  C   UNL     1      31.746 -23.222 -16.616  0.00  0.00    +0.022 C 
ATOM     16  C   UNL     1      29.308 -23.809 -16.123  0.00  0.00    +0.123 C 
ENDBRANCH   4  11
ENDBRANCH   1   3
BRANCH   1  17
ATOM     17  C   UNL     1      34.060 -20.519 -20.338  0.00  0.00    +0.184 C 
BRANCH  17  18
ATOM     18  C   UNL     1      34.654 -19.312 -21.075  0.00  0.00    -0.017 C 
BRANCH  18  19
ATOM     19  N   UNL     1      36.042 -19.145 -20.640  0.00  0.00    +0.384 N 
ATOM     20  H   UNL     1      36.437 -18.310 -21.074  0.00  0.00    -0.089 HD
ATOM     21  H   UNL     1      36.587 -19.962 -20.916  0.00  0.00    -0.089 HD
ATOM     22  H   UNL     1      36.070 -19.045 -19.625  0.00  0.00    -0.089 HD
ENDBRANCH  18  19
BRANCH  18  23
ATOM     23  C   UNL     1      34.621 -19.465 -22.616  0.00  0.00    +0.010 C 
BRANCH  23  25
ATOM     24  N   UNL     1      34.553 -15.903 -23.749  0.00  0.00    -0.244 NA
ATOM     25  C   UNL     1      34.356 -18.217 -23.354  0.00  0.00    -0.004 C 
ATOM     26  C   UNL     1      33.647 -17.907 -24.446  0.00  0.00    +0.011 C 
ATOM     27  C   UNL     1      33.760 -16.485 -24.700  0.00  0.00    +0.080 C 
ATOM     28  C   UNL     1      34.890 -16.897 -22.983  0.00  0.00    +0.094 C 
ATOM     29  C   UNL     1      32.868 -18.771 -25.296  0.00  0.00    -0.020 C 
ATOM     30  C   UNL     1      33.137 -15.922 -25.743  0.00  0.00    +0.015 C 
ATOM     31  C   UNL     1      32.294 -16.751 -26.693  0.00  0.00    -0.020 C 
ATOM     32  C   UNL     1      32.233 -18.229 -26.351  0.00  0.00    +0.052 C 
ENDBRANCH  23  25
ENDBRANCH  18  23
ENDBRANCH  17  18
ENDBRANCH   1  17
TORSDOF 7
ENDMDL
MODEL 8
REMARK VINA RESULT:     -11.3      1.559      1.990
REMARK  Name = 46937052
REMARK  7 active torsions:
REMARK  status: ('A' for Active; 'I' for Inactive)
REMARK    1  A    between atoms: O_1  and  C_3
REMARK    2  A    between atoms: O_1  and  C_17
REMARK    3  A    between atoms: C_4  and  C_11
REMARK    4  A    between atoms: C_17  and  C_18
REMARK    5  A    between atoms: C_18  and  N_19
REMARK    6  A    between atoms: C_18  and  C_23
REMARK    7  A    between atoms: C_23  and  C_25
REMARK                            x       y       z     vdW  Elec       q    Type
REMARK                         _______ _______ _______ _____ _____    ______ ____
ROOT
ATOM      1  O   UNL     1      34.925 -21.085 -19.725  0.00  0.00    -0.476 OA
ENDROOT
BRANCH   1   3
ATOM      2  N   UNL     1      32.389 -22.907 -17.820  0.00  0.00    -0.239 NA
ATOM      3  C   UNL     1      34.357 -21.842 -18.734  0.00  0.00    +0.158 C 
ATOM      4  C   UNL     1      34.512 -23.079 -16.676  0.00  0.00    +0.039 C 
ATOM      5  C   UNL     1      35.115 -22.311 -17.667  0.00  0.00    +0.042 C 
ATOM      6  C   UNL     1      33.010 -22.165 -18.764  0.00  0.00    +0.136 C 
ATOM      7  C   UNL     1      33.158 -23.346 -16.798  0.00  0.00    +0.101 C 
BRANCH   4  11
ATOM      8  N   UNL     1      36.558 -23.795 -15.680  0.00  0.00    -0.264 NA
ATOM      9  N   UNL     1      37.121 -24.990 -12.217  0.00  0.00    -0.150 NA
ATOM     10  N   UNL     1      36.004 -25.078 -11.277  0.00  0.00    -0.147 NA
ATOM     11  C   UNL     1      35.295 -23.595 -15.521  0.00  0.00    +0.078 C 
ATOM     12  C   UNL     1      35.227 -24.303 -13.257  0.00  0.00    +0.040 C 
ATOM     13  C   UNL     1      36.647 -24.542 -13.348  0.00  0.00    +0.107 C 
ATOM     14  C   UNL     1      37.407 -24.298 -14.599  0.00  0.00    +0.173 C 
ATOM     15  C   UNL     1      34.517 -23.849 -14.277  0.00  0.00    +0.022 C 
ATOM     16  C   UNL     1      34.929 -24.683 -11.896  0.00  0.00    +0.123 C 
ENDBRANCH   4  11
ENDBRANCH   1   3
BRANCH   1  17
ATOM     17  C   UNL     1      34.036 -20.414 -20.608  0.00  0.00    +0.184 C 
BRANCH  17  18
ATOM     18  C   UNL     1      34.727 -19.202 -21.246  0.00  0.00    -0.017 C 
BRANCH  18  19
ATOM     19  N   UNL     1      36.004 -18.988 -20.560  0.00  0.00    +0.384 N 
ATOM     20  H   UNL     1      36.422 -18.115 -20.884  0.00  0.00    -0.089 HD
ATOM     21  H   UNL     1      36.635 -19.763 -20.766  0.00  0.00    -0.089 HD
ATOM     22  H   UNL     1      35.845 -18.935 -19.554  0.00  0.00    -0.089 HD
ENDBRANCH  18  19
BRANCH  18  23
ATOM     23  C   UNL     1      34.990 -19.381 -22.762  0.00  0.00    +0.010 C 
BRANCH  23  25
ATOM     24  N   UNL     1      33.393 -17.479 -25.556  0.00  0.00    -0.244 NA
ATOM     25  C   UNL     1      34.431 -18.317 -23.614  0.00  0.00    -0.004 C 
ATOM     26  C   UNL     1      34.292 -16.991 -23.488  0.00  0.00    +0.011 C 
ATOM     27  C   UNL     1      33.655 -16.464 -24.677  0.00  0.00    +0.080 C 
ATOM     28  C   UNL     1      33.838 -18.535 -24.944  0.00  0.00    +0.094 C 
ATOM     29  C   UNL     1      34.679 -16.140 -22.392  0.00  0.00    -0.020 C 
ATOM     30  C   UNL     1      33.402 -15.154 -24.797  0.00  0.00    +0.015 C 
ATOM     31  C   UNL     1      33.774 -14.181 -23.696  0.00  0.00    -0.020 C 
ATOM     32  C   UNL     1      34.436 -14.820 -22.489  0.00  0.00    +0.052 C 
ENDBRANCH  23  25
ENDBRANCH  18  23
ENDBRANCH  17  18
ENDBRANCH   1  17
TORSDOF 7
ENDMDL
MODEL 9
REMARK VINA RESULT:     -11.2      1.831      2.861
REMARK  Name = 46937052
REMARK  7 active torsions:
REMARK  status: ('A' for Active; 'I' for Inactive)
REMARK    1  A    between atoms: O_1  and  C_3
REMARK    2  A    between atoms: O_1  and  C_17
REMARK    3  A    between atoms: C_4  and  C_11
REMARK    4  A    between atoms: C_17  and  C_18
REMARK    5  A    between atoms: C_18  and  N_19
REMARK    6  A    between atoms: C_18  and  C_23
REMARK    7  A    between atoms: C_23  and  C_25
REMARK                            x       y       z     vdW  Elec       q    Type
REMARK                         _______ _______ _______ _____ _____    ______ ____
ROOT
ATOM      1  O   UNL     1      33.915 -22.383 -19.282  0.00  0.00    -0.476 OA
ENDROOT
BRANCH   1   3
ATOM      2  N   UNL     1      36.981 -21.553 -17.467  0.00  0.00    -0.239 NA
ATOM      3  C   UNL     1      34.824 -22.303 -18.259  0.00  0.00    +0.158 C 
ATOM      4  C   UNL     1      35.493 -22.763 -15.995  0.00  0.00    +0.039 C 
ATOM      5  C   UNL     1      34.553 -22.859 -17.014  0.00  0.00    +0.042 C 
ATOM      6  C   UNL     1      36.042 -21.666 -18.433  0.00  0.00    +0.136 C 
ATOM      7  C   UNL     1      36.682 -22.105 -16.270  0.00  0.00    +0.101 C 
BRANCH   4  11
ATOM      8  N   UNL     1      34.134 -23.992 -14.469  0.00  0.00    -0.264 NA
ATOM      9  N   UNL     1      34.835 -24.803 -10.920  0.00  0.00    -0.150 NA
ATOM     10  N   UNL     1      36.071 -24.341 -10.289  0.00  0.00    -0.147 NA
ATOM     11  C   UNL     1      35.234 -23.347 -14.651  0.00  0.00    +0.078 C 
ATOM     12  C   UNL     1      36.048 -23.638 -12.441  0.00  0.00    +0.040 C 
ATOM     13  C   UNL     1      34.847 -24.384 -12.157  0.00  0.00    +0.107 C 
ATOM     14  C   UNL     1      33.795 -24.603 -13.181  0.00  0.00    +0.173 C 
ATOM     15  C   UNL     1      36.290 -23.107 -13.629  0.00  0.00    +0.022 C 
ATOM     16  C   UNL     1      36.748 -23.674 -11.179  0.00  0.00    +0.123 C 
ENDBRANCH   4  11
ENDBRANCH   1   3
BRANCH   1  17
ATOM     17  C   UNL     1      33.044 -21.273 -19.453  0.00  0.00    +0.184 C 
BRANCH  17  18
ATOM     18  C   UNL     1      33.294 -20.598 -20.807  0.00  0.00    -0.017 C 
BRANCH  18  19
ATOM     19  N   UNL     1      32.217 -19.635 -21.047  0.00  0.00    +0.384 N 
ATOM     20  H   UNL     1      32.522 -18.949 -21.738  0.00  0.00    -0.089 HD
ATOM     21  H   UNL     1      31.985 -19.159 -20.175  0.00  0.00    -0.089 HD
ATOM     22  H   UNL     1      31.393 -20.126 -21.396  0.00  0.00    -0.089 HD
ENDBRANCH  18  19
BRANCH  18  23
ATOM     23  C   UNL     1      34.656 -19.863 -20.877  0.00  0.00    +0.010 C 
BRANCH  23  25
ATOM     24  N   UNL     1      34.822 -16.302 -22.002  0.00  0.00    -0.244 NA
ATOM     25  C   UNL     1      34.649 -18.629 -21.684  0.00  0.00    -0.004 C 
ATOM     26  C   UNL     1      34.476 -18.361 -22.984  0.00  0.00    +0.011 C 
ATOM     27  C   UNL     1      34.580 -16.932 -23.193  0.00  0.00    +0.080 C 
ATOM     28  C   UNL     1      34.860 -17.277 -21.144  0.00  0.00    +0.094 C 
ATOM     29  C   UNL     1      34.225 -19.272 -24.071  0.00  0.00    -0.020 C 
ATOM     30  C   UNL     1      34.444 -16.405 -24.416  0.00  0.00    +0.015 C 
ATOM     31  C   UNL     1      34.177 -17.284 -25.622  0.00  0.00    -0.020 C 
ATOM     32  C   UNL     1      34.085 -18.767 -25.310  0.00  0.00    +0.052 C 
ENDBRANCH  23  25
ENDBRANCH  18  23
ENDBRANCH  17  18
ENDBRANCH   1  17
TORSDOF 7
ENDMDL
