MODEL 1
REMARK VINA RESULT:     -12.2      0.000      0.000
REMARK  Name = 17758361
REMARK  5 active torsions:
REMARK  status: ('A' for Active; 'I' for Inactive)
REMARK    1  A    between atoms: N_1  and  C_18
REMARK    2  A    between atoms: C_4  and  C_10
REMARK    3  A    between atoms: C_10  and  C_11
REMARK    4  A    between atoms: C_18  and  C_19
REMARK    5  A    between atoms: C_22  and  C_27
REMARK                            x       y       z     vdW  Elec       q    Type
REMARK                         _______ _______ _______ _____ _____    ______ ____
ROOT
ATOM      1  N   UNL     1      34.436 -22.828 -17.797  0.00  0.00    -0.314 N 
ATOM      2  N   UNL     1      35.525 -23.616 -15.865  0.00  0.00    -0.229 NA
ATOM      3  C   UNL     1      34.385 -23.209 -16.467  0.00  0.00    +0.129 C 
ATOM      4  C   UNL     1      33.087 -23.530 -14.501  0.00  0.00    +0.043 C 
ATOM      5  C   UNL     1      33.153 -23.149 -15.837  0.00  0.00    +0.037 C 
ATOM      6  C   UNL     1      34.239 -23.954 -13.847  0.00  0.00    +0.024 C 
ATOM      7  C   UNL     1      35.422 -23.979 -14.567  0.00  0.00    +0.100 C 
ATOM      8  H   UNL     1      35.306 -22.865 -18.258  0.00  0.00    +0.149 HD
ENDROOT
BRANCH   4  10
ATOM      9  O   UNL     1      31.774 -23.102 -12.613  0.00  0.00    -0.287 OA
ATOM     10  C   UNL     1      31.819 -23.487 -13.790  0.00  0.00    +0.196 C 
BRANCH  10  11
ATOM     11  C   UNL     1      30.530 -23.895 -14.427  0.00  0.00    +0.039 C 
ATOM     12  C   UNL     1      29.696 -22.931 -14.995  0.00  0.00    -0.001 C 
ATOM     13  C   UNL     1      28.494 -23.312 -15.590  0.00  0.00    -0.022 C 
ATOM     14  C   UNL     1      30.162 -25.239 -14.456  0.00  0.00    +0.003 C 
ATOM     15  C   UNL     1      28.126 -24.658 -15.618  0.00  0.00    -0.004 C 
ATOM     16  C   UNL     1      28.960 -25.621 -15.052  0.00  0.00    -0.000 C 
ATOM     17  C   UNL     1      27.603 -22.283 -16.199  0.00  0.00    +0.031 C 
ENDBRANCH  10  11
ENDBRANCH   4  10
BRANCH   1  18
ATOM     18  C   UNL     1      33.283 -22.378 -18.546  0.00  0.00    +0.115 C 
BRANCH  18  19
ATOM     19  C   UNL     1      33.677 -21.384 -19.587  0.00  0.00    -0.003 C 
ATOM     20  C   UNL     1      35.026 -21.139 -19.840  0.00  0.00    -0.003 C 
ATOM     21  C   UNL     1      32.696 -20.700 -20.305  0.00  0.00    -0.003 C 
ATOM     22  C   UNL     1      34.414 -19.525 -21.530  0.00  0.00    +0.031 C 
ATOM     23  C   UNL     1      35.394 -20.208 -20.812  0.00  0.00    +0.002 C 
ATOM     24  C   UNL     1      33.065 -19.771 -21.276  0.00  0.00    +0.002 C 
BRANCH  22  27
ATOM     25  N   UNL     1      36.130 -18.184 -22.724  0.00  0.00    -0.343 N 
ATOM     26  N   UNL     1      33.876 -18.005 -23.312  0.00  0.00    -0.285 NA
ATOM     27  C   UNL     1      34.799 -18.555 -22.543  0.00  0.00    +0.117 C 
ATOM     28  H   UNL     1      36.369 -17.526 -23.416  0.00  0.00    +0.144 HD
ATOM     29  H   UNL     1      36.833 -18.581 -22.159  0.00  0.00    +0.144 HD
ATOM     30  H   UNL     1      34.134 -17.349 -23.999  0.00  0.00    +0.188 HD
ENDBRANCH  22  27
ENDBRANCH  18  19
ENDBRANCH   1  18
TORSDOF 5
ENDMDL
MODEL 2
REMARK VINA RESULT:     -12.1      1.687      4.761
REMARK  Name = 17758361
REMARK  5 active torsions:
REMARK  status: ('A' for Active; 'I' for Inactive)
REMARK    1  A    between atoms: N_1  and  C_18
REMARK    2  A    between atoms: C_4  and  C_10
REMARK    3  A    between atoms: C_10  and  C_11
REMARK    4  A    between atoms: C_18  and  C_19
REMARK    5  A    between atoms: C_22  and  C_27
REMARK                            x       y       z     vdW  Elec       q    Type
REMARK                         _______ _______ _______ _____ _____    ______ ____
ROOT
ATOM      1  N   UNL     1      32.269 -22.616 -18.469  0.00  0.00    -0.314 N 
ATOM      2  N   UNL     1      30.605 -22.713 -16.807  0.00  0.00    -0.229 NA
ATOM      3  C   UNL     1      31.900 -22.872 -17.159  0.00  0.00    +0.129 C 
ATOM      4  C   UNL     1      32.543 -23.537 -14.969  0.00  0.00    +0.043 C 
ATOM      5  C   UNL     1      32.898 -23.278 -16.288  0.00  0.00    +0.037 C 
ATOM      6  C   UNL     1      31.220 -23.385 -14.568  0.00  0.00    +0.024 C 
ATOM      7  C   UNL     1      30.297 -22.974 -15.517  0.00  0.00    +0.100 C 
ATOM      8  H   UNL     1      31.570 -22.328 -19.100  0.00  0.00    +0.149 HD
ENDROOT
BRANCH   4  10
ATOM      9  O   UNL     1      33.218 -24.330 -12.874  0.00  0.00    -0.287 OA
ATOM     10  C   UNL     1      33.550 -23.966 -14.011  0.00  0.00    +0.196 C 
BRANCH  10  11
ATOM     11  C   UNL     1      35.008 -23.989 -14.339  0.00  0.00    +0.039 C 
ATOM     12  C   UNL     1      35.844 -24.930 -13.737  0.00  0.00    -0.001 C 
ATOM     13  C   UNL     1      37.204 -24.952 -14.044  0.00  0.00    -0.022 C 
ATOM     14  C   UNL     1      35.532 -23.071 -15.248  0.00  0.00    +0.003 C 
ATOM     15  C   UNL     1      37.729 -24.034 -14.954  0.00  0.00    -0.004 C 
ATOM     16  C   UNL     1      36.893 -23.094 -15.556  0.00  0.00    -0.000 C 
ATOM     17  C   UNL     1      38.098 -25.960 -13.403  0.00  0.00    +0.031 C 
ENDBRANCH  10  11
ENDBRANCH   4  10
BRANCH   1  18
ATOM     18  C   UNL     1      33.622 -22.750 -18.961  0.00  0.00    +0.115 C 
BRANCH  18  19
ATOM     19  C   UNL     1      34.049 -21.521 -19.693  0.00  0.00    -0.003 C 
ATOM     20  C   UNL     1      33.092 -20.687 -20.270  0.00  0.00    -0.003 C 
ATOM     21  C   UNL     1      35.404 -21.208 -19.800  0.00  0.00    -0.003 C 
ATOM     22  C   UNL     1      34.844 -19.226 -21.063  0.00  0.00    +0.031 C 
ATOM     23  C   UNL     1      33.490 -19.540 -20.956  0.00  0.00    +0.002 C 
ATOM     24  C   UNL     1      35.801 -20.061 -20.485  0.00  0.00    +0.002 C 
BRANCH  22  27
ATOM     25  N   UNL     1      36.012 -18.107 -22.947  0.00  0.00    -0.343 N 
ATOM     26  N   UNL     1      34.922 -16.838 -21.316  0.00  0.00    -0.285 NA
ATOM     27  C   UNL     1      35.258 -18.030 -21.778  0.00  0.00    +0.117 C 
ATOM     28  H   UNL     1      36.282 -17.284 -23.415  0.00  0.00    +0.144 HD
ATOM     29  H   UNL     1      36.276 -18.986 -23.306  0.00  0.00    +0.144 HD
ATOM     30  H   UNL     1      35.201 -16.026 -21.798  0.00  0.00    +0.188 HD
ENDBRANCH  22  27
ENDBRANCH  18  19
ENDBRANCH   1  18
TORSDOF 5
ENDMDL
MODEL 3
REMARK VINA RESULT:     -12.0      5.036     11.008
REMARK  Name = 17758361
REMARK  5 active torsions:
REMARK  status: ('A' for Active; 'I' for Inactive)
REMARK    1  A    between atoms: N_1  and  C_18
REMARK    2  A    between atoms: C_4  and  C_10
REMARK    3  A    between atoms: C_10  and  C_11
REMARK    4  A    between atoms: C_18  and  C_19
REMARK    5  A    between atoms: C_22  and  C_27
REMARK                            x       y       z     vdW  Elec       q    Type
REMARK                         _______ _______ _______ _____ _____    ______ ____
ROOT
ATOM      1  N   UNL     1      35.345 -17.689 -21.236  0.00  0.00    -0.314 N 
ATOM      2  N   UNL     1      34.673 -15.463 -21.601  0.00  0.00    -0.229 NA
ATOM      3  C   UNL     1      34.875 -16.707 -22.091  0.00  0.00    +0.129 C 
ATOM      4  C   UNL     1      34.164 -16.094 -24.276  0.00  0.00    +0.043 C 
ATOM      5  C   UNL     1      34.638 -17.070 -23.407  0.00  0.00    +0.037 C 
ATOM      6  C   UNL     1      33.944 -14.802 -23.808  0.00  0.00    +0.024 C 
ATOM      7  C   UNL     1      34.211 -14.541 -22.474  0.00  0.00    +0.100 C 
ATOM      8  H   UNL     1      35.519 -17.445 -20.298  0.00  0.00    +0.149 HD
ENDROOT
BRANCH   4  10
ATOM      9  O   UNL     1      34.573 -17.284 -26.248  0.00  0.00    -0.287 OA
ATOM     10  C   UNL     1      33.898 -16.421 -25.668  0.00  0.00    +0.196 C 
BRANCH  10  11
ATOM     11  C   UNL     1      32.821 -15.749 -26.456  0.00  0.00    +0.039 C 
ATOM     12  C   UNL     1      32.875 -14.372 -26.679  0.00  0.00    -0.001 C 
ATOM     13  C   UNL     1      31.870 -13.745 -27.415  0.00  0.00    -0.022 C 
ATOM     14  C   UNL     1      31.764 -16.498 -26.971  0.00  0.00    +0.003 C 
ATOM     15  C   UNL     1      30.812 -14.495 -27.930  0.00  0.00    -0.004 C 
ATOM     16  C   UNL     1      30.759 -15.870 -27.708  0.00  0.00    -0.000 C 
ATOM     17  C   UNL     1      31.928 -12.274 -27.655  0.00  0.00    +0.031 C 
ENDBRANCH  10  11
ENDBRANCH   4  10
BRANCH   1  18
ATOM     18  C   UNL     1      35.597 -19.053 -21.647  0.00  0.00    +0.115 C 
BRANCH  18  19
ATOM     19  C   UNL     1      34.891 -20.018 -20.754  0.00  0.00    -0.003 C 
ATOM     20  C   UNL     1      33.497 -20.030 -20.705  0.00  0.00    -0.003 C 
ATOM     21  C   UNL     1      35.625 -20.908 -19.968  0.00  0.00    -0.003 C 
ATOM     22  C   UNL     1      33.570 -21.820 -19.085  0.00  0.00    +0.031 C 
ATOM     23  C   UNL     1      32.837 -20.931 -19.870  0.00  0.00    +0.002 C 
ATOM     24  C   UNL     1      34.964 -21.808 -19.134  0.00  0.00    +0.002 C 
BRANCH  22  27
ATOM     25  N   UNL     1      31.589 -22.508 -17.754  0.00  0.00    -0.343 N 
ATOM     26  N   UNL     1      33.482 -23.875 -17.843  0.00  0.00    -0.285 NA
ATOM     27  C   UNL     1      32.880 -22.759 -18.214  0.00  0.00    +0.117 C 
ATOM     28  H   UNL     1      31.140 -23.157 -17.166  0.00  0.00    +0.144 HD
ATOM     29  H   UNL     1      31.125 -21.680 -18.018  0.00  0.00    +0.144 HD
ATOM     30  H   UNL     1      33.017 -24.513 -17.254  0.00  0.00    +0.188 HD
ENDBRANCH  22  27
ENDBRANCH  18  19
ENDBRANCH   1  18
TORSDOF 5
ENDMDL
MODEL 4
REMARK VINA RESULT:     -11.5      4.054      9.440
REMARK  Name = 17758361
REMARK  5 active torsions:
REMARK  status: ('A' for Active; 'I' for Inactive)
REMARK    1  A    between atoms: N_1  and  C_18
REMARK    2  A    between atoms: C_4  and  C_10
REMARK    3  A    between atoms: C_10  and  C_11
REMARK    4  A    between atoms: C_18  and  C_19
REMARK    5  A    between atoms: C_22  and  C_27
REMARK                            x       y       z     vdW  Elec       q    Type
REMARK                         _______ _______ _______ _____ _____    ______ ____
ROOT
ATOM      1  N   UNL     1      34.385 -22.236 -18.194  0.00  0.00    -0.314 N 
ATOM      2  N   UNL     1      32.695 -21.472 -19.643  0.00  0.00    -0.229 NA
ATOM      3  C   UNL     1      33.983 -21.416 -19.235  0.00  0.00    +0.129 C 
ATOM      4  C   UNL     1      34.550 -19.759 -20.843  0.00  0.00    +0.043 C 
ATOM      5  C   UNL     1      34.940 -20.586 -19.796  0.00  0.00    +0.037 C 
ATOM      6  C   UNL     1      33.234 -19.788 -21.291  0.00  0.00    +0.024 C 
ATOM      7  C   UNL     1      32.353 -20.654 -20.664  0.00  0.00    +0.100 C 
ATOM      8  H   UNL     1      33.715 -22.831 -17.785  0.00  0.00    +0.149 HD
ENDROOT
BRANCH   4  10
ATOM      9  O   UNL     1      36.719 -18.955 -21.190  0.00  0.00    -0.287 OA
ATOM     10  C   UNL     1      35.514 -18.868 -21.469  0.00  0.00    +0.196 C 
BRANCH  10  11
ATOM     11  C   UNL     1      35.113 -17.823 -22.459  0.00  0.00    +0.039 C 
ATOM     12  C   UNL     1      34.875 -16.515 -22.036  0.00  0.00    -0.001 C 
ATOM     13  C   UNL     1      34.502 -15.540 -22.960  0.00  0.00    -0.022 C 
ATOM     14  C   UNL     1      34.979 -18.155 -23.807  0.00  0.00    +0.003 C 
ATOM     15  C   UNL     1      34.368 -15.872 -24.308  0.00  0.00    -0.004 C 
ATOM     16  C   UNL     1      34.607 -17.180 -24.732  0.00  0.00    -0.000 C 
ATOM     17  C   UNL     1      34.249 -14.141 -22.508  0.00  0.00    +0.031 C 
ENDBRANCH  10  11
ENDBRANCH   4  10
BRANCH   1  18
ATOM     18  C   UNL     1      35.734 -22.265 -17.674  0.00  0.00    +0.115 C 
BRANCH  18  19
ATOM     19  C   UNL     1      35.760 -22.806 -16.284  0.00  0.00    -0.003 C 
ATOM     20  C   UNL     1      36.962 -22.862 -15.580  0.00  0.00    -0.003 C 
ATOM     21  C   UNL     1      34.581 -23.258 -15.689  0.00  0.00    -0.003 C 
ATOM     22  C   UNL     1      35.809 -23.821 -13.686  0.00  0.00    +0.031 C 
ATOM     23  C   UNL     1      36.987 -23.369 -14.281  0.00  0.00    +0.002 C 
ATOM     24  C   UNL     1      34.606 -23.765 -14.390  0.00  0.00    +0.002 C 
BRANCH  22  27
ATOM     25  N   UNL     1      36.985 -24.277 -11.547  0.00  0.00    -0.343 N 
ATOM     26  N   UNL     1      34.754 -24.916 -11.826  0.00  0.00    -0.285 NA
ATOM     27  C   UNL     1      35.835 -24.349 -12.332  0.00  0.00    +0.117 C 
ATOM     28  H   UNL     1      36.981 -24.641 -10.632  0.00  0.00    +0.144 HD
ATOM     29  H   UNL     1      37.802 -23.861 -11.908  0.00  0.00    +0.144 HD
ATOM     30  H   UNL     1      34.770 -25.274 -10.909  0.00  0.00    +0.188 HD
ENDBRANCH  22  27
ENDBRANCH  18  19
ENDBRANCH   1  18
TORSDOF 5
ENDMDL
MODEL 5
REMARK VINA RESULT:     -11.5      4.131     10.273
REMARK  Name = 17758361
REMARK  5 active torsions:
REMARK  status: ('A' for Active; 'I' for Inactive)
REMARK    1  A    between atoms: N_1  and  C_18
REMARK    2  A    between atoms: C_4  and  C_10
REMARK    3  A    between atoms: C_10  and  C_11
REMARK    4  A    between atoms: C_18  and  C_19
REMARK    5  A    between atoms: C_22  and  C_27
REMARK                            x       y       z     vdW  Elec       q    Type
REMARK                         _______ _______ _______ _____ _____    ______ ____
ROOT
ATOM      1  N   UNL     1      35.002 -19.509 -20.322  0.00  0.00    -0.314 N 
ATOM      2  N   UNL     1      35.017 -17.254 -20.996  0.00  0.00    -0.229 NA
ATOM      3  C   UNL     1      34.826 -18.555 -21.310  0.00  0.00    +0.129 C 
ATOM      4  C   UNL     1      34.277 -18.058 -23.569  0.00  0.00    +0.043 C 
ATOM      5  C   UNL     1      34.459 -19.005 -22.568  0.00  0.00    +0.037 C 
ATOM      6  C   UNL     1      34.464 -16.709 -23.285  0.00  0.00    +0.024 C 
ATOM      7  C   UNL     1      34.831 -16.362 -21.995  0.00  0.00    +0.100 C 
ATOM      8  H   UNL     1      35.264 -19.204 -19.423  0.00  0.00    +0.149 HD
ENDROOT
BRANCH   4  10
ATOM      9  O   UNL     1      34.207 -19.596 -25.330  0.00  0.00    -0.287 OA
ATOM     10  C   UNL     1      33.891 -18.474 -24.908  0.00  0.00    +0.196 C 
BRANCH  10  11
ATOM     11  C   UNL     1      33.109 -17.592 -25.827  0.00  0.00    +0.039 C 
ATOM     12  C   UNL     1      33.613 -16.342 -26.189  0.00  0.00    -0.001 C 
ATOM     13  C   UNL     1      32.885 -15.519 -27.047  0.00  0.00    -0.022 C 
ATOM     14  C   UNL     1      31.879 -18.018 -26.323  0.00  0.00    +0.003 C 
ATOM     15  C   UNL     1      31.653 -15.945 -27.544  0.00  0.00    -0.004 C 
ATOM     16  C   UNL     1      31.150 -17.195 -27.183  0.00  0.00    -0.000 C 
ATOM     17  C   UNL     1      33.424 -14.184 -27.437  0.00  0.00    +0.031 C 
ENDBRANCH  10  11
ENDBRANCH   4  10
BRANCH   1  18
ATOM     18  C   UNL     1      34.824 -20.928 -20.538  0.00  0.00    +0.115 C 
BRANCH  18  19
ATOM     19  C   UNL     1      34.712 -21.657 -19.241  0.00  0.00    -0.003 C 
ATOM     20  C   UNL     1      33.519 -22.294 -18.901  0.00  0.00    -0.003 C 
ATOM     21  C   UNL     1      35.800 -21.699 -18.368  0.00  0.00    -0.003 C 
ATOM     22  C   UNL     1      34.501 -23.016 -16.815  0.00  0.00    +0.031 C 
ATOM     23  C   UNL     1      33.414 -22.974 -17.687  0.00  0.00    +0.002 C 
ATOM     24  C   UNL     1      35.694 -22.379 -17.155  0.00  0.00    +0.002 C 
BRANCH  22  27
ATOM     25  N   UNL     1      33.704 -23.177 -14.468  0.00  0.00    -0.343 N 
ATOM     26  N   UNL     1      34.950 -24.914 -15.412  0.00  0.00    -0.285 NA
ATOM     27  C   UNL     1      34.390 -23.726 -15.550  0.00  0.00    +0.117 C 
ATOM     28  H   UNL     1      33.641 -23.674 -13.621  0.00  0.00    +0.144 HD
ATOM     29  H   UNL     1      33.283 -22.290 -14.551  0.00  0.00    +0.144 HD
ATOM     30  H   UNL     1      34.876 -25.397 -14.557  0.00  0.00    +0.188 HD
ENDBRANCH  22  27
ENDBRANCH  18  19
ENDBRANCH   1  18
TORSDOF 5
ENDMDL
MODEL 6
REMARK VINA RESULT:     -11.4      5.371     10.705
REMARK  Name = 17758361
REMARK  5 active torsions:
REMARK  status: ('A' for Active; 'I' for Inactive)
REMARK    1  A    between atoms: N_1  and  C_18
REMARK    2  A    between atoms: C_4  and  C_10
REMARK    3  A    between atoms: C_10  and  C_11
REMARK    4  A    between atoms: C_18  and  C_19
REMARK    5  A    between atoms: C_22  and  C_27
REMARK                            x       y       z     vdW  Elec       q    Type
REMARK                         _______ _______ _______ _____ _____    ______ ____
ROOT
ATOM      1  N   UNL     1      34.811 -17.927 -23.845  0.00  0.00    -0.314 N 
ATOM      2  N   UNL     1      33.672 -17.091 -25.728  0.00  0.00    -0.229 NA
ATOM      3  C   UNL     1      34.213 -16.869 -24.509  0.00  0.00    +0.129 C 
ATOM      4  C   UNL     1      33.616 -14.568 -24.528  0.00  0.00    +0.043 C 
ATOM      5  C   UNL     1      34.212 -15.639 -23.872  0.00  0.00    +0.037 C 
ATOM      6  C   UNL     1      33.048 -14.756 -25.783  0.00  0.00    +0.024 C 
ATOM      7  C   UNL     1      33.102 -16.026 -26.335  0.00  0.00    +0.100 C 
ATOM      8  H   UNL     1      34.819 -18.807 -24.286  0.00  0.00    +0.149 HD
ENDROOT
BRANCH   4  10
ATOM      9  O   UNL     1      34.158 -12.294 -24.442  0.00  0.00    -0.287 OA
ATOM     10  C   UNL     1      33.587 -13.253 -23.905  0.00  0.00    +0.196 C 
BRANCH  10  11
ATOM     11  C   UNL     1      32.882 -12.996 -22.612  0.00  0.00    +0.039 C 
ATOM     12  C   UNL     1      31.963 -11.951 -22.515  0.00  0.00    -0.001 C 
ATOM     13  C   UNL     1      31.305 -11.711 -21.309  0.00  0.00    -0.022 C 
ATOM     14  C   UNL     1      33.143 -13.801 -21.504  0.00  0.00    +0.003 C 
ATOM     15  C   UNL     1      31.565 -12.517 -20.200  0.00  0.00    -0.004 C 
ATOM     16  C   UNL     1      32.484 -13.562 -20.298  0.00  0.00    -0.000 C 
ATOM     17  C   UNL     1      30.319 -10.597 -21.205  0.00  0.00    +0.031 C 
ENDBRANCH  10  11
ENDBRANCH   4  10
BRANCH   1  18
ATOM     18  C   UNL     1      35.424 -17.809 -22.540  0.00  0.00    +0.115 C 
BRANCH  18  19
ATOM     19  C   UNL     1      34.952 -18.892 -21.629  0.00  0.00    -0.003 C 
ATOM     20  C   UNL     1      35.875 -19.631 -20.889  0.00  0.00    -0.003 C 
ATOM     21  C   UNL     1      33.589 -19.167 -21.519  0.00  0.00    -0.003 C 
ATOM     22  C   UNL     1      34.072 -20.919 -19.927  0.00  0.00    +0.031 C 
ATOM     23  C   UNL     1      35.434 -20.644 -20.038  0.00  0.00    +0.002 C 
ATOM     24  C   UNL     1      33.149 -20.180 -20.668  0.00  0.00    +0.002 C 
BRANCH  22  27
ATOM     25  N   UNL     1      32.257 -22.182 -18.797  0.00  0.00    -0.343 N 
ATOM     26  N   UNL     1      34.494 -22.761 -18.443  0.00  0.00    -0.285 NA
ATOM     27  C   UNL     1      33.614 -21.976 -19.040  0.00  0.00    +0.117 C 
ATOM     28  H   UNL     1      31.969 -22.904 -18.193  0.00  0.00    +0.144 HD
ATOM     29  H   UNL     1      31.586 -21.606 -19.230  0.00  0.00    +0.144 HD
ATOM     30  H   UNL     1      34.186 -23.477 -17.842  0.00  0.00    +0.188 HD
ENDBRANCH  22  27
ENDBRANCH  18  19
ENDBRANCH   1  18
TORSDOF 5
ENDMDL
MODEL 7
REMARK VINA RESULT:     -11.3      5.284     11.441
REMARK  Name = 17758361
REMARK  5 active torsions:
REMARK  status: ('A' for Active; 'I' for Inactive)
REMARK    1  A    between atoms: N_1  and  C_18
REMARK    2  A    between atoms: C_4  and  C_10
REMARK    3  A    between atoms: C_10  and  C_11
REMARK    4  A    between atoms: C_18  and  C_19
REMARK    5  A    between atoms: C_22  and  C_27
REMARK                            x       y       z     vdW  Elec       q    Type
REMARK                         _______ _______ _______ _____ _____    ______ ____
ROOT
ATOM      1  N   UNL     1      35.489 -18.127 -23.357  0.00  0.00    -0.314 N 
ATOM      2  N   UNL     1      34.430 -17.114 -25.199  0.00  0.00    -0.229 NA
ATOM      3  C   UNL     1      34.791 -17.060 -23.897  0.00  0.00    +0.129 C 
ATOM      4  C   UNL     1      33.810 -14.917 -23.587  0.00  0.00    +0.043 C 
ATOM      5  C   UNL     1      34.508 -15.996 -23.057  0.00  0.00    +0.037 C 
ATOM      6  C   UNL     1      33.420 -14.935 -24.922  0.00  0.00    +0.024 C 
ATOM      7  C   UNL     1      33.752 -16.047 -25.679  0.00  0.00    +0.100 C 
ATOM      8  H   UNL     1      35.696 -18.891 -23.942  0.00  0.00    +0.149 HD
ENDROOT
BRANCH   4  10
ATOM      9  O   UNL     1      33.330 -13.915 -21.528  0.00  0.00    -0.287 OA
ATOM     10  C   UNL     1      33.487 -13.772 -22.749  0.00  0.00    +0.196 C 
BRANCH  10  11
ATOM     11  C   UNL     1      33.329 -12.393 -23.304  0.00  0.00    +0.039 C 
ATOM     12  C   UNL     1      34.174 -11.951 -24.323  0.00  0.00    -0.001 C 
ATOM     13  C   UNL     1      34.027 -10.665 -24.841  0.00  0.00    -0.022 C 
ATOM     14  C   UNL     1      32.338 -11.551 -22.804  0.00  0.00    +0.003 C 
ATOM     15  C   UNL     1      33.034  -9.821 -24.341  0.00  0.00    -0.004 C 
ATOM     16  C   UNL     1      32.190 -10.264 -23.323  0.00  0.00    -0.000 C 
ATOM     17  C   UNL     1      34.927 -10.192 -25.931  0.00  0.00    +0.031 C 
ENDBRANCH  10  11
ENDBRANCH   4  10
BRANCH   1  18
ATOM     18  C   UNL     1      35.929 -18.180 -21.980  0.00  0.00    +0.115 C 
BRANCH  18  19
ATOM     19  C   UNL     1      35.219 -19.260 -21.234  0.00  0.00    -0.003 C 
ATOM     20  C   UNL     1      33.830 -19.359 -21.306  0.00  0.00    -0.003 C 
ATOM     21  C   UNL     1      35.945 -20.170 -20.464  0.00  0.00    -0.003 C 
ATOM     22  C   UNL     1      33.891 -21.277 -19.839  0.00  0.00    +0.031 C 
ATOM     23  C   UNL     1      33.166 -20.368 -20.608  0.00  0.00    +0.002 C 
ATOM     24  C   UNL     1      35.281 -21.178 -19.767  0.00  0.00    +0.002 C 
BRANCH  22  27
ATOM     25  N   UNL     1      32.038 -22.064 -18.385  0.00  0.00    -0.343 N 
ATOM     26  N   UNL     1      33.670 -23.562 -19.129  0.00  0.00    -0.285 NA
ATOM     27  C   UNL     1      33.198 -22.328 -19.111  0.00  0.00    +0.117 C 
ATOM     28  H   UNL     1      31.584 -22.791 -17.900  0.00  0.00    +0.144 HD
ATOM     29  H   UNL     1      31.672 -21.150 -18.357  0.00  0.00    +0.144 HD
ATOM     30  H   UNL     1      33.203 -24.275 -18.637  0.00  0.00    +0.188 HD
ENDBRANCH  22  27
ENDBRANCH  18  19
ENDBRANCH   1  18
TORSDOF 5
ENDMDL
MODEL 8
REMARK VINA RESULT:     -11.2      5.467     11.861
REMARK  Name = 17758361
REMARK  5 active torsions:
REMARK  status: ('A' for Active; 'I' for Inactive)
REMARK    1  A    between atoms: N_1  and  C_18
REMARK    2  A    between atoms: C_4  and  C_10
REMARK    3  A    between atoms: C_10  and  C_11
REMARK    4  A    between atoms: C_18  and  C_19
REMARK    5  A    between atoms: C_22  and  C_27
REMARK                            x       y       z     vdW  Elec       q    Type
REMARK                         _______ _______ _______ _____ _____    ______ ____
ROOT
ATOM      1  N   UNL     1      35.285 -18.270 -23.725  0.00  0.00    -0.314 N 
ATOM      2  N   UNL     1      34.172 -17.591 -25.685  0.00  0.00    -0.229 NA
ATOM      3  C   UNL     1      34.585 -17.305 -24.430  0.00  0.00    +0.129 C 
ATOM      4  C   UNL     1      33.653 -15.119 -24.489  0.00  0.00    +0.043 C 
ATOM      5  C   UNL     1      34.354 -16.097 -23.793  0.00  0.00    +0.037 C 
ATOM      6  C   UNL     1      33.211 -15.376 -25.783  0.00  0.00    +0.024 C 
ATOM      7  C   UNL     1      33.494 -16.616 -26.331  0.00  0.00    +0.100 C 
ATOM      8  H   UNL     1      35.456 -19.134 -24.165  0.00  0.00    +0.149 HD
ENDROOT
BRANCH   4  10
ATOM      9  O   UNL     1      33.067 -13.768 -22.672  0.00  0.00    -0.287 OA
ATOM     10  C   UNL     1      33.383 -13.831 -23.869  0.00  0.00    +0.196 C 
BRANCH  10  11
ATOM     11  C   UNL     1      33.469 -12.545 -24.624  0.00  0.00    +0.039 C 
ATOM     12  C   UNL     1      34.308 -11.525 -24.172  0.00  0.00    -0.001 C 
ATOM     13  C   UNL     1      34.389 -10.325 -24.878  0.00  0.00    -0.022 C 
ATOM     14  C   UNL     1      32.712 -12.364 -25.781  0.00  0.00    +0.003 C 
ATOM     15  C   UNL     1      33.632 -10.144 -26.036  0.00  0.00    -0.004 C 
ATOM     16  C   UNL     1      32.794 -11.164 -26.488  0.00  0.00    -0.000 C 
ATOM     17  C   UNL     1      35.287  -9.236 -24.398  0.00  0.00    +0.031 C 
ENDBRANCH  10  11
ENDBRANCH   4  10
BRANCH   1  18
ATOM     18  C   UNL     1      35.778 -18.078 -22.379  0.00  0.00    +0.115 C 
BRANCH  18  19
ATOM     19  C   UNL     1      35.236 -19.119 -21.458  0.00  0.00    -0.003 C 
ATOM     20  C   UNL     1      33.859 -19.323 -21.370  0.00  0.00    -0.003 C 
ATOM     21  C   UNL     1      36.106 -19.887 -20.684  0.00  0.00    -0.003 C 
ATOM     22  C   UNL     1      34.222 -21.063 -19.735  0.00  0.00    +0.031 C 
ATOM     23  C   UNL     1      33.352 -20.295 -20.508  0.00  0.00    +0.002 C 
ATOM     24  C   UNL     1      35.599 -20.859 -19.823  0.00  0.00    +0.002 C 
BRANCH  22  27
ATOM     25  N   UNL     1      32.320 -22.289 -18.710  0.00  0.00    -0.343 N 
ATOM     26  N   UNL     1      34.519 -22.815 -18.118  0.00  0.00    -0.285 NA
ATOM     27  C   UNL     1      33.692 -22.077 -18.837  0.00  0.00    +0.117 C 
ATOM     28  H   UNL     1      31.983 -22.981 -18.096  0.00  0.00    +0.144 HD
ATOM     29  H   UNL     1      31.688 -21.747 -19.236  0.00  0.00    +0.144 HD
ATOM     30  H   UNL     1      34.163 -23.502 -17.509  0.00  0.00    +0.188 HD
ENDBRANCH  22  27
ENDBRANCH  18  19
ENDBRANCH   1  18
TORSDOF 5
ENDMDL
MODEL 9
REMARK VINA RESULT:     -11.2      5.864     10.185
REMARK  Name = 17758361
REMARK  5 active torsions:
REMARK  status: ('A' for Active; 'I' for Inactive)
REMARK    1  A    between atoms: N_1  and  C_18
REMARK    2  A    between atoms: C_4  and  C_10
REMARK    3  A    between atoms: C_10  and  C_11
REMARK    4  A    between atoms: C_18  and  C_19
REMARK    5  A    between atoms: C_22  and  C_27
REMARK                            x       y       z     vdW  Elec       q    Type
REMARK                         _______ _______ _______ _____ _____    ______ ____
ROOT
ATOM      1  N   UNL     1      33.081 -15.242 -25.101  0.00  0.00    -0.314 N 
ATOM      2  N   UNL     1      33.254 -17.388 -26.051  0.00  0.00    -0.229 NA
ATOM      3  C   UNL     1      33.495 -16.561 -25.010  0.00  0.00    +0.129 C 
ATOM      4  C   UNL     1      34.552 -18.268 -23.738  0.00  0.00    +0.043 C 
ATOM      5  C   UNL     1      34.133 -16.947 -23.843  0.00  0.00    +0.037 C 
ATOM      6  C   UNL     1      34.322 -19.151 -24.788  0.00  0.00    +0.024 C 
ATOM      7  C   UNL     1      33.675 -18.666 -25.913  0.00  0.00    +0.100 C 
ATOM      8  H   UNL     1      32.627 -14.953 -25.925  0.00  0.00    +0.149 HD
ENDROOT
BRANCH   4  10
ATOM      9  O   UNL     1      36.405 -18.410 -22.318  0.00  0.00    -0.287 OA
ATOM     10  C   UNL     1      35.227 -18.728 -22.534  0.00  0.00    +0.196 C 
BRANCH  10  11
ATOM     11  C   UNL     1      34.551 -19.589 -21.517  0.00  0.00    +0.039 C 
ATOM     12  C   UNL     1      35.314 -20.323 -20.607  0.00  0.00    -0.001 C 
ATOM     13  C   UNL     1      34.683 -21.126 -19.657  0.00  0.00    -0.022 C 
ATOM     14  C   UNL     1      33.160 -19.658 -21.476  0.00  0.00    +0.003 C 
ATOM     15  C   UNL     1      33.290 -21.194 -19.616  0.00  0.00    -0.004 C 
ATOM     16  C   UNL     1      32.529 -20.460 -20.525  0.00  0.00    -0.000 C 
ATOM     17  C   UNL     1      35.497 -21.908 -18.683  0.00  0.00    +0.031 C 
ENDBRANCH  10  11
ENDBRANCH   4  10
BRANCH   1  18
ATOM     18  C   UNL     1      33.282 -14.267 -24.052  0.00  0.00    +0.115 C 
BRANCH  18  19
ATOM     19  C   UNL     1      33.310 -12.882 -24.608  0.00  0.00    -0.003 C 
ATOM     20  C   UNL     1      32.961 -12.660 -25.940  0.00  0.00    -0.003 C 
ATOM     21  C   UNL     1      33.688 -11.812 -23.797  0.00  0.00    -0.003 C 
ATOM     22  C   UNL     1      33.365 -10.296 -25.650  0.00  0.00    +0.031 C 
ATOM     23  C   UNL     1      32.988 -11.366 -26.460  0.00  0.00    +0.002 C 
ATOM     24  C   UNL     1      33.715 -10.519 -24.318  0.00  0.00    +0.002 C 
BRANCH  22  27
ATOM     25  N   UNL     1      32.223  -8.212 -26.371  0.00  0.00    -0.343 N 
ATOM     26  N   UNL     1      34.546  -8.399 -26.534  0.00  0.00    -0.285 NA
ATOM     27  C   UNL     1      33.393  -8.947 -26.194  0.00  0.00    +0.117 C 
ATOM     28  H   UNL     1      32.265  -7.300 -26.741  0.00  0.00    +0.144 HD
ATOM     29  H   UNL     1      31.353  -8.604 -26.126  0.00  0.00    +0.144 HD
ATOM     30  H   UNL     1      34.568  -7.487 -26.902  0.00  0.00    +0.188 HD
ENDBRANCH  22  27
ENDBRANCH  18  19
ENDBRANCH   1  18
TORSDOF 5
ENDMDL
