MODEL 1
REMARK VINA RESULT:     -13.6      0.000      0.000
REMARK  Name = 24821094
REMARK  5 active torsions:
REMARK  status: ('A' for Active; 'I' for Inactive)
REMARK    1  A    between atoms: N_1  and  C_12
REMARK    2  A    between atoms: C_7  and  C_20
REMARK    3  A    between atoms: C_17  and  C_18
REMARK    4  A    between atoms: C_25  and  O_26
REMARK    5  A    between atoms: O_26  and  C_27
REMARK                            x       y       z     vdW  Elec       q    Type
REMARK                         _______ _______ _______ _____ _____    ______ ____
ROOT
ATOM      1  N   UNL     1      33.266 -13.444 -24.711  0.00  0.00    -0.198 N 
ATOM      2  N   UNL     1      33.839 -14.120 -23.698  0.00  0.00    -0.181 NA
ATOM      3  N   UNL     1      32.395 -13.829 -26.936  0.00  0.00    -0.231 NA
ATOM      4  N   UNL     1      32.596 -16.170 -27.591  0.00  0.00    -0.234 NA
ATOM      5  C   UNL     1      32.967 -14.223 -25.788  0.00  0.00    +0.137 C 
ATOM      6  C   UNL     1      33.372 -15.504 -25.456  0.00  0.00    +0.150 C 
ATOM      7  C   UNL     1      33.900 -15.375 -24.158  0.00  0.00    +0.090 C 
ATOM      8  C   UNL     1      33.169 -16.498 -26.408  0.00  0.00    +0.112 C 
ATOM      9  C   UNL     1      32.249 -14.874 -27.779  0.00  0.00    +0.252 C 
ATOM     10  N   UNL     1      33.546 -17.831 -26.164  0.00  0.00    -0.346 N 
ATOM     11  H   UNL     1      33.393 -18.519 -26.852  0.00  0.00    +0.143 HD
ATOM     12  H   UNL     1      33.962 -18.076 -25.306  0.00  0.00    +0.143 HD
ENDROOT
BRANCH   1  15
ATOM     13  O   UNL     1      31.394  -8.237 -22.353  0.00  0.00    -0.270 OA
ATOM     14  N   UNL     1      32.655 -10.076 -23.013  0.00  0.00    -0.274 N 
ATOM     15  C   UNL     1      33.021 -11.953 -24.569  0.00  0.00    +0.117 C 
ATOM     16  C   UNL     1      34.105 -11.123 -25.285  0.00  0.00    +0.025 C 
ATOM     17  C   UNL     1      32.903 -11.523 -23.097  0.00  0.00    +0.115 C 
ATOM     18  C   UNL     1      33.858  -9.623 -25.106  0.00  0.00    +0.023 C 
ATOM     19  C   UNL     1      33.698  -9.256 -23.633  0.00  0.00    +0.094 C 
ATOM     20  C   UNL     1      31.564  -9.455 -22.411  0.00  0.00    +0.249 C 
BRANCH  20  21
ATOM     21  C   UNL     1      30.531 -10.318 -21.804  0.00  0.00    +0.058 C 
ATOM     22  C   UNL     1      30.507 -10.459 -20.477  0.00  0.00    +0.005 C 
ENDBRANCH  20  21
ENDBRANCH   1  15
BRANCH   7  23
ATOM     23  C   UNL     1      34.466 -16.414 -23.334  0.00  0.00    +0.016 C 
ATOM     24  C   UNL     1      34.570 -16.230 -21.956  0.00  0.00    +0.004 C 
ATOM     25  C   UNL     1      34.907 -17.602 -23.915  0.00  0.00    +0.004 C 
ATOM     26  C   UNL     1      35.117 -17.235 -21.158  0.00  0.00    +0.038 C 
ATOM     27  C   UNL     1      35.453 -18.608 -23.117  0.00  0.00    +0.038 C 
ATOM     28  C   UNL     1      35.558 -18.424 -21.738  0.00  0.00    +0.145 C 
BRANCH  28  29
ATOM     29  O   UNL     1      36.094 -19.404 -20.960  0.00  0.00    -0.453 OA
BRANCH  29  30
ATOM     30  C   UNL     1      35.223 -20.286 -20.344  0.00  0.00    +0.145 C 
ATOM     31  C   UNL     1      35.720 -21.289 -19.512  0.00  0.00    +0.037 C 
ATOM     32  C   UNL     1      33.849 -20.172 -20.555  0.00  0.00    +0.037 C 
ATOM     33  C   UNL     1      34.842 -22.179 -18.891  0.00  0.00    +0.003 C 
ATOM     34  C   UNL     1      32.972 -21.060 -19.934  0.00  0.00    +0.003 C 
ATOM     35  C   UNL     1      33.469 -22.064 -19.103  0.00  0.00    +0.000 C 
ENDBRANCH  29  30
ENDBRANCH  28  29
ENDBRANCH   7  23
TORSDOF 5
ENDMDL
MODEL 2
REMARK VINA RESULT:     -12.8      1.247      2.567
REMARK  Name = 24821094
REMARK  5 active torsions:
REMARK  status: ('A' for Active; 'I' for Inactive)
REMARK    1  A    between atoms: N_1  and  C_12
REMARK    2  A    between atoms: C_7  and  C_20
REMARK    3  A    between atoms: C_17  and  C_18
REMARK    4  A    between atoms: C_25  and  O_26
REMARK    5  A    between atoms: O_26  and  C_27
REMARK                            x       y       z     vdW  Elec       q    Type
REMARK                         _______ _______ _______ _____ _____    ______ ____
ROOT
ATOM      1  N   UNL     1      33.491 -12.912 -24.260  0.00  0.00    -0.198 N 
ATOM      2  N   UNL     1      34.065 -13.711 -23.341  0.00  0.00    -0.181 NA
ATOM      3  N   UNL     1      32.431 -13.051 -26.432  0.00  0.00    -0.231 NA
ATOM      4  N   UNL     1      32.360 -15.346 -27.256  0.00  0.00    -0.234 NA
ATOM      5  C   UNL     1      33.042 -13.580 -25.360  0.00  0.00    +0.137 C 
ATOM      6  C   UNL     1      33.344 -14.913 -25.147  0.00  0.00    +0.150 C 
ATOM      7  C   UNL     1      33.973 -14.929 -23.888  0.00  0.00    +0.090 C 
ATOM      8  C   UNL     1      32.980 -15.811 -26.145  0.00  0.00    +0.112 C 
ATOM      9  C   UNL     1      32.127 -14.013 -27.329  0.00  0.00    +0.252 C 
ATOM     10  N   UNL     1      33.243 -17.187 -26.021  0.00  0.00    -0.346 N 
ATOM     11  H   UNL     1      32.976 -17.806 -26.739  0.00  0.00    +0.143 HD
ATOM     12  H   UNL     1      33.692 -17.532 -25.216  0.00  0.00    +0.143 HD
ENDROOT
BRANCH   1  15
ATOM     13  O   UNL     1      33.812  -6.988 -25.248  0.00  0.00    -0.270 OA
ATOM     14  N   UNL     1      33.090  -9.183 -24.991  0.00  0.00    -0.274 N 
ATOM     15  C   UNL     1      33.401 -11.420 -24.000  0.00  0.00    +0.117 C 
ATOM     16  C   UNL     1      32.322 -11.085 -22.951  0.00  0.00    +0.025 C 
ATOM     17  C   UNL     1      33.158 -10.621 -25.292  0.00  0.00    +0.115 C 
ATOM     18  C   UNL     1      32.226  -9.574 -22.725  0.00  0.00    +0.023 C 
ATOM     19  C   UNL     1      32.035  -8.823 -24.041  0.00  0.00    +0.094 C 
ATOM     20  C   UNL     1      33.905  -8.186 -25.519  0.00  0.00    +0.249 C 
BRANCH  20  21
ATOM     21  C   UNL     1      34.961  -8.592 -26.468  0.00  0.00    +0.058 C 
ATOM     22  C   UNL     1      35.366  -7.720 -27.393  0.00  0.00    +0.005 C 
ENDBRANCH  20  21
ENDBRANCH   1  15
BRANCH   7  23
ATOM     23  C   UNL     1      34.492 -16.073 -23.181  0.00  0.00    +0.016 C 
ATOM     24  C   UNL     1      34.922 -17.194 -23.891  0.00  0.00    +0.004 C 
ATOM     25  C   UNL     1      34.566 -16.058 -21.789  0.00  0.00    +0.004 C 
ATOM     26  C   UNL     1      35.425 -18.301 -23.208  0.00  0.00    +0.038 C 
ATOM     27  C   UNL     1      35.070 -17.165 -21.105  0.00  0.00    +0.038 C 
ATOM     28  C   UNL     1      35.499 -18.286 -21.815  0.00  0.00    +0.145 C 
BRANCH  28  29
ATOM     29  O   UNL     1      35.987 -19.368 -21.148  0.00  0.00    -0.453 OA
BRANCH  29  30
ATOM     30  C   UNL     1      35.077 -20.206 -20.526  0.00  0.00    +0.145 C 
ATOM     31  C   UNL     1      35.529 -21.233 -19.697  0.00  0.00    +0.037 C 
ATOM     32  C   UNL     1      33.709 -20.023 -20.728  0.00  0.00    +0.037 C 
ATOM     33  C   UNL     1      34.612 -22.078 -19.071  0.00  0.00    +0.003 C 
ATOM     34  C   UNL     1      32.792 -20.867 -20.102  0.00  0.00    +0.003 C 
ATOM     35  C   UNL     1      33.244 -21.894 -19.274  0.00  0.00    +0.000 C 
ENDBRANCH  29  30
ENDBRANCH  28  29
ENDBRANCH   7  23
TORSDOF 5
ENDMDL
MODEL 3
REMARK VINA RESULT:     -12.7      1.101      2.462
REMARK  Name = 24821094
REMARK  5 active torsions:
REMARK  status: ('A' for Active; 'I' for Inactive)
REMARK    1  A    between atoms: N_1  and  C_12
REMARK    2  A    between atoms: C_7  and  C_20
REMARK    3  A    between atoms: C_17  and  C_18
REMARK    4  A    between atoms: C_25  and  O_26
REMARK    5  A    between atoms: O_26  and  C_27
REMARK                            x       y       z     vdW  Elec       q    Type
REMARK                         _______ _______ _______ _____ _____    ______ ____
ROOT
ATOM      1  N   UNL     1      33.543 -13.161 -24.102  0.00  0.00    -0.198 N 
ATOM      2  N   UNL     1      34.037 -13.986 -23.161  0.00  0.00    -0.181 NA
ATOM      3  N   UNL     1      32.739 -13.224 -26.384  0.00  0.00    -0.231 NA
ATOM      4  N   UNL     1      32.837 -15.477 -27.313  0.00  0.00    -0.234 NA
ATOM      5  C   UNL     1      33.243 -13.786 -25.275  0.00  0.00    +0.137 C 
ATOM      6  C   UNL     1      33.564 -15.119 -25.089  0.00  0.00    +0.150 C 
ATOM      7  C   UNL     1      34.047 -15.178 -23.769  0.00  0.00    +0.090 C 
ATOM      8  C   UNL     1      33.344 -15.978 -26.162  0.00  0.00    +0.112 C 
ATOM      9  C   UNL     1      32.569 -14.150 -27.353  0.00  0.00    +0.252 C 
ATOM     10  N   UNL     1      33.637 -17.351 -26.070  0.00  0.00    -0.346 N 
ATOM     11  H   UNL     1      33.474 -17.941 -26.841  0.00  0.00    +0.143 HD
ATOM     12  H   UNL     1      34.005 -17.721 -25.235  0.00  0.00    +0.143 HD
ENDROOT
BRANCH   1  15
ATOM     13  O   UNL     1      33.750  -7.189 -24.792  0.00  0.00    -0.270 OA
ATOM     14  N   UNL     1      33.084  -9.415 -24.706  0.00  0.00    -0.274 N 
ATOM     15  C   UNL     1      33.374 -11.686 -23.788  0.00  0.00    +0.117 C 
ATOM     16  C   UNL     1      32.185 -11.434 -22.840  0.00  0.00    +0.025 C 
ATOM     17  C   UNL     1      33.233 -10.835 -25.062  0.00  0.00    +0.115 C 
ATOM     18  C   UNL     1      32.013  -9.939 -22.558  0.00  0.00    +0.023 C 
ATOM     19  C   UNL     1      31.928  -9.134 -23.853  0.00  0.00    +0.094 C 
ATOM     20  C   UNL     1      33.912  -8.369 -25.105  0.00  0.00    +0.249 C 
BRANCH  20  21
ATOM     21  C   UNL     1      35.071  -8.697 -25.958  0.00  0.00    +0.058 C 
ATOM     22  C   UNL     1      35.210  -8.066 -27.126  0.00  0.00    +0.005 C 
ENDBRANCH  20  21
ENDBRANCH   1  15
BRANCH   7  23
ATOM     23  C   UNL     1      34.522 -16.340 -23.060  0.00  0.00    +0.016 C 
ATOM     24  C   UNL     1      34.623 -16.314 -21.669  0.00  0.00    +0.004 C 
ATOM     25  C   UNL     1      34.879 -17.489 -23.764  0.00  0.00    +0.004 C 
ATOM     26  C   UNL     1      35.082 -17.439 -20.983  0.00  0.00    +0.038 C 
ATOM     27  C   UNL     1      35.338 -18.614 -23.078  0.00  0.00    +0.038 C 
ATOM     28  C   UNL     1      35.439 -18.588 -21.687  0.00  0.00    +0.145 C 
BRANCH  28  29
ATOM     29  O   UNL     1      35.890 -19.684 -21.018  0.00  0.00    -0.453 OA
BRANCH  29  30
ATOM     30  C   UNL     1      34.958 -20.455 -20.343  0.00  0.00    +0.145 C 
ATOM     31  C   UNL     1      33.596 -20.249 -20.558  0.00  0.00    +0.037 C 
ATOM     32  C   UNL     1      35.382 -21.439 -19.449  0.00  0.00    +0.037 C 
ATOM     33  C   UNL     1      32.656 -21.025 -19.877  0.00  0.00    +0.003 C 
ATOM     34  C   UNL     1      34.444 -22.215 -18.769  0.00  0.00    +0.003 C 
ATOM     35  C   UNL     1      33.081 -22.007 -18.983  0.00  0.00    +0.000 C 
ENDBRANCH  29  30
ENDBRANCH  28  29
ENDBRANCH   7  23
TORSDOF 5
ENDMDL
MODEL 4
REMARK VINA RESULT:     -12.3      1.578      3.015
REMARK  Name = 24821094
REMARK  5 active torsions:
REMARK  status: ('A' for Active; 'I' for Inactive)
REMARK    1  A    between atoms: N_1  and  C_12
REMARK    2  A    between atoms: C_7  and  C_20
REMARK    3  A    between atoms: C_17  and  C_18
REMARK    4  A    between atoms: C_25  and  O_26
REMARK    5  A    between atoms: O_26  and  C_27
REMARK                            x       y       z     vdW  Elec       q    Type
REMARK                         _______ _______ _______ _____ _____    ______ ____
ROOT
ATOM      1  N   UNL     1      33.977 -15.074 -23.066  0.00  0.00    -0.198 N 
ATOM      2  N   UNL     1      34.392 -15.881 -22.072  0.00  0.00    -0.181 NA
ATOM      3  N   UNL     1      33.449 -15.166 -25.427  0.00  0.00    -0.231 NA
ATOM      4  N   UNL     1      33.749 -17.410 -26.332  0.00  0.00    -0.234 NA
ATOM      5  C   UNL     1      33.843 -15.709 -24.265  0.00  0.00    +0.137 C 
ATOM      6  C   UNL     1      34.195 -17.028 -24.039  0.00  0.00    +0.150 C 
ATOM      7  C   UNL     1      34.523 -17.070 -22.671  0.00  0.00    +0.090 C 
ATOM      8  C   UNL     1      34.139 -17.892 -25.128  0.00  0.00    +0.112 C 
ATOM      9  C   UNL     1      33.433 -16.096 -26.406  0.00  0.00    +0.252 C 
ATOM     10  N   UNL     1      34.477 -19.252 -24.999  0.00  0.00    -0.346 N 
ATOM     11  H   UNL     1      34.429 -19.847 -25.783  0.00  0.00    +0.143 HD
ATOM     12  H   UNL     1      34.759 -19.609 -24.126  0.00  0.00    +0.143 HD
ENDROOT
BRANCH   1  15
ATOM     13  O   UNL     1      33.477  -9.149 -23.973  0.00  0.00    -0.270 OA
ATOM     14  N   UNL     1      33.059 -11.422 -23.712  0.00  0.00    -0.274 N 
ATOM     15  C   UNL     1      33.711 -13.609 -22.777  0.00  0.00    +0.117 C 
ATOM     16  C   UNL     1      32.661 -13.425 -21.665  0.00  0.00    +0.025 C 
ATOM     17  C   UNL     1      33.294 -12.836 -24.041  0.00  0.00    +0.115 C 
ATOM     18  C   UNL     1      32.384 -11.942 -21.408  0.00  0.00    +0.023 C 
ATOM     19  C   UNL     1      32.023 -11.210 -22.699  0.00  0.00    +0.094 C 
ATOM     20  C   UNL     1      33.707 -10.323 -24.268  0.00  0.00    +0.249 C 
BRANCH  20  21
ATOM     21  C   UNL     1      34.751 -10.580 -25.281  0.00  0.00    +0.058 C 
ATOM     22  C   UNL     1      35.780  -9.736 -25.374  0.00  0.00    +0.005 C 
ENDBRANCH  20  21
ENDBRANCH   1  15
BRANCH   7  23
ATOM     23  C   UNL     1      34.960 -18.213 -21.909  0.00  0.00    +0.016 C 
ATOM     24  C   UNL     1      36.322 -18.471 -21.760  0.00  0.00    +0.004 C 
ATOM     25  C   UNL     1      34.021 -19.058 -21.319  0.00  0.00    +0.004 C 
ATOM     26  C   UNL     1      36.745 -19.576 -21.022  0.00  0.00    +0.038 C 
ATOM     27  C   UNL     1      34.444 -20.163 -20.579  0.00  0.00    +0.038 C 
ATOM     28  C   UNL     1      35.807 -20.422 -20.432  0.00  0.00    +0.145 C 
BRANCH  28  29
ATOM     29  O   UNL     1      36.219 -21.502 -19.714  0.00  0.00    -0.453 OA
BRANCH  29  30
ATOM     30  C   UNL     1      35.354 -22.012 -18.761  0.00  0.00    +0.145 C 
ATOM     31  C   UNL     1      35.769 -22.134 -17.435  0.00  0.00    +0.037 C 
ATOM     32  C   UNL     1      34.065 -22.404 -19.127  0.00  0.00    +0.037 C 
ATOM     33  C   UNL     1      34.897 -22.648 -16.475  0.00  0.00    +0.003 C 
ATOM     34  C   UNL     1      33.193 -22.917 -18.168  0.00  0.00    +0.003 C 
ATOM     35  C   UNL     1      33.610 -23.040 -16.842  0.00  0.00    +0.000 C 
ENDBRANCH  29  30
ENDBRANCH  28  29
ENDBRANCH   7  23
TORSDOF 5
ENDMDL
MODEL 5
REMARK VINA RESULT:     -12.3      2.562      4.726
REMARK  Name = 24821094
REMARK  5 active torsions:
REMARK  status: ('A' for Active; 'I' for Inactive)
REMARK    1  A    between atoms: N_1  and  C_12
REMARK    2  A    between atoms: C_7  and  C_20
REMARK    3  A    between atoms: C_17  and  C_18
REMARK    4  A    between atoms: C_25  and  O_26
REMARK    5  A    between atoms: O_26  and  C_27
REMARK                            x       y       z     vdW  Elec       q    Type
REMARK                         _______ _______ _______ _____ _____    ______ ____
ROOT
ATOM      1  N   UNL     1      32.352 -10.224 -23.594  0.00  0.00    -0.198 N 
ATOM      2  N   UNL     1      32.967 -11.303 -24.113  0.00  0.00    -0.181 NA
ATOM      3  N   UNL     1      31.153  -9.557 -21.601  0.00  0.00    -0.231 NA
ATOM      4  N   UNL     1      30.980 -11.386 -19.997  0.00  0.00    -0.234 NA
ATOM      5  C   UNL     1      31.820 -10.441 -22.359  0.00  0.00    +0.137 C 
ATOM      6  C   UNL     1      32.108 -11.758 -22.045  0.00  0.00    +0.150 C 
ATOM      7  C   UNL     1      32.815 -12.234 -23.164  0.00  0.00    +0.090 C 
ATOM      8  C   UNL     1      31.661 -12.225 -20.813  0.00  0.00    +0.112 C 
ATOM      9  C   UNL     1      30.771 -10.122 -20.435  0.00  0.00    +0.252 C 
ATOM     10  N   UNL     1      31.906 -13.549 -20.403  0.00  0.00    -0.346 N 
ATOM     11  H   UNL     1      31.582 -13.859 -19.526  0.00  0.00    +0.143 HD
ATOM     12  H   UNL     1      32.402 -14.163 -20.990  0.00  0.00    +0.143 HD
ENDROOT
BRANCH   1  15
ATOM     13  O   UNL     1      32.419  -4.329 -24.787  0.00  0.00    -0.270 OA
ATOM     14  N   UNL     1      32.986  -6.565 -24.493  0.00  0.00    -0.274 N 
ATOM     15  C   UNL     1      32.309  -8.934 -24.391  0.00  0.00    +0.117 C 
ATOM     16  C   UNL     1      32.840  -9.128 -25.825  0.00  0.00    +0.025 C 
ATOM     17  C   UNL     1      33.067  -7.794 -23.689  0.00  0.00    +0.115 C 
ATOM     18  C   UNL     1      32.817  -7.810 -26.604  0.00  0.00    +0.023 C 
ATOM     19  C   UNL     1      33.538  -6.700 -25.843  0.00  0.00    +0.094 C 
ATOM     20  C   UNL     1      32.461  -5.342 -24.087  0.00  0.00    +0.249 C 
BRANCH  20  21
ATOM     21  C   UNL     1      31.909  -5.250 -22.721  0.00  0.00    +0.058 C 
ATOM     22  C   UNL     1      30.584  -5.234 -22.561  0.00  0.00    +0.005 C 
ENDBRANCH  20  21
ENDBRANCH   1  15
BRANCH   7  23
ATOM     23  C   UNL     1      33.356 -13.555 -23.363  0.00  0.00    +0.016 C 
ATOM     24  C   UNL     1      33.046 -14.268 -24.521  0.00  0.00    +0.004 C 
ATOM     25  C   UNL     1      34.189 -14.120 -22.398  0.00  0.00    +0.004 C 
ATOM     26  C   UNL     1      33.569 -15.546 -24.713  0.00  0.00    +0.038 C 
ATOM     27  C   UNL     1      34.713 -15.399 -22.591  0.00  0.00    +0.038 C 
ATOM     28  C   UNL     1      34.403 -16.111 -23.749  0.00  0.00    +0.145 C 
BRANCH  28  29
ATOM     29  O   UNL     1      34.911 -17.360 -23.936  0.00  0.00    -0.453 OA
BRANCH  29  30
ATOM     30  C   UNL     1      34.917 -18.222 -22.852  0.00  0.00    +0.145 C 
ATOM     31  C   UNL     1      33.750 -18.892 -22.487  0.00  0.00    +0.037 C 
ATOM     32  C   UNL     1      36.090 -18.419 -22.123  0.00  0.00    +0.037 C 
ATOM     33  C   UNL     1      33.755 -19.760 -21.395  0.00  0.00    +0.003 C 
ATOM     34  C   UNL     1      36.097 -19.286 -21.031  0.00  0.00    +0.003 C 
ATOM     35  C   UNL     1      34.929 -19.956 -20.667  0.00  0.00    +0.000 C 
ENDBRANCH  29  30
ENDBRANCH  28  29
ENDBRANCH   7  23
TORSDOF 5
ENDMDL
MODEL 6
REMARK VINA RESULT:     -12.1      2.617      9.636
REMARK  Name = 24821094
REMARK  5 active torsions:
REMARK  status: ('A' for Active; 'I' for Inactive)
REMARK    1  A    between atoms: N_1  and  C_12
REMARK    2  A    between atoms: C_7  and  C_20
REMARK    3  A    between atoms: C_17  and  C_18
REMARK    4  A    between atoms: C_25  and  O_26
REMARK    5  A    between atoms: O_26  and  C_27
REMARK                            x       y       z     vdW  Elec       q    Type
REMARK                         _______ _______ _______ _____ _____    ______ ____
ROOT
ATOM      1  N   UNL     1      33.505 -14.136 -24.267  0.00  0.00    -0.198 N 
ATOM      2  N   UNL     1      33.645 -13.054 -23.480  0.00  0.00    -0.181 NA
ATOM      3  N   UNL     1      32.881 -14.709 -26.535  0.00  0.00    -0.231 NA
ATOM      4  N   UNL     1      32.323 -12.728 -27.844  0.00  0.00    -0.234 NA
ATOM      5  C   UNL     1      33.103 -13.841 -25.536  0.00  0.00    +0.137 C 
ATOM      6  C   UNL     1      32.971 -12.464 -25.583  0.00  0.00    +0.150 C 
ATOM      7  C   UNL     1      33.319 -12.038 -24.288  0.00  0.00    +0.090 C 
ATOM      8  C   UNL     1      32.565 -11.910 -26.792  0.00  0.00    +0.112 C 
ATOM      9  C   UNL     1      32.494 -14.058 -27.654  0.00  0.00    +0.252 C 
ATOM     10  N   UNL     1      32.403 -10.520 -26.941  0.00  0.00    -0.346 N 
ATOM     11  H   UNL     1      32.115 -10.148 -27.806  0.00  0.00    +0.143 HD
ATOM     12  H   UNL     1      32.579  -9.920 -26.181  0.00  0.00    +0.143 HD
ENDROOT
BRANCH   1  15
ATOM     13  O   UNL     1      34.639 -20.041 -24.101  0.00  0.00    -0.270 OA
ATOM     14  N   UNL     1      34.814 -17.722 -24.099  0.00  0.00    -0.274 N 
ATOM     15  C   UNL     1      33.791 -15.514 -23.700  0.00  0.00    +0.117 C 
ATOM     16  C   UNL     1      34.531 -15.436 -22.351  0.00  0.00    +0.025 C 
ATOM     17  C   UNL     1      34.572 -16.397 -24.689  0.00  0.00    +0.115 C 
ATOM     18  C   UNL     1      34.837 -16.835 -21.809  0.00  0.00    +0.023 C 
ATOM     19  C   UNL     1      35.568 -17.687 -22.844  0.00  0.00    +0.094 C 
ATOM     20  C   UNL     1      34.410 -18.948 -24.621  0.00  0.00    +0.249 C 
BRANCH  20  21
ATOM     21  C   UNL     1      33.646 -18.939 -25.884  0.00  0.00    +0.058 C 
ATOM     22  C   UNL     1      32.335 -18.693 -25.844  0.00  0.00    +0.005 C 
ENDBRANCH  20  21
ENDBRANCH   1  15
BRANCH   7  23
ATOM     23  C   UNL     1      33.351 -10.686 -23.788  0.00  0.00    +0.016 C 
ATOM     24  C   UNL     1      34.392  -9.833 -24.155  0.00  0.00    +0.004 C 
ATOM     25  C   UNL     1      32.342 -10.231 -22.941  0.00  0.00    +0.004 C 
ATOM     26  C   UNL     1      34.423  -8.525 -23.673  0.00  0.00    +0.038 C 
ATOM     27  C   UNL     1      32.372  -8.922 -22.459  0.00  0.00    +0.038 C 
ATOM     28  C   UNL     1      33.414  -8.070 -22.825  0.00  0.00    +0.145 C 
BRANCH  28  29
ATOM     29  O   UNL     1      33.446  -6.794 -22.351  0.00  0.00    -0.453 OA
BRANCH  29  30
ATOM     30  C   UNL     1      32.249  -6.100 -22.286  0.00  0.00    +0.145 C 
ATOM     31  C   UNL     1      31.643  -5.871 -21.051  0.00  0.00    +0.037 C 
ATOM     32  C   UNL     1      31.648  -5.633 -23.455  0.00  0.00    +0.037 C 
ATOM     33  C   UNL     1      30.436  -5.173 -20.984  0.00  0.00    +0.003 C 
ATOM     34  C   UNL     1      30.443  -4.935 -23.389  0.00  0.00    +0.003 C 
ATOM     35  C   UNL     1      29.837  -4.706 -22.154  0.00  0.00    +0.000 C 
ENDBRANCH  29  30
ENDBRANCH  28  29
ENDBRANCH   7  23
TORSDOF 5
ENDMDL
MODEL 7
REMARK VINA RESULT:     -11.7      2.779      5.303
REMARK  Name = 24821094
REMARK  5 active torsions:
REMARK  status: ('A' for Active; 'I' for Inactive)
REMARK    1  A    between atoms: N_1  and  C_12
REMARK    2  A    between atoms: C_7  and  C_20
REMARK    3  A    between atoms: C_17  and  C_18
REMARK    4  A    between atoms: C_25  and  O_26
REMARK    5  A    between atoms: O_26  and  C_27
REMARK                            x       y       z     vdW  Elec       q    Type
REMARK                         _______ _______ _______ _____ _____    ______ ____
ROOT
ATOM      1  N   UNL     1      32.355  -9.959 -23.488  0.00  0.00    -0.198 N 
ATOM      2  N   UNL     1      32.939 -11.030 -24.056  0.00  0.00    -0.181 NA
ATOM      3  N   UNL     1      31.192  -9.344 -21.457  0.00  0.00    -0.231 NA
ATOM      4  N   UNL     1      30.992 -11.231 -19.925  0.00  0.00    -0.234 NA
ATOM      5  C   UNL     1      31.830 -10.212 -22.256  0.00  0.00    +0.137 C 
ATOM      6  C   UNL     1      32.089 -11.547 -21.998  0.00  0.00    +0.150 C 
ATOM      7  C   UNL     1      32.774 -11.994 -23.143  0.00  0.00    +0.090 C 
ATOM      8  C   UNL     1      31.644 -12.053 -20.781  0.00  0.00    +0.112 C 
ATOM      9  C   UNL     1      30.808  -9.946 -20.310  0.00  0.00    +0.252 C 
ATOM     10  N   UNL     1      31.861 -13.397 -20.426  0.00  0.00    -0.346 N 
ATOM     11  H   UNL     1      31.539 -13.734 -19.559  0.00  0.00    +0.143 HD
ATOM     12  H   UNL     1      32.336 -13.999 -21.043  0.00  0.00    +0.143 HD
ENDROOT
BRANCH   1  15
ATOM     13  O   UNL     1      33.649  -5.808 -27.645  0.00  0.00    -0.270 OA
ATOM     14  N   UNL     1      32.654  -7.500 -26.398  0.00  0.00    -0.274 N 
ATOM     15  C   UNL     1      32.334  -8.638 -24.233  0.00  0.00    +0.117 C 
ATOM     16  C   UNL     1      30.986  -7.909 -24.071  0.00  0.00    +0.025 C 
ATOM     17  C   UNL     1      32.676  -8.807 -25.724  0.00  0.00    +0.115 C 
ATOM     18  C   UNL     1      30.973  -6.593 -24.853  0.00  0.00    +0.023 C 
ATOM     19  C   UNL     1      31.367  -6.808 -26.313  0.00  0.00    +0.094 C 
ATOM     20  C   UNL     1      33.708  -6.904 -27.084  0.00  0.00    +0.249 C 
BRANCH  20  21
ATOM     21  C   UNL     1      34.992  -7.631 -27.140  0.00  0.00    +0.058 C 
ATOM     22  C   UNL     1      35.813  -7.412 -28.169  0.00  0.00    +0.005 C 
ENDBRANCH  20  21
ENDBRANCH   1  15
BRANCH   7  23
ATOM     23  C   UNL     1      33.280 -13.319 -23.400  0.00  0.00    +0.016 C 
ATOM     24  C   UNL     1      32.927 -13.985 -24.573  0.00  0.00    +0.004 C 
ATOM     25  C   UNL     1      34.125 -13.934 -22.476  0.00  0.00    +0.004 C 
ATOM     26  C   UNL     1      33.418 -15.267 -24.822  0.00  0.00    +0.038 C 
ATOM     27  C   UNL     1      34.617 -15.216 -22.725  0.00  0.00    +0.038 C 
ATOM     28  C   UNL     1      34.262 -15.882 -23.898  0.00  0.00    +0.145 C 
BRANCH  28  29
ATOM     29  O   UNL     1      34.739 -17.134 -24.140  0.00  0.00    -0.453 OA
BRANCH  29  30
ATOM     30  C   UNL     1      34.829 -18.006 -23.068  0.00  0.00    +0.145 C 
ATOM     31  C   UNL     1      36.026 -18.121 -22.362  0.00  0.00    +0.037 C 
ATOM     32  C   UNL     1      33.724 -18.772 -22.696  0.00  0.00    +0.037 C 
ATOM     33  C   UNL     1      36.118 -19.000 -21.282  0.00  0.00    +0.003 C 
ATOM     34  C   UNL     1      33.815 -19.651 -21.617  0.00  0.00    +0.003 C 
ATOM     35  C   UNL     1      35.013 -19.765 -20.911  0.00  0.00    +0.000 C 
ENDBRANCH  29  30
ENDBRANCH  28  29
ENDBRANCH   7  23
TORSDOF 5
ENDMDL
MODEL 8
REMARK VINA RESULT:     -11.7      1.362      1.934
REMARK  Name = 24821094
REMARK  5 active torsions:
REMARK  status: ('A' for Active; 'I' for Inactive)
REMARK    1  A    between atoms: N_1  and  C_12
REMARK    2  A    between atoms: C_7  and  C_20
REMARK    3  A    between atoms: C_17  and  C_18
REMARK    4  A    between atoms: C_25  and  O_26
REMARK    5  A    between atoms: O_26  and  C_27
REMARK                            x       y       z     vdW  Elec       q    Type
REMARK                         _______ _______ _______ _____ _____    ______ ____
ROOT
ATOM      1  N   UNL     1      32.733 -12.036 -24.246  0.00  0.00    -0.198 N 
ATOM      2  N   UNL     1      33.215 -13.000 -23.440  0.00  0.00    -0.181 NA
ATOM      3  N   UNL     1      32.171 -11.677 -26.573  0.00  0.00    -0.231 NA
ATOM      4  N   UNL     1      32.597 -13.664 -27.921  0.00  0.00    -0.234 NA
ATOM      5  C   UNL     1      32.619 -12.419 -25.549  0.00  0.00    +0.137 C 
ATOM      6  C   UNL     1      33.058 -13.731 -25.600  0.00  0.00    +0.150 C 
ATOM      7  C   UNL     1      33.411 -14.030 -24.272  0.00  0.00    +0.090 C 
ATOM      8  C   UNL     1      33.037 -14.356 -26.843  0.00  0.00    +0.112 C 
ATOM      9  C   UNL     1      32.197 -12.386 -27.723  0.00  0.00    +0.252 C 
ATOM     10  N   UNL     1      33.462 -15.688 -26.997  0.00  0.00    -0.346 N 
ATOM     11  H   UNL     1      33.438 -16.112 -27.886  0.00  0.00    +0.143 HD
ATOM     12  H   UNL     1      33.781 -16.197 -26.218  0.00  0.00    +0.143 HD
ENDROOT
BRANCH   1  15
ATOM     13  O   UNL     1      31.220  -7.871 -20.179  0.00  0.00    -0.270 OA
ATOM     14  N   UNL     1      32.372  -9.258 -21.647  0.00  0.00    -0.274 N 
ATOM     15  C   UNL     1      32.381 -10.681 -23.662  0.00  0.00    +0.117 C 
ATOM     16  C   UNL     1      33.036  -9.529 -24.449  0.00  0.00    +0.025 C 
ATOM     17  C   UNL     1      32.742 -10.583 -22.169  0.00  0.00    +0.115 C 
ATOM     18  C   UNL     1      32.693  -8.173 -23.827  0.00  0.00    +0.023 C 
ATOM     19  C   UNL     1      33.024  -8.143 -22.337  0.00  0.00    +0.094 C 
ATOM     20  C   UNL     1      31.499  -8.996 -20.595  0.00  0.00    +0.249 C 
BRANCH  20  21
ATOM     21  C   UNL     1      30.857 -10.148 -19.931  0.00  0.00    +0.058 C 
ATOM     22  C   UNL     1      31.135 -10.391 -18.649  0.00  0.00    +0.005 C 
ENDBRANCH  20  21
ENDBRANCH   1  15
BRANCH   7  23
ATOM     23  C   UNL     1      33.932 -15.274 -23.762  0.00  0.00    +0.016 C 
ATOM     24  C   UNL     1      33.873 -16.427 -24.544  0.00  0.00    +0.004 C 
ATOM     25  C   UNL     1      34.496 -15.324 -22.487  0.00  0.00    +0.004 C 
ATOM     26  C   UNL     1      34.378 -17.630 -24.051  0.00  0.00    +0.038 C 
ATOM     27  C   UNL     1      35.002 -16.527 -21.994  0.00  0.00    +0.038 C 
ATOM     28  C   UNL     1      34.942 -17.680 -22.777  0.00  0.00    +0.145 C 
BRANCH  28  29
ATOM     29  O   UNL     1      35.432 -18.855 -22.294  0.00  0.00    -0.453 OA
BRANCH  29  30
ATOM     30  C   UNL     1      34.610 -19.606 -21.471  0.00  0.00    +0.145 C 
ATOM     31  C   UNL     1      35.164 -20.373 -20.446  0.00  0.00    +0.037 C 
ATOM     32  C   UNL     1      33.229 -19.595 -21.666  0.00  0.00    +0.037 C 
ATOM     33  C   UNL     1      34.336 -21.130 -19.616  0.00  0.00    +0.003 C 
ATOM     34  C   UNL     1      32.401 -20.351 -20.836  0.00  0.00    +0.003 C 
ATOM     35  C   UNL     1      32.955 -21.119 -19.812  0.00  0.00    +0.000 C 
ENDBRANCH  29  30
ENDBRANCH  28  29
ENDBRANCH   7  23
TORSDOF 5
ENDMDL
MODEL 9
REMARK VINA RESULT:     -11.6      1.363      1.789
REMARK  Name = 24821094
REMARK  5 active torsions:
REMARK  status: ('A' for Active; 'I' for Inactive)
REMARK    1  A    between atoms: N_1  and  C_12
REMARK    2  A    between atoms: C_7  and  C_20
REMARK    3  A    between atoms: C_17  and  C_18
REMARK    4  A    between atoms: C_25  and  O_26
REMARK    5  A    between atoms: O_26  and  C_27
REMARK                            x       y       z     vdW  Elec       q    Type
REMARK                         _______ _______ _______ _____ _____    ______ ____
ROOT
ATOM      1  N   UNL     1      33.277 -15.107 -24.435  0.00  0.00    -0.198 N 
ATOM      2  N   UNL     1      33.929 -15.642 -23.386  0.00  0.00    -0.181 NA
ATOM      3  N   UNL     1      32.303 -15.775 -26.547  0.00  0.00    -0.231 NA
ATOM      4  N   UNL     1      32.558 -18.169 -26.941  0.00  0.00    -0.234 NA
ATOM      5  C   UNL     1      32.950 -16.015 -25.397  0.00  0.00    +0.137 C 
ATOM      6  C   UNL     1      33.421 -17.235 -24.944  0.00  0.00    +0.150 C 
ATOM      7  C   UNL     1      34.013 -16.939 -23.702  0.00  0.00    +0.090 C 
ATOM      8  C   UNL     1      33.206 -18.338 -25.764  0.00  0.00    +0.112 C 
ATOM      9  C   UNL     1      32.153 -16.915 -27.256  0.00  0.00    +0.252 C 
ATOM     10  N   UNL     1      33.646 -19.622 -25.391  0.00  0.00    -0.346 N 
ATOM     11  H   UNL     1      33.482 -20.390 -25.985  0.00  0.00    +0.143 HD
ATOM     12  H   UNL     1      34.115 -19.753 -24.535  0.00  0.00    +0.143 HD
ENDROOT
BRANCH   1  15
ATOM     13  O   UNL     1      31.743  -9.641 -22.447  0.00  0.00    -0.270 OA
ATOM     14  N   UNL     1      32.907 -11.531 -23.140  0.00  0.00    -0.274 N 
ATOM     15  C   UNL     1      32.983 -13.618 -24.451  0.00  0.00    +0.117 C 
ATOM     16  C   UNL     1      33.797 -12.885 -25.535  0.00  0.00    +0.025 C 
ATOM     17  C   UNL     1      33.216 -12.967 -23.076  0.00  0.00    +0.115 C 
ATOM     18  C   UNL     1      33.509 -11.381 -25.517  0.00  0.00    +0.023 C 
ATOM     19  C   UNL     1      33.706 -10.793 -24.121  0.00  0.00    +0.094 C 
ATOM     20  C   UNL     1      31.967 -10.850 -22.371  0.00  0.00    +0.249 C 
BRANCH  20  21
ATOM     21  C   UNL     1      31.178 -11.631 -21.399  0.00  0.00    +0.058 C 
ATOM     22  C   UNL     1      31.350 -11.401 -20.096  0.00  0.00    +0.005 C 
ENDBRANCH  20  21
ENDBRANCH   1  15
BRANCH   7  23
ATOM     23  C   UNL     1      34.661 -17.857 -22.799  0.00  0.00    +0.016 C 
ATOM     24  C   UNL     1      36.053 -17.891 -22.720  0.00  0.00    +0.004 C 
ATOM     25  C   UNL     1      33.896 -18.709 -22.003  0.00  0.00    +0.004 C 
ATOM     26  C   UNL     1      36.680 -18.778 -21.846  0.00  0.00    +0.038 C 
ATOM     27  C   UNL     1      34.523 -19.596 -21.127  0.00  0.00    +0.038 C 
ATOM     28  C   UNL     1      35.915 -19.630 -21.049  0.00  0.00    +0.145 C 
BRANCH  28  29
ATOM     29  O   UNL     1      36.528 -20.498 -20.198  0.00  0.00    -0.453 OA
BRANCH  29  30
ATOM     30  C   UNL     1      35.726 -21.237 -19.344  0.00  0.00    +0.145 C 
ATOM     31  C   UNL     1      36.198 -21.598 -18.083  0.00  0.00    +0.037 C 
ATOM     32  C   UNL     1      34.446 -21.620 -19.746  0.00  0.00    +0.037 C 
ATOM     33  C   UNL     1      35.390 -22.343 -17.222  0.00  0.00    +0.003 C 
ATOM     34  C   UNL     1      33.638 -22.364 -18.886  0.00  0.00    +0.003 C 
ATOM     35  C   UNL     1      34.111 -22.726 -17.625  0.00  0.00    +0.000 C 
ENDBRANCH  29  30
ENDBRANCH  28  29
ENDBRANCH   7  23
TORSDOF 5
ENDMDL
