MODEL 1
REMARK VINA RESULT:     -12.8      0.000      0.000
REMARK  Name = 154000
REMARK  7 active torsions:
REMARK  status: ('A' for Active; 'I' for Inactive)
REMARK    1  A    between atoms: O_1  and  C_5
REMARK    2  A    between atoms: O_1  and  C_17
REMARK    3  A    between atoms: C_2  and  C_8
REMARK    4  A    between atoms: C_8  and  C_13
REMARK    5  A    between atoms: C_17  and  C_18
REMARK    6  A    between atoms: C_18  and  C_21
REMARK    7  A    between atoms: C_23  and  C_25
REMARK                            x       y       z     vdW  Elec       q    Type
REMARK                         _______ _______ _______ _____ _____    ______ ____
ROOT
ATOM      1  O   UNL     1      32.290 -22.454 -18.773  0.00  0.00    -0.475 OA
ENDROOT
BRANCH   1   5
ATOM      2  C   UNL     1      34.532 -19.781 -20.989  0.00  0.00    -0.021 C 
ATOM      3  C   UNL     1      35.178 -20.738 -20.219  0.00  0.00    -0.001 C 
ATOM      4  C   UNL     1      33.148 -19.706 -21.028  0.00  0.00    -0.001 C 
ATOM      5  C   UNL     1      33.029 -21.574 -19.502  0.00  0.00    +0.139 C 
ATOM      6  C   UNL     1      34.422 -21.640 -19.471  0.00  0.00    +0.037 C 
ATOM      7  C   UNL     1      32.392 -20.608 -20.280  0.00  0.00    +0.037 C 
BRANCH   2   8
ATOM      8  C   UNL     1      35.351 -18.805 -21.797  0.00  0.00    +0.047 C 
BRANCH   8  13
ATOM      9  O   UNL     1      35.159 -15.722 -23.312  0.00  0.00    -0.346 OA
ATOM     10  O   UNL     1      34.595 -18.866 -24.726  0.00  0.00    -0.272 OA
ATOM     11  O   UNL     1      34.794 -15.908 -21.052  0.00  0.00    -0.247 OA
ATOM     12  N   UNL     1      35.098 -16.614 -24.404  0.00  0.00    -0.144 N 
ATOM     13  C   UNL     1      34.479 -17.814 -22.542  0.00  0.00    +0.184 C 
ATOM     14  C   UNL     1      34.719 -17.878 -24.020  0.00  0.00    +0.264 C 
ATOM     15  C   UNL     1      34.818 -16.394 -22.171  0.00  0.00    +0.348 C 
ATOM     16  H   UNL     1      35.304 -16.360 -25.332  0.00  0.00    +0.196 HD
ENDBRANCH   8  13
ENDBRANCH   2   8
ENDBRANCH   1   5
BRANCH   1  17
ATOM     17  C   UNL     1      32.951 -23.125 -17.700  0.00  0.00    +0.213 C 
BRANCH  17  18
ATOM     18  C   UNL     1      31.988 -23.297 -16.528  0.00  0.00    +0.105 C 
BRANCH  18  21
ATOM     19  O   UNL     1      33.146 -24.272 -13.207  0.00  0.00    -0.449 OA
ATOM     20  N   UNL     1      34.038 -23.705 -15.207  0.00  0.00    -0.373 NA
ATOM     21  C   UNL     1      32.684 -23.675 -15.252  0.00  0.00    +0.134 C 
ATOM     22  C   UNL     1      32.123 -24.010 -14.068  0.00  0.00    +0.216 C 
ATOM     23  C   UNL     1      34.259 -24.067 -13.963  0.00  0.00    +0.277 C 
ATOM     24  C   UNL     1      30.759 -24.144 -13.545  0.00  0.00    +0.055 C 
BRANCH  23  25
ATOM     25  C   UNL     1      35.507 -24.280 -13.284  0.00  0.00    +0.066 C 
ATOM     26  C   UNL     1      36.317 -25.367 -13.624  0.00  0.00    +0.006 C 
ATOM     27  C   UNL     1      35.917 -23.402 -12.277  0.00  0.00    +0.006 C 
ATOM     28  C   UNL     1      37.527 -25.574 -12.962  0.00  0.00    +0.000 C 
ATOM     29  C   UNL     1      37.128 -23.608 -11.616  0.00  0.00    +0.000 C 
ATOM     30  C   UNL     1      37.933 -24.695 -11.958  0.00  0.00    +0.000 C 
ENDBRANCH  23  25
ENDBRANCH  18  21
ENDBRANCH  17  18
ENDBRANCH   1  17
TORSDOF 7
ENDMDL
MODEL 2
REMARK VINA RESULT:     -12.1      2.227     10.562
REMARK  Name = 154000
REMARK  7 active torsions:
REMARK  status: ('A' for Active; 'I' for Inactive)
REMARK    1  A    between atoms: O_1  and  C_5
REMARK    2  A    between atoms: O_1  and  C_17
REMARK    3  A    between atoms: C_2  and  C_8
REMARK    4  A    between atoms: C_8  and  C_13
REMARK    5  A    between atoms: C_17  and  C_18
REMARK    6  A    between atoms: C_18  and  C_21
REMARK    7  A    between atoms: C_23  and  C_25
REMARK                            x       y       z     vdW  Elec       q    Type
REMARK                         _______ _______ _______ _____ _____    ______ ____
ROOT
ATOM      1  O   UNL     1      32.448 -22.914 -18.257  0.00  0.00    -0.475 OA
ENDROOT
BRANCH   1   5
ATOM      2  C   UNL     1      34.104 -23.658 -14.544  0.00  0.00    -0.021 C 
ATOM      3  C   UNL     1      32.732 -23.776 -14.714  0.00  0.00    -0.001 C 
ATOM      4  C   UNL     1      34.929 -23.294 -15.597  0.00  0.00    -0.001 C 
ATOM      5  C   UNL     1      32.993 -23.159 -17.034  0.00  0.00    +0.139 C 
ATOM      6  C   UNL     1      32.173 -23.525 -15.966  0.00  0.00    +0.037 C 
ATOM      7  C   UNL     1      34.370 -23.044 -16.849  0.00  0.00    +0.037 C 
BRANCH   2   8
ATOM      8  C   UNL     1      34.708 -23.928 -13.188  0.00  0.00    +0.047 C 
BRANCH   8  13
ATOM      9  O   UNL     1      37.600 -24.671 -11.479  0.00  0.00    -0.346 OA
ATOM     10  O   UNL     1      36.239 -26.315 -14.244  0.00  0.00    -0.272 OA
ATOM     11  O   UNL     1      36.809 -22.515 -11.501  0.00  0.00    -0.247 OA
ATOM     12  N   UNL     1      37.422 -25.802 -12.304  0.00  0.00    -0.144 N 
ATOM     13  C   UNL     1      36.213 -24.095 -13.261  0.00  0.00    +0.184 C 
ATOM     14  C   UNL     1      36.597 -25.540 -13.371  0.00  0.00    +0.264 C 
ATOM     15  C   UNL     1      36.882 -23.629 -11.994  0.00  0.00    +0.348 C 
ATOM     16  H   UNL     1      37.841 -26.677 -12.134  0.00  0.00    +0.196 HD
ENDBRANCH   8  13
ENDBRANCH   2   8
ENDBRANCH   1   5
BRANCH   1  17
ATOM     17  C   UNL     1      33.299 -22.323 -19.240  0.00  0.00    +0.213 C 
BRANCH  17  18
ATOM     18  C   UNL     1      32.781 -20.934 -19.601  0.00  0.00    +0.105 C 
BRANCH  18  21
ATOM     19  O   UNL     1      35.297 -19.455 -21.793  0.00  0.00    -0.449 OA
ATOM     20  N   UNL     1      33.043 -19.575 -21.650  0.00  0.00    -0.373 NA
ATOM     21  C   UNL     1      33.631 -20.243 -20.629  0.00  0.00    +0.134 C 
ATOM     22  C   UNL     1      34.981 -20.189 -20.689  0.00  0.00    +0.216 C 
ATOM     23  C   UNL     1      34.084 -19.123 -22.313  0.00  0.00    +0.277 C 
ATOM     24  C   UNL     1      36.097 -20.705 -19.889  0.00  0.00    +0.055 C 
BRANCH  23  25
ATOM     25  C   UNL     1      34.128 -18.331 -23.511  0.00  0.00    +0.066 C 
ATOM     26  C   UNL     1      34.536 -16.994 -23.457  0.00  0.00    +0.006 C 
ATOM     27  C   UNL     1      33.761 -18.891 -24.737  0.00  0.00    +0.006 C 
ATOM     28  C   UNL     1      34.576 -16.226 -24.620  0.00  0.00    +0.000 C 
ATOM     29  C   UNL     1      33.802 -18.122 -25.901  0.00  0.00    +0.000 C 
ATOM     30  C   UNL     1      34.209 -16.790 -25.842  0.00  0.00    +0.000 C 
ENDBRANCH  23  25
ENDBRANCH  18  21
ENDBRANCH  17  18
ENDBRANCH   1  17
TORSDOF 7
ENDMDL
MODEL 3
REMARK VINA RESULT:     -11.7      2.611     11.069
REMARK  Name = 154000
REMARK  7 active torsions:
REMARK  status: ('A' for Active; 'I' for Inactive)
REMARK    1  A    between atoms: O_1  and  C_5
REMARK    2  A    between atoms: O_1  and  C_17
REMARK    3  A    between atoms: C_2  and  C_8
REMARK    4  A    between atoms: C_8  and  C_13
REMARK    5  A    between atoms: C_17  and  C_18
REMARK    6  A    between atoms: C_18  and  C_21
REMARK    7  A    between atoms: C_23  and  C_25
REMARK                            x       y       z     vdW  Elec       q    Type
REMARK                         _______ _______ _______ _____ _____    ______ ____
ROOT
ATOM      1  O   UNL     1      36.526 -20.777 -18.510  0.00  0.00    -0.475 OA
ENDROOT
BRANCH   1   5
ATOM      2  C   UNL     1      35.468 -23.535 -15.619  0.00  0.00    -0.021 C 
ATOM      3  C   UNL     1      34.551 -23.194 -16.603  0.00  0.00    -0.001 C 
ATOM      4  C   UNL     1      36.732 -22.967 -15.587  0.00  0.00    -0.001 C 
ATOM      5  C   UNL     1      36.177 -21.685 -17.558  0.00  0.00    +0.139 C 
ATOM      6  C   UNL     1      34.908 -22.263 -17.578  0.00  0.00    +0.037 C 
ATOM      7  C   UNL     1      37.089 -22.036 -16.563  0.00  0.00    +0.037 C 
BRANCH   2   8
ATOM      8  C   UNL     1      35.081 -24.540 -14.563  0.00  0.00    +0.047 C 
BRANCH   8  13
ATOM      9  O   UNL     1      35.851 -25.779 -11.446  0.00  0.00    -0.346 OA
ATOM     10  O   UNL     1      37.541 -26.300 -14.458  0.00  0.00    -0.272 OA
ATOM     11  O   UNL     1      34.698 -23.801 -11.637  0.00  0.00    -0.247 OA
ATOM     12  N   UNL     1      36.697 -26.520 -12.297  0.00  0.00    -0.144 N 
ATOM     13  C   UNL     1      36.109 -24.618 -13.451  0.00  0.00    +0.184 C 
ATOM     14  C   UNL     1      36.882 -25.901 -13.511  0.00  0.00    +0.264 C 
ATOM     15  C   UNL     1      35.453 -24.643 -12.095  0.00  0.00    +0.348 C 
ATOM     16  H   UNL     1      37.108 -27.379 -12.050  0.00  0.00    +0.196 HD
ENDBRANCH   8  13
ENDBRANCH   2   8
ENDBRANCH   1   5
BRANCH   1  17
ATOM     17  C   UNL     1      36.039 -21.002 -19.833  0.00  0.00    +0.213 C 
BRANCH  17  18
ATOM     18  C   UNL     1      36.273 -19.760 -20.687  0.00  0.00    +0.105 C 
BRANCH  18  21
ATOM     19  O   UNL     1      33.105 -19.225 -22.419  0.00  0.00    -0.449 OA
ATOM     20  N   UNL     1      35.292 -18.726 -22.707  0.00  0.00    -0.373 NA
ATOM     21  C   UNL     1      35.100 -19.425 -21.563  0.00  0.00    +0.134 C 
ATOM     22  C   UNL     1      33.799 -19.737 -21.364  0.00  0.00    +0.216 C 
ATOM     23  C   UNL     1      34.068 -18.636 -23.178  0.00  0.00    +0.277 C 
ATOM     24  C   UNL     1      33.028 -20.453 -20.341  0.00  0.00    +0.055 C 
BRANCH  23  25
ATOM     25  C   UNL     1      33.598 -18.003 -24.380  0.00  0.00    +0.066 C 
ATOM     26  C   UNL     1      32.750 -18.690 -25.252  0.00  0.00    +0.006 C 
ATOM     27  C   UNL     1      33.989 -16.696 -24.684  0.00  0.00    +0.006 C 
ATOM     28  C   UNL     1      32.296 -18.076 -26.419  0.00  0.00    +0.000 C 
ATOM     29  C   UNL     1      33.534 -16.081 -25.850  0.00  0.00    +0.000 C 
ATOM     30  C   UNL     1      32.688 -16.771 -26.718  0.00  0.00    +0.000 C 
ENDBRANCH  23  25
ENDBRANCH  18  21
ENDBRANCH  17  18
ENDBRANCH   1  17
TORSDOF 7
ENDMDL
MODEL 4
REMARK VINA RESULT:     -11.6      5.160      9.504
REMARK  Name = 154000
REMARK  7 active torsions:
REMARK  status: ('A' for Active; 'I' for Inactive)
REMARK    1  A    between atoms: O_1  and  C_5
REMARK    2  A    between atoms: O_1  and  C_17
REMARK    3  A    between atoms: C_2  and  C_8
REMARK    4  A    between atoms: C_8  and  C_13
REMARK    5  A    between atoms: C_17  and  C_18
REMARK    6  A    between atoms: C_18  and  C_21
REMARK    7  A    between atoms: C_23  and  C_25
REMARK                            x       y       z     vdW  Elec       q    Type
REMARK                         _______ _______ _______ _____ _____    ______ ____
ROOT
ATOM      1  O   UNL     1      33.183 -16.243 -27.000  0.00  0.00    -0.475 OA
ENDROOT
BRANCH   1   5
ATOM      2  C   UNL     1      33.226 -12.198 -26.149  0.00  0.00    -0.021 C 
ATOM      3  C   UNL     1      33.445 -12.622 -27.452  0.00  0.00    -0.001 C 
ATOM      4  C   UNL     1      32.993 -13.106 -25.128  0.00  0.00    -0.001 C 
ATOM      5  C   UNL     1      33.198 -14.911 -26.721  0.00  0.00    +0.139 C 
ATOM      6  C   UNL     1      33.431 -13.987 -27.739  0.00  0.00    +0.037 C 
ATOM      7  C   UNL     1      32.979 -14.471 -25.415  0.00  0.00    +0.037 C 
BRANCH   2   8
ATOM      8  C   UNL     1      33.242 -10.722 -25.839  0.00  0.00    +0.047 C 
BRANCH   8  13
ATOM      9  O   UNL     1      35.178  -8.498 -24.065  0.00  0.00    -0.346 OA
ATOM     10  O   UNL     1      32.009  -9.727 -23.260  0.00  0.00    -0.272 OA
ATOM     11  O   UNL     1      36.180 -10.031 -25.451  0.00  0.00    -0.247 OA
ATOM     12  N   UNL     1      33.928  -8.415 -23.416  0.00  0.00    -0.144 N 
ATOM     13  C   UNL     1      33.955 -10.425 -24.533  0.00  0.00    +0.184 C 
ATOM     14  C   UNL     1      33.142  -9.515 -23.663  0.00  0.00    +0.264 C 
ATOM     15  C   UNL     1      35.238  -9.670 -24.765  0.00  0.00    +0.348 C 
ATOM     16  H   UNL     1      33.651  -7.657 -22.852  0.00  0.00    +0.196 HD
ENDBRANCH   8  13
ENDBRANCH   2   8
ENDBRANCH   1   5
BRANCH   1  17
ATOM     17  C   UNL     1      33.014 -17.135 -25.899  0.00  0.00    +0.213 C 
BRANCH  17  18
ATOM     18  C   UNL     1      34.378 -17.595 -25.393  0.00  0.00    +0.105 C 
BRANCH  18  21
ATOM     19  O   UNL     1      34.491 -17.686 -21.746  0.00  0.00    -0.449 OA
ATOM     20  N   UNL     1      34.234 -19.135 -23.464  0.00  0.00    -0.373 NA
ATOM     21  C   UNL     1      34.392 -17.868 -23.917  0.00  0.00    +0.134 C 
ATOM     22  C   UNL     1      34.547 -16.979 -22.909  0.00  0.00    +0.216 C 
ATOM     23  C   UNL     1      34.302 -18.968 -22.162  0.00  0.00    +0.277 C 
ATOM     24  C   UNL     1      34.750 -15.529 -22.801  0.00  0.00    +0.055 C 
BRANCH  23  25
ATOM     25  C   UNL     1      34.204 -19.944 -21.112  0.00  0.00    +0.066 C 
ATOM     26  C   UNL     1      32.952 -20.317 -20.612  0.00  0.00    +0.006 C 
ATOM     27  C   UNL     1      35.359 -20.523 -20.581  0.00  0.00    +0.006 C 
ATOM     28  C   UNL     1      32.859 -21.262 -19.591  0.00  0.00    +0.000 C 
ATOM     29  C   UNL     1      35.266 -21.469 -19.561  0.00  0.00    +0.000 C 
ATOM     30  C   UNL     1      34.015 -21.839 -19.065  0.00  0.00    +0.000 C 
ENDBRANCH  23  25
ENDBRANCH  18  21
ENDBRANCH  17  18
ENDBRANCH   1  17
TORSDOF 7
ENDMDL
MODEL 5
REMARK VINA RESULT:     -11.6      2.751     11.356
REMARK  Name = 154000
REMARK  7 active torsions:
REMARK  status: ('A' for Active; 'I' for Inactive)
REMARK    1  A    between atoms: O_1  and  C_5
REMARK    2  A    between atoms: O_1  and  C_17
REMARK    3  A    between atoms: C_2  and  C_8
REMARK    4  A    between atoms: C_8  and  C_13
REMARK    5  A    between atoms: C_17  and  C_18
REMARK    6  A    between atoms: C_18  and  C_21
REMARK    7  A    between atoms: C_23  and  C_25
REMARK                            x       y       z     vdW  Elec       q    Type
REMARK                         _______ _______ _______ _____ _____    ______ ____
ROOT
ATOM      1  O   UNL     1      34.296 -18.686 -21.699  0.00  0.00    -0.475 OA
ENDROOT
BRANCH   1   5
ATOM      2  C   UNL     1      33.635 -21.979 -19.290  0.00  0.00    -0.021 C 
ATOM      3  C   UNL     1      34.936 -21.611 -19.597  0.00  0.00    -0.001 C 
ATOM      4  C   UNL     1      32.552 -21.263 -19.776  0.00  0.00    -0.001 C 
ATOM      5  C   UNL     1      34.079 -19.770 -20.906  0.00  0.00    +0.139 C 
ATOM      6  C   UNL     1      35.160 -20.500 -20.410  0.00  0.00    +0.037 C 
ATOM      7  C   UNL     1      32.776 -20.152 -20.589  0.00  0.00    +0.037 C 
BRANCH   2   8
ATOM      8  C   UNL     1      33.394 -23.181 -18.412  0.00  0.00    +0.047 C 
BRANCH   8  13
ATOM      9  O   UNL     1      31.781 -23.938 -15.468  0.00  0.00    -0.346 OA
ATOM     10  O   UNL     1      35.215 -23.651 -16.040  0.00  0.00    -0.272 OA
ATOM     11  O   UNL     1      30.709 -22.687 -17.068  0.00  0.00    -0.247 OA
ATOM     12  N   UNL     1      33.130 -24.222 -15.170  0.00  0.00    -0.144 N 
ATOM     13  C   UNL     1      33.144 -22.789 -16.968  0.00  0.00    +0.184 C 
ATOM     14  C   UNL     1      33.995 -23.589 -16.030  0.00  0.00    +0.264 C 
ATOM     15  C   UNL     1      31.732 -23.102 -16.548  0.00  0.00    +0.348 C 
ATOM     16  H   UNL     1      33.418 -24.806 -14.431  0.00  0.00    +0.196 HD
ENDBRANCH   8  13
ENDBRANCH   2   8
ENDBRANCH   1   5
BRANCH   1  17
ATOM     17  C   UNL     1      35.275 -18.821 -22.730  0.00  0.00    +0.213 C 
BRANCH  17  18
ATOM     18  C   UNL     1      34.585 -19.083 -24.065  0.00  0.00    +0.105 C 
BRANCH  18  21
ATOM     19  O   UNL     1      32.518 -16.523 -25.645  0.00  0.00    -0.449 OA
ATOM     20  N   UNL     1      34.295 -16.634 -24.249  0.00  0.00    -0.373 NA
ATOM     21  C   UNL     1      33.875 -17.873 -24.602  0.00  0.00    +0.134 C 
ATOM     22  C   UNL     1      32.812 -17.837 -25.437  0.00  0.00    +0.216 C 
ATOM     23  C   UNL     1      33.450 -15.867 -24.901  0.00  0.00    +0.277 C 
ATOM     24  C   UNL     1      31.969 -18.826 -26.119  0.00  0.00    +0.055 C 
BRANCH  23  25
ATOM     25  C   UNL     1      33.365 -14.433 -24.940  0.00  0.00    +0.066 C 
ATOM     26  C   UNL     1      33.662 -13.678 -23.801  0.00  0.00    +0.006 C 
ATOM     27  C   UNL     1      32.983 -13.784 -26.118  0.00  0.00    +0.006 C 
ATOM     28  C   UNL     1      33.576 -12.287 -23.841  0.00  0.00    +0.000 C 
ATOM     29  C   UNL     1      32.899 -12.393 -26.157  0.00  0.00    +0.000 C 
ATOM     30  C   UNL     1      33.195 -11.643 -25.019  0.00  0.00    +0.000 C 
ENDBRANCH  23  25
ENDBRANCH  18  21
ENDBRANCH  17  18
ENDBRANCH   1  17
TORSDOF 7
ENDMDL
MODEL 6
REMARK VINA RESULT:     -11.6      2.534     10.200
REMARK  Name = 154000
REMARK  7 active torsions:
REMARK  status: ('A' for Active; 'I' for Inactive)
REMARK    1  A    between atoms: O_1  and  C_5
REMARK    2  A    between atoms: O_1  and  C_17
REMARK    3  A    between atoms: C_2  and  C_8
REMARK    4  A    between atoms: C_8  and  C_13
REMARK    5  A    between atoms: C_17  and  C_18
REMARK    6  A    between atoms: C_18  and  C_21
REMARK    7  A    between atoms: C_23  and  C_25
REMARK                            x       y       z     vdW  Elec       q    Type
REMARK                         _______ _______ _______ _____ _____    ______ ____
ROOT
ATOM      1  O   UNL     1      33.228 -23.349 -17.155  0.00  0.00    -0.475 OA
ENDROOT
BRANCH   1   5
ATOM      2  C   UNL     1      36.012 -23.528 -14.104  0.00  0.00    -0.021 C 
ATOM      3  C   UNL     1      34.775 -24.131 -13.934  0.00  0.00    -0.001 C 
ATOM      4  C   UNL     1      36.331 -22.865 -15.280  0.00  0.00    -0.001 C 
ATOM      5  C   UNL     1      34.144 -23.408 -16.150  0.00  0.00    +0.139 C 
ATOM      6  C   UNL     1      33.835 -24.071 -14.962  0.00  0.00    +0.037 C 
ATOM      7  C   UNL     1      35.391 -22.805 -16.309  0.00  0.00    +0.037 C 
BRANCH   2   8
ATOM      8  C   UNL     1      37.027 -23.592 -12.991  0.00  0.00    +0.047 C 
BRANCH   8  13
ATOM      9  O   UNL     1      36.945 -26.970 -13.640  0.00  0.00    -0.346 OA
ATOM     10  O   UNL     1      39.003 -24.541 -15.077  0.00  0.00    -0.272 OA
ATOM     11  O   UNL     1      36.286 -26.186 -11.584  0.00  0.00    -0.247 OA
ATOM     12  N   UNL     1      37.757 -26.469 -14.679  0.00  0.00    -0.144 N 
ATOM     13  C   UNL     1      37.797 -24.898 -13.000  0.00  0.00    +0.184 C 
ATOM     14  C   UNL     1      38.282 -25.236 -14.377  0.00  0.00    +0.264 C 
ATOM     15  C   UNL     1      36.918 -26.060 -12.620  0.00  0.00    +0.348 C 
ATOM     16  H   UNL     1      37.927 -26.948 -15.522  0.00  0.00    +0.196 HD
ENDBRANCH   8  13
ENDBRANCH   2   8
ENDBRANCH   1   5
BRANCH   1  17
ATOM     17  C   UNL     1      33.712 -23.013 -18.456  0.00  0.00    +0.213 C 
BRANCH  17  18
ATOM     18  C   UNL     1      32.976 -21.782 -18.977  0.00  0.00    +0.105 C 
BRANCH  18  21
ATOM     19  O   UNL     1      35.488 -19.972 -20.909  0.00  0.00    -0.449 OA
ATOM     20  N   UNL     1      33.234 -20.112 -20.781  0.00  0.00    -0.373 NA
ATOM     21  C   UNL     1      33.824 -20.936 -19.883  0.00  0.00    +0.134 C 
ATOM     22  C   UNL     1      35.174 -20.873 -19.937  0.00  0.00    +0.216 C 
ATOM     23  C   UNL     1      34.274 -19.560 -21.366  0.00  0.00    +0.277 C 
ATOM     24  C   UNL     1      36.291 -21.513 -19.233  0.00  0.00    +0.055 C 
BRANCH  23  25
ATOM     25  C   UNL     1      34.316 -18.585 -22.420  0.00  0.00    +0.066 C 
ATOM     26  C   UNL     1      33.915 -18.930 -23.715  0.00  0.00    +0.006 C 
ATOM     27  C   UNL     1      34.761 -17.286 -22.159  0.00  0.00    +0.006 C 
ATOM     28  C   UNL     1      33.959 -17.983 -24.738  0.00  0.00    +0.000 C 
ATOM     29  C   UNL     1      34.804 -16.339 -23.182  0.00  0.00    +0.000 C 
ATOM     30  C   UNL     1      34.403 -16.688 -24.472  0.00  0.00    +0.000 C 
ENDBRANCH  23  25
ENDBRANCH  18  21
ENDBRANCH  17  18
ENDBRANCH   1  17
TORSDOF 7
ENDMDL
MODEL 7
REMARK VINA RESULT:     -11.5      5.666     10.117
REMARK  Name = 154000
REMARK  7 active torsions:
REMARK  status: ('A' for Active; 'I' for Inactive)
REMARK    1  A    between atoms: O_1  and  C_5
REMARK    2  A    between atoms: O_1  and  C_17
REMARK    3  A    between atoms: C_2  and  C_8
REMARK    4  A    between atoms: C_8  and  C_13
REMARK    5  A    between atoms: C_17  and  C_18
REMARK    6  A    between atoms: C_18  and  C_21
REMARK    7  A    between atoms: C_23  and  C_25
REMARK                            x       y       z     vdW  Elec       q    Type
REMARK                         _______ _______ _______ _____ _____    ______ ____
ROOT
ATOM      1  O   UNL     1      33.204 -14.067 -23.602  0.00  0.00    -0.475 OA
ENDROOT
BRANCH   1   5
ATOM      2  C   UNL     1      31.937 -10.273 -22.559  0.00  0.00    -0.021 C 
ATOM      3  C   UNL     1      32.776 -10.435 -23.652  0.00  0.00    -0.001 C 
ATOM      4  C   UNL     1      31.517 -11.361 -21.810  0.00  0.00    -0.001 C 
ATOM      5  C   UNL     1      32.787 -12.818 -23.259  0.00  0.00    +0.139 C 
ATOM      6  C   UNL     1      33.204 -11.714 -24.004  0.00  0.00    +0.037 C 
ATOM      7  C   UNL     1      31.944 -12.641 -22.162  0.00  0.00    +0.037 C 
BRANCH   2   8
ATOM      8  C   UNL     1      31.477  -8.889 -22.178  0.00  0.00    +0.047 C 
BRANCH   8  13
ATOM      9  O   UNL     1      32.378  -5.907 -20.716  0.00  0.00    -0.346 OA
ATOM     10  O   UNL     1      32.524  -9.117 -19.347  0.00  0.00    -0.272 OA
ATOM     11  O   UNL     1      32.456  -6.128 -23.001  0.00  0.00    -0.247 OA
ATOM     12  N   UNL     1      32.397  -6.808 -19.631  0.00  0.00    -0.144 N 
ATOM     13  C   UNL     1      32.587  -8.076 -21.540  0.00  0.00    +0.184 C 
ATOM     14  C   UNL     1      32.501  -8.114 -20.044  0.00  0.00    +0.264 C 
ATOM     15  C   UNL     1      32.468  -6.614 -21.882  0.00  0.00    +0.348 C 
ATOM     16  H   UNL     1      32.342  -6.532 -18.688  0.00  0.00    +0.196 HD
ENDBRANCH   8  13
ENDBRANCH   2   8
ENDBRANCH   1   5
BRANCH   1  17
ATOM     17  C   UNL     1      34.106 -14.719 -22.707  0.00  0.00    +0.213 C 
BRANCH  17  18
ATOM     18  C   UNL     1      34.920 -15.763 -23.467  0.00  0.00    +0.105 C 
BRANCH  18  21
ATOM     19  O   UNL     1      33.776 -19.218 -23.191  0.00  0.00    -0.449 OA
ATOM     20  N   UNL     1      34.744 -17.650 -21.879  0.00  0.00    -0.373 NA
ATOM     21  C   UNL     1      34.524 -17.171 -23.127  0.00  0.00    +0.134 C 
ATOM     22  C   UNL     1      33.946 -18.089 -23.935  0.00  0.00    +0.216 C 
ATOM     23  C   UNL     1      34.277 -18.875 -21.973  0.00  0.00    +0.277 C 
ATOM     24  C   UNL     1      33.494 -18.134 -25.330  0.00  0.00    +0.055 C 
BRANCH  23  25
ATOM     25  C   UNL     1      34.221 -19.908 -20.976  0.00  0.00    +0.066 C 
ATOM     26  C   UNL     1      32.988 -20.357 -20.496  0.00  0.00    +0.006 C 
ATOM     27  C   UNL     1      35.401 -20.469 -20.480  0.00  0.00    +0.006 C 
ATOM     28  C   UNL     1      32.935 -21.359 -19.526  0.00  0.00    +0.000 C 
ATOM     29  C   UNL     1      35.349 -21.471 -19.511  0.00  0.00    +0.000 C 
ATOM     30  C   UNL     1      34.115 -21.916 -19.034  0.00  0.00    +0.000 C 
ENDBRANCH  23  25
ENDBRANCH  18  21
ENDBRANCH  17  18
ENDBRANCH   1  17
TORSDOF 7
ENDMDL
MODEL 8
REMARK VINA RESULT:     -11.4      2.506     10.319
REMARK  Name = 154000
REMARK  7 active torsions:
REMARK  status: ('A' for Active; 'I' for Inactive)
REMARK    1  A    between atoms: O_1  and  C_5
REMARK    2  A    between atoms: O_1  and  C_17
REMARK    3  A    between atoms: C_2  and  C_8
REMARK    4  A    between atoms: C_8  and  C_13
REMARK    5  A    between atoms: C_17  and  C_18
REMARK    6  A    between atoms: C_18  and  C_21
REMARK    7  A    between atoms: C_23  and  C_25
REMARK                            x       y       z     vdW  Elec       q    Type
REMARK                         _______ _______ _______ _____ _____    ______ ____
ROOT
ATOM      1  O   UNL     1      33.625 -22.842 -16.906  0.00  0.00    -0.475 OA
ENDROOT
BRANCH   1   5
ATOM      2  C   UNL     1      36.790 -24.193 -14.616  0.00  0.00    -0.021 C 
ATOM      3  C   UNL     1      36.897 -22.977 -15.276  0.00  0.00    -0.001 C 
ATOM      4  C   UNL     1      35.641 -24.963 -14.711  0.00  0.00    -0.001 C 
ATOM      5  C   UNL     1      34.668 -23.286 -16.152  0.00  0.00    +0.139 C 
ATOM      6  C   UNL     1      35.830 -22.521 -16.049  0.00  0.00    +0.037 C 
ATOM      7  C   UNL     1      34.573 -24.506 -15.484  0.00  0.00    +0.037 C 
BRANCH   2   8
ATOM      8  C   UNL     1      37.945 -24.686 -13.782  0.00  0.00    +0.047 C 
BRANCH   8  13
ATOM      9  O   UNL     1      35.991 -23.219 -11.359  0.00  0.00    -0.346 OA
ATOM     10  O   UNL     1      36.555 -26.621 -11.915  0.00  0.00    -0.272 OA
ATOM     11  O   UNL     1      37.779 -22.073 -12.233  0.00  0.00    -0.247 OA
ATOM     12  N   UNL     1      35.633 -24.580 -11.270  0.00  0.00    -0.144 N 
ATOM     13  C   UNL     1      37.690 -24.509 -12.297  0.00  0.00    +0.184 C 
ATOM     14  C   UNL     1      36.585 -25.404 -11.823  0.00  0.00    +0.264 C 
ATOM     15  C   UNL     1      37.203 -23.118 -11.984  0.00  0.00    +0.348 C 
ATOM     16  H   UNL     1      34.798 -24.903 -10.860  0.00  0.00    +0.196 HD
ENDBRANCH   8  13
ENDBRANCH   2   8
ENDBRANCH   1   5
BRANCH   1  17
ATOM     17  C   UNL     1      33.769 -22.921 -18.324  0.00  0.00    +0.213 C 
BRANCH  17  18
ATOM     18  C   UNL     1      32.986 -21.791 -18.985  0.00  0.00    +0.105 C 
BRANCH  18  21
ATOM     19  O   UNL     1      35.508 -19.968 -20.893  0.00  0.00    -0.449 OA
ATOM     20  N   UNL     1      33.253 -20.080 -20.750  0.00  0.00    -0.373 NA
ATOM     21  C   UNL     1      33.839 -20.935 -19.877  0.00  0.00    +0.134 C 
ATOM     22  C   UNL     1      35.189 -20.889 -19.941  0.00  0.00    +0.216 C 
ATOM     23  C   UNL     1      34.296 -19.529 -21.330  0.00  0.00    +0.277 C 
ATOM     24  C   UNL     1      36.303 -21.561 -19.262  0.00  0.00    +0.055 C 
BRANCH  23  25
ATOM     25  C   UNL     1      34.343 -18.529 -22.361  0.00  0.00    +0.066 C 
ATOM     26  C   UNL     1      34.822 -17.246 -22.077  0.00  0.00    +0.006 C 
ATOM     27  C   UNL     1      33.909 -18.833 -23.654  0.00  0.00    +0.006 C 
ATOM     28  C   UNL     1      34.865 -16.277 -23.078  0.00  0.00    +0.000 C 
ATOM     29  C   UNL     1      33.953 -17.863 -24.656  0.00  0.00    +0.000 C 
ATOM     30  C   UNL     1      34.431 -16.585 -24.368  0.00  0.00    +0.000 C 
ENDBRANCH  23  25
ENDBRANCH  18  21
ENDBRANCH  17  18
ENDBRANCH   1  17
TORSDOF 7
ENDMDL
MODEL 9
REMARK VINA RESULT:     -11.4      5.236     11.667
REMARK  Name = 154000
REMARK  7 active torsions:
REMARK  status: ('A' for Active; 'I' for Inactive)
REMARK    1  A    between atoms: O_1  and  C_5
REMARK    2  A    between atoms: O_1  and  C_17
REMARK    3  A    between atoms: C_2  and  C_8
REMARK    4  A    between atoms: C_8  and  C_13
REMARK    5  A    between atoms: C_17  and  C_18
REMARK    6  A    between atoms: C_18  and  C_21
REMARK    7  A    between atoms: C_23  and  C_25
REMARK                            x       y       z     vdW  Elec       q    Type
REMARK                         _______ _______ _______ _____ _____    ______ ____
ROOT
ATOM      1  O   UNL     1      34.147 -16.538 -26.109  0.00  0.00    -0.475 OA
ENDROOT
BRANCH   1   5
ATOM      2  C   UNL     1      34.508 -18.232 -22.356  0.00  0.00    -0.021 C 
ATOM      3  C   UNL     1      34.164 -19.034 -23.434  0.00  0.00    -0.001 C 
ATOM      4  C   UNL     1      34.733 -16.873 -22.514  0.00  0.00    -0.001 C 
ATOM      5  C   UNL     1      34.265 -17.097 -24.874  0.00  0.00    +0.139 C 
ATOM      6  C   UNL     1      34.042 -18.463 -24.701  0.00  0.00    +0.037 C 
ATOM      7  C   UNL     1      34.610 -16.302 -23.780  0.00  0.00    +0.037 C 
BRANCH   2   8
ATOM      8  C   UNL     1      34.639 -18.850 -20.986  0.00  0.00    +0.047 C 
BRANCH   8  13
ATOM      9  O   UNL     1      34.110 -21.675 -19.095  0.00  0.00    -0.346 OA
ATOM     10  O   UNL     1      31.806 -19.915 -21.043  0.00  0.00    -0.272 OA
ATOM     11  O   UNL     1      36.201 -21.242 -19.941  0.00  0.00    -0.247 OA
ATOM     12  N   UNL     1      32.801 -21.271 -19.430  0.00  0.00    -0.144 N 
ATOM     13  C   UNL     1      34.202 -20.302 -20.975  0.00  0.00    +0.184 C 
ATOM     14  C   UNL     1      32.779 -20.441 -20.525  0.00  0.00    +0.264 C 
ATOM     15  C   UNL     1      34.989 -21.107 -19.974  0.00  0.00    +0.348 C 
ATOM     16  H   UNL     1      31.996 -21.552 -18.937  0.00  0.00    +0.196 HD
ENDBRANCH   8  13
ENDBRANCH   2   8
ENDBRANCH   1   5
BRANCH   1  17
ATOM     17  C   UNL     1      32.977 -15.759 -26.360  0.00  0.00    +0.213 C 
BRANCH  17  18
ATOM     18  C   UNL     1      33.378 -14.368 -26.840  0.00  0.00    +0.105 C 
BRANCH  18  21
ATOM     19  O   UNL     1      33.227 -11.453 -24.648  0.00  0.00    -0.449 OA
ATOM     20  N   UNL     1      32.683 -13.647 -24.579  0.00  0.00    -0.373 NA
ATOM     21  C   UNL     1      33.220 -13.317 -25.778  0.00  0.00    +0.134 C 
ATOM     22  C   UNL     1      33.555 -12.008 -25.848  0.00  0.00    +0.216 C 
ATOM     23  C   UNL     1      32.712 -12.497 -23.944  0.00  0.00    +0.277 C 
ATOM     24  C   UNL     1      34.150 -11.122 -26.855  0.00  0.00    +0.055 C 
BRANCH  23  25
ATOM     25  C   UNL     1      32.276 -12.180 -22.611  0.00  0.00    +0.066 C 
ATOM     26  C   UNL     1      31.874 -10.879 -22.293  0.00  0.00    +0.006 C 
ATOM     27  C   UNL     1      32.255 -13.170 -21.626  0.00  0.00    +0.006 C 
ATOM     28  C   UNL     1      31.454 -10.573 -20.999  0.00  0.00    +0.000 C 
ATOM     29  C   UNL     1      31.833 -12.863 -20.332  0.00  0.00    +0.000 C 
ATOM     30  C   UNL     1      31.433 -11.564 -20.018  0.00  0.00    +0.000 C 
ENDBRANCH  23  25
ENDBRANCH  18  21
ENDBRANCH  17  18
ENDBRANCH   1  17
TORSDOF 7
ENDMDL
