MODEL 1
REMARK VINA RESULT:     -11.7      0.000      0.000
REMARK  Name = 3351
REMARK  5 active torsions:
REMARK  status: ('A' for Active; 'I' for Inactive)
REMARK    1  A    between atoms: N_2  and  C_10
REMARK    2  A    between atoms: C_8  and  C_20
REMARK    3  A    between atoms: C_10  and  C_13
REMARK    4  A    between atoms: C_20  and  O_21
REMARK    5  A    between atoms: O_21  and  C_23
REMARK                            x       y       z     vdW  Elec       q    Type
REMARK                         _______ _______ _______ _____ _____    ______ ____
ROOT
ATOM      1  O   UNL     1      30.850 -23.498 -16.938  0.00  0.00    -0.271 OA
ATOM      2  N   UNL     1      34.197 -23.813 -13.248  0.00  0.00    +0.392 N 
ATOM      3  N   UNL     1      32.755 -23.190 -15.643  0.00  0.00    -0.281 N 
ATOM      4  C   UNL     1      32.828 -24.310 -13.444  0.00  0.00    -0.055 C 
ATOM      5  C   UNL     1      34.899 -23.719 -14.536  0.00  0.00    -0.055 C 
ATOM      6  C   UNL     1      32.046 -23.388 -14.379  0.00  0.00    +0.071 C 
ATOM      7  C   UNL     1      34.156 -22.789 -15.498  0.00  0.00    +0.071 C 
ATOM      8  C   UNL     1      32.059 -23.268 -16.849  0.00  0.00    +0.270 C 
ATOM      9  H   UNL     1      34.146 -22.880 -12.839  0.00  0.00    -0.079 HD
ENDROOT
BRANCH   2  10
ATOM     10  C   UNL     1      34.930 -24.679 -12.326  0.00  0.00    -0.050 C 
BRANCH  10  13
ATOM     11  O   UNL     1      38.675 -26.753 -14.787  0.00  0.00    -0.435 OA
ATOM     12  O   UNL     1      40.293 -25.248 -13.825  0.00  0.00    -0.435 OA
ATOM     13  C   UNL     1      36.382 -24.803 -12.707  0.00  0.00    -0.040 C 
ATOM     14  C   UNL     1      36.766 -25.787 -13.612  0.00  0.00    +0.034 C 
ATOM     15  C   UNL     1      37.313 -23.924 -12.141  0.00  0.00    -0.003 C 
ATOM     16  C   UNL     1      38.107 -25.862 -13.930  0.00  0.00    +0.176 C 
ATOM     17  C   UNL     1      39.030 -25.003 -13.379  0.00  0.00    +0.176 C 
ATOM     18  C   UNL     1      38.665 -24.022 -12.481  0.00  0.00    +0.040 C 
ATOM     19  C   UNL     1      40.060 -26.358 -14.717  0.00  0.00    +0.429 C 
ENDBRANCH  10  13
ENDBRANCH   2  10
BRANCH   8  20
ATOM     20  C   UNL     1      32.863 -23.057 -18.107  0.00  0.00    +0.290 C 
BRANCH  20  21
ATOM     21  O   UNL     1      32.268 -21.982 -18.790  0.00  0.00    -0.466 OA
BRANCH  21  23
ATOM     22 CL   UNL     1      35.714 -18.791 -22.315  0.00  0.00    -0.082 Cl
ATOM     23  C   UNL     1      33.076 -21.232 -19.615  0.00  0.00    +0.139 C 
ATOM     24  C   UNL     1      32.501 -20.317 -20.484  0.00  0.00    +0.038 C 
ATOM     25  C   UNL     1      34.451 -21.406 -19.563  0.00  0.00    +0.038 C 
ATOM     26  C   UNL     1      33.319 -19.560 -21.322  0.00  0.00    +0.015 C 
ATOM     27  C   UNL     1      35.270 -20.648 -20.402  0.00  0.00    +0.015 C 
ATOM     28  C   UNL     1      34.705 -19.725 -21.280  0.00  0.00    +0.058 C 
ENDBRANCH  21  23
ENDBRANCH  20  21
ENDBRANCH   8  20
TORSDOF 5
ENDMDL
MODEL 2
REMARK VINA RESULT:     -11.6      2.615      6.701
REMARK  Name = 3351
REMARK  5 active torsions:
REMARK  status: ('A' for Active; 'I' for Inactive)
REMARK    1  A    between atoms: N_2  and  C_10
REMARK    2  A    between atoms: C_8  and  C_20
REMARK    3  A    between atoms: C_10  and  C_13
REMARK    4  A    between atoms: C_20  and  O_21
REMARK    5  A    between atoms: O_21  and  C_23
REMARK                            x       y       z     vdW  Elec       q    Type
REMARK                         _______ _______ _______ _____ _____    ______ ____
ROOT
ATOM      1  O   UNL     1      37.576 -22.953 -14.919  0.00  0.00    -0.271 OA
ATOM      2  N   UNL     1      32.770 -24.251 -14.547  0.00  0.00    +0.392 N 
ATOM      3  N   UNL     1      35.364 -23.430 -15.445  0.00  0.00    -0.281 N 
ATOM      4  C   UNL     1      33.914 -24.252 -13.624  0.00  0.00    -0.055 C 
ATOM      5  C   UNL     1      32.908 -23.171 -15.535  0.00  0.00    -0.055 C 
ATOM      6  C   UNL     1      35.226 -24.430 -14.387  0.00  0.00    +0.071 C 
ATOM      7  C   UNL     1      34.204 -23.322 -16.335  0.00  0.00    +0.071 C 
ATOM      8  C   UNL     1      36.575 -22.761 -15.615  0.00  0.00    +0.270 C 
ATOM      9  H   UNL     1      32.755 -25.142 -15.044  0.00  0.00    -0.079 HD
ENDROOT
BRANCH   2  10
ATOM     10  C   UNL     1      31.515 -24.115 -13.810  0.00  0.00    -0.050 C 
BRANCH  10  13
ATOM     11  O   UNL     1      27.947 -21.814 -16.332  0.00  0.00    -0.435 OA
ATOM     12  O   UNL     1      27.081 -23.882 -17.218  0.00  0.00    -0.435 OA
ATOM     13  C   UNL     1      30.324 -24.090 -14.730  0.00  0.00    -0.040 C 
ATOM     14  C   UNL     1      29.741 -22.869 -15.055  0.00  0.00    +0.034 C 
ATOM     15  C   UNL     1      29.828 -25.296 -15.239  0.00  0.00    -0.003 C 
ATOM     16  C   UNL     1      28.651 -22.896 -15.901  0.00  0.00    +0.176 C 
ATOM     17  C   UNL     1      28.157 -24.077 -16.407  0.00  0.00    +0.176 C 
ATOM     18  C   UNL     1      28.723 -25.295 -16.094  0.00  0.00    +0.040 C 
ATOM     19  C   UNL     1      26.955 -22.445 -17.166  0.00  0.00    +0.429 C 
ENDBRANCH  10  13
ENDBRANCH   2  10
BRANCH   8  20
ATOM     20  C   UNL     1      36.633 -21.742 -16.724  0.00  0.00    +0.290 C 
BRANCH  20  21
ATOM     21  O   UNL     1      36.218 -22.398 -17.897  0.00  0.00    -0.466 OA
BRANCH  21  23
ATOM     22 CL   UNL     1      33.922 -19.097 -22.176  0.00  0.00    -0.082 Cl
ATOM     23  C   UNL     1      35.679 -21.623 -18.899  0.00  0.00    +0.139 C 
ATOM     24  C   UNL     1      34.320 -21.701 -19.165  0.00  0.00    +0.038 C 
ATOM     25  C   UNL     1      36.505 -20.778 -19.625  0.00  0.00    +0.038 C 
ATOM     26  C   UNL     1      33.775 -20.918 -20.182  0.00  0.00    +0.015 C 
ATOM     27  C   UNL     1      35.959 -19.994 -20.642  0.00  0.00    +0.015 C 
ATOM     28  C   UNL     1      34.595 -20.063 -20.921  0.00  0.00    +0.058 C 
ENDBRANCH  21  23
ENDBRANCH  20  21
ENDBRANCH   8  20
TORSDOF 5
ENDMDL
MODEL 3
REMARK VINA RESULT:     -11.6      8.319     13.557
REMARK  Name = 3351
REMARK  5 active torsions:
REMARK  status: ('A' for Active; 'I' for Inactive)
REMARK    1  A    between atoms: N_2  and  C_10
REMARK    2  A    between atoms: C_8  and  C_20
REMARK    3  A    between atoms: C_10  and  C_13
REMARK    4  A    between atoms: C_20  and  O_21
REMARK    5  A    between atoms: O_21  and  C_23
REMARK                            x       y       z     vdW  Elec       q    Type
REMARK                         _______ _______ _______ _____ _____    ______ ____
ROOT
ATOM      1  O   UNL     1      35.003 -16.768 -23.794  0.00  0.00    -0.271 OA
ATOM      2  N   UNL     1      32.614 -12.696 -22.174  0.00  0.00    +0.392 N 
ATOM      3  N   UNL     1      34.279 -15.009 -22.460  0.00  0.00    -0.281 N 
ATOM      4  C   UNL     1      32.707 -13.392 -23.465  0.00  0.00    -0.055 C 
ATOM      5  C   UNL     1      32.761 -13.648 -21.064  0.00  0.00    -0.055 C 
ATOM      6  C   UNL     1      34.047 -14.116 -23.594  0.00  0.00    +0.071 C 
ATOM      7  C   UNL     1      34.100 -14.383 -21.147  0.00  0.00    +0.071 C 
ATOM      8  C   UNL     1      34.753 -16.302 -22.679  0.00  0.00    +0.270 C 
ATOM      9  H   UNL     1      33.373 -12.016 -22.119  0.00  0.00    -0.079 HD
ENDROOT
BRANCH   2  10
ATOM     10  C   UNL     1      31.345 -11.976 -22.069  0.00  0.00    -0.050 C 
BRANCH  10  13
ATOM     11  O   UNL     1      32.437  -7.198 -21.471  0.00  0.00    -0.435 OA
ATOM     12  O   UNL     1      31.884  -7.246 -19.126  0.00  0.00    -0.435 OA
ATOM     13  C   UNL     1      31.478 -10.722 -21.246  0.00  0.00    -0.040 C 
ATOM     14  C   UNL     1      31.919  -9.552 -21.857  0.00  0.00    +0.034 C 
ATOM     15  C   UNL     1      31.155 -10.761 -19.885  0.00  0.00    -0.003 C 
ATOM     16  C   UNL     1      32.025  -8.428 -21.062  0.00  0.00    +0.176 C 
ATOM     17  C   UNL     1      31.709  -8.457 -19.723  0.00  0.00    +0.176 C 
ATOM     18  C   UNL     1      31.271  -9.609 -19.104  0.00  0.00    +0.040 C 
ATOM     19  C   UNL     1      32.345  -6.453 -20.240  0.00  0.00    +0.429 C 
ENDBRANCH  10  13
ENDBRANCH   2  10
BRANCH   8  20
ATOM     20  C   UNL     1      34.961 -17.160 -21.457  0.00  0.00    +0.290 C 
BRANCH  20  21
ATOM     21  O   UNL     1      35.144 -18.477 -21.917  0.00  0.00    -0.466 OA
BRANCH  21  23
ATOM     22 CL   UNL     1      33.296 -22.836 -18.443  0.00  0.00    -0.082 Cl
ATOM     23  C   UNL     1      34.711 -19.498 -21.101  0.00  0.00    +0.139 C 
ATOM     24  C   UNL     1      35.643 -20.285 -20.441  0.00  0.00    +0.038 C 
ATOM     25  C   UNL     1      33.350 -19.722 -20.954  0.00  0.00    +0.038 C 
ATOM     26  C   UNL     1      35.204 -21.321 -19.616  0.00  0.00    +0.015 C 
ATOM     27  C   UNL     1      32.911 -20.759 -20.129  0.00  0.00    +0.015 C 
ATOM     28  C   UNL     1      33.837 -21.557 -19.460  0.00  0.00    +0.058 C 
ENDBRANCH  21  23
ENDBRANCH  20  21
ENDBRANCH   8  20
TORSDOF 5
ENDMDL
MODEL 4
REMARK VINA RESULT:     -11.4      5.303     11.334
REMARK  Name = 3351
REMARK  5 active torsions:
REMARK  status: ('A' for Active; 'I' for Inactive)
REMARK    1  A    between atoms: N_2  and  C_10
REMARK    2  A    between atoms: C_8  and  C_20
REMARK    3  A    between atoms: C_10  and  C_13
REMARK    4  A    between atoms: C_20  and  O_21
REMARK    5  A    between atoms: O_21  and  C_23
REMARK                            x       y       z     vdW  Elec       q    Type
REMARK                         _______ _______ _______ _____ _____    ______ ____
ROOT
ATOM      1  O   UNL     1      36.192 -21.710 -19.057  0.00  0.00    -0.271 OA
ATOM      2  N   UNL     1      34.784 -18.379 -22.497  0.00  0.00    +0.392 N 
ATOM      3  N   UNL     1      34.914 -20.240 -20.324  0.00  0.00    -0.281 N 
ATOM      4  C   UNL     1      36.071 -18.959 -22.089  0.00  0.00    -0.055 C 
ATOM      5  C   UNL     1      33.693 -19.338 -22.273  0.00  0.00    -0.055 C 
ATOM      6  C   UNL     1      36.042 -19.355 -20.613  0.00  0.00    +0.071 C 
ATOM      7  C   UNL     1      33.618 -19.749 -20.801  0.00  0.00    +0.071 C 
ATOM      8  C   UNL     1      35.107 -21.378 -19.542  0.00  0.00    +0.270 C 
ATOM      9  H   UNL     1      34.607 -17.551 -21.927  0.00  0.00    -0.079 HD
ENDROOT
BRANCH   2  10
ATOM     10  C   UNL     1      34.827 -17.969 -23.900  0.00  0.00    -0.050 C 
BRANCH  10  13
ATOM     11  O   UNL     1      32.779 -14.320 -26.522  0.00  0.00    -0.435 OA
ATOM     12  O   UNL     1      33.023 -12.735 -24.723  0.00  0.00    -0.435 OA
ATOM     13  C   UNL     1      34.352 -16.552 -24.086  0.00  0.00    -0.040 C 
ATOM     14  C   UNL     1      33.778 -16.181 -25.298  0.00  0.00    +0.034 C 
ATOM     15  C   UNL     1      34.499 -15.640 -23.035  0.00  0.00    -0.003 C 
ATOM     16  C   UNL     1      33.359 -14.872 -25.422  0.00  0.00    +0.176 C 
ATOM     17  C   UNL     1      33.499 -13.967 -24.394  0.00  0.00    +0.176 C 
ATOM     18  C   UNL     1      34.066 -14.320 -23.187  0.00  0.00    +0.040 C 
ATOM     19  C   UNL     1      32.569 -12.966 -26.073  0.00  0.00    +0.429 C 
ENDBRANCH  10  13
ENDBRANCH   2  10
BRANCH   8  20
ATOM     20  C   UNL     1      33.895 -22.240 -19.294  0.00  0.00    +0.290 C 
BRANCH  20  21
ATOM     21  O   UNL     1      34.223 -23.102 -18.233  0.00  0.00    -0.466 OA
BRANCH  21  23
ATOM     22 CL   UNL     1      30.439 -23.439 -13.756  0.00  0.00    -0.082 Cl
ATOM     23  C   UNL     1      33.337 -23.179 -17.183  0.00  0.00    +0.139 C 
ATOM     24  C   UNL     1      33.805 -23.500 -15.918  0.00  0.00    +0.038 C 
ATOM     25  C   UNL     1      31.990 -22.936 -17.409  0.00  0.00    +0.038 C 
ATOM     26  C   UNL     1      32.906 -23.581 -14.854  0.00  0.00    +0.015 C 
ATOM     27  C   UNL     1      31.091 -23.017 -16.345  0.00  0.00    +0.015 C 
ATOM     28  C   UNL     1      31.548 -23.339 -15.068  0.00  0.00    +0.058 C 
ENDBRANCH  21  23
ENDBRANCH  20  21
ENDBRANCH   8  20
TORSDOF 5
ENDMDL
MODEL 5
REMARK VINA RESULT:     -11.4      4.410     10.352
REMARK  Name = 3351
REMARK  5 active torsions:
REMARK  status: ('A' for Active; 'I' for Inactive)
REMARK    1  A    between atoms: N_2  and  C_10
REMARK    2  A    between atoms: C_8  and  C_20
REMARK    3  A    between atoms: C_10  and  C_13
REMARK    4  A    between atoms: C_20  and  O_21
REMARK    5  A    between atoms: O_21  and  C_23
REMARK                            x       y       z     vdW  Elec       q    Type
REMARK                         _______ _______ _______ _____ _____    ______ ____
ROOT
ATOM      1  O   UNL     1      31.784 -22.417 -17.925  0.00  0.00    -0.271 OA
ATOM      2  N   UNL     1      34.625 -19.974 -21.222  0.00  0.00    +0.392 N 
ATOM      3  N   UNL     1      33.519 -21.851 -19.362  0.00  0.00    -0.281 N 
ATOM      4  C   UNL     1      33.276 -19.773 -20.674  0.00  0.00    -0.055 C 
ATOM      5  C   UNL     1      35.488 -20.639 -20.235  0.00  0.00    -0.055 C 
ATOM      6  C   UNL     1      32.650 -21.110 -20.276  0.00  0.00    +0.071 C 
ATOM      7  C   UNL     1      34.903 -21.992 -19.821  0.00  0.00    +0.071 C 
ATOM      8  C   UNL     1      32.979 -22.457 -18.229  0.00  0.00    +0.270 C 
ATOM      9  H   UNL     1      34.554 -20.573 -22.044  0.00  0.00    -0.079 HD
ENDROOT
BRANCH   2  10
ATOM     10  C   UNL     1      35.207 -18.697 -21.633  0.00  0.00    -0.050 C 
BRANCH  10  13
ATOM     11  O   UNL     1      33.733 -15.363 -24.963  0.00  0.00    -0.435 OA
ATOM     12  O   UNL     1      33.468 -17.028 -26.685  0.00  0.00    -0.435 OA
ATOM     13  C   UNL     1      34.742 -18.284 -23.004  0.00  0.00    -0.040 C 
ATOM     14  C   UNL     1      34.471 -16.943 -23.255  0.00  0.00    +0.034 C 
ATOM     15  C   UNL     1      34.591 -19.260 -23.997  0.00  0.00    -0.003 C 
ATOM     16  C   UNL     1      34.047 -16.612 -24.526  0.00  0.00    +0.176 C 
ATOM     17  C   UNL     1      33.896 -17.564 -25.509  0.00  0.00    +0.176 C 
ATOM     18  C   UNL     1      34.160 -18.897 -25.276  0.00  0.00    +0.040 C 
ATOM     19  C   UNL     1      33.368 -15.633 -26.331  0.00  0.00    +0.429 C 
ENDBRANCH  10  13
ENDBRANCH   2  10
BRANCH   8  20
ATOM     20  C   UNL     1      33.942 -23.198 -17.337  0.00  0.00    +0.290 C 
BRANCH  20  21
ATOM     21  O   UNL     1      33.410 -23.143 -16.036  0.00  0.00    -0.466 OA
BRANCH  21  23
ATOM     22 CL   UNL     1      37.062 -24.275 -11.579  0.00  0.00    -0.082 Cl
ATOM     23  C   UNL     1      34.266 -23.406 -14.991  0.00  0.00    +0.139 C 
ATOM     24  C   UNL     1      35.611 -23.095 -15.116  0.00  0.00    +0.038 C 
ATOM     25  C   UNL     1      33.768 -23.980 -13.830  0.00  0.00    +0.038 C 
ATOM     26  C   UNL     1      36.479 -23.365 -14.058  0.00  0.00    +0.015 C 
ATOM     27  C   UNL     1      34.636 -24.250 -12.771  0.00  0.00    +0.015 C 
ATOM     28  C   UNL     1      35.991 -23.942 -12.884  0.00  0.00    +0.058 C 
ENDBRANCH  21  23
ENDBRANCH  20  21
ENDBRANCH   8  20
TORSDOF 5
ENDMDL
MODEL 6
REMARK VINA RESULT:     -11.4      6.869     10.786
REMARK  Name = 3351
REMARK  5 active torsions:
REMARK  status: ('A' for Active; 'I' for Inactive)
REMARK    1  A    between atoms: N_2  and  C_10
REMARK    2  A    between atoms: C_8  and  C_20
REMARK    3  A    between atoms: C_10  and  C_13
REMARK    4  A    between atoms: C_20  and  O_21
REMARK    5  A    between atoms: O_21  and  C_23
REMARK                            x       y       z     vdW  Elec       q    Type
REMARK                         _______ _______ _______ _____ _____    ______ ____
ROOT
ATOM      1  O   UNL     1      32.664 -16.409 -27.672  0.00  0.00    -0.271 OA
ATOM      2  N   UNL     1      34.198 -17.946 -23.177  0.00  0.00    +0.392 N 
ATOM      3  N   UNL     1      33.316 -16.429 -25.442  0.00  0.00    -0.281 N 
ATOM      4  C   UNL     1      33.800 -18.624 -24.419  0.00  0.00    -0.055 C 
ATOM      5  C   UNL     1      34.797 -16.637 -23.475  0.00  0.00    -0.055 C 
ATOM      6  C   UNL     1      32.798 -17.776 -25.202  0.00  0.00    +0.071 C 
ATOM      7  C   UNL     1      33.817 -15.749 -24.246  0.00  0.00    +0.071 C 
ATOM      8  C   UNL     1      33.194 -15.854 -26.706  0.00  0.00    +0.270 C 
ATOM      9  H   UNL     1      33.363 -17.797 -22.609  0.00  0.00    -0.079 HD
ENDROOT
BRANCH   2  10
ATOM     10  C   UNL     1      35.130 -18.775 -22.415  0.00  0.00    -0.050 C 
BRANCH  10  13
ATOM     11  O   UNL     1      35.002 -22.210 -18.870  0.00  0.00    -0.435 OA
ATOM     12  O   UNL     1      32.597 -22.142 -18.730  0.00  0.00    -0.435 OA
ATOM     13  C   UNL     1      34.415 -19.667 -21.435  0.00  0.00    -0.040 C 
ATOM     14  C   UNL     1      35.158 -20.518 -20.623  0.00  0.00    +0.034 C 
ATOM     15  C   UNL     1      33.018 -19.619 -21.362  0.00  0.00    -0.003 C 
ATOM     16  C   UNL     1      34.459 -21.316 -19.740  0.00  0.00    +0.176 C 
ATOM     17  C   UNL     1      33.086 -21.277 -19.661  0.00  0.00    +0.176 C 
ATOM     18  C   UNL     1      32.335 -20.439 -20.459  0.00  0.00    +0.040 C 
ATOM     19  C   UNL     1      33.818 -22.729 -18.232  0.00  0.00    +0.429 C 
ENDBRANCH  10  13
ENDBRANCH   2  10
BRANCH   8  20
ATOM     20  C   UNL     1      33.758 -14.466 -26.872  0.00  0.00    +0.290 C 
BRANCH  20  21
ATOM     21  O   UNL     1      32.823 -13.580 -26.308  0.00  0.00    -0.466 OA
BRANCH  21  23
ATOM     22 CL   UNL     1      34.873  -8.565 -24.043  0.00  0.00    -0.082 Cl
ATOM     23  C   UNL     1      33.305 -12.405 -25.776  0.00  0.00    +0.139 C 
ATOM     24  C   UNL     1      33.072 -12.116 -24.440  0.00  0.00    +0.038 C 
ATOM     25  C   UNL     1      34.014 -11.531 -26.586  0.00  0.00    +0.038 C 
ATOM     26  C   UNL     1      33.558 -10.924 -23.902  0.00  0.00    +0.015 C 
ATOM     27  C   UNL     1      34.500 -10.339 -26.048  0.00  0.00    +0.015 C 
ATOM     28  C   UNL     1      34.273 -10.036 -24.707  0.00  0.00    +0.058 C 
ENDBRANCH  21  23
ENDBRANCH  20  21
ENDBRANCH   8  20
TORSDOF 5
ENDMDL
MODEL 7
REMARK VINA RESULT:     -11.2      3.136      6.552
REMARK  Name = 3351
REMARK  5 active torsions:
REMARK  status: ('A' for Active; 'I' for Inactive)
REMARK    1  A    between atoms: N_2  and  C_10
REMARK    2  A    between atoms: C_8  and  C_20
REMARK    3  A    between atoms: C_10  and  C_13
REMARK    4  A    between atoms: C_20  and  O_21
REMARK    5  A    between atoms: O_21  and  C_23
REMARK                            x       y       z     vdW  Elec       q    Type
REMARK                         _______ _______ _______ _____ _____    ______ ____
ROOT
ATOM      1  O   UNL     1      36.950 -21.406 -17.299  0.00  0.00    -0.271 OA
ATOM      2  N   UNL     1      33.242 -23.806 -14.974  0.00  0.00    +0.392 N 
ATOM      3  N   UNL     1      35.108 -22.758 -16.878  0.00  0.00    -0.281 N 
ATOM      4  C   UNL     1      34.378 -22.986 -14.531  0.00  0.00    -0.055 C 
ATOM      5  C   UNL     1      32.786 -23.377 -16.304  0.00  0.00    -0.055 C 
ATOM      6  C   UNL     1      35.539 -23.089 -15.520  0.00  0.00    +0.071 C 
ATOM      7  C   UNL     1      33.916 -23.480 -17.331  0.00  0.00    +0.071 C 
ATOM      8  C   UNL     1      35.888 -21.914 -17.668  0.00  0.00    +0.270 C 
ATOM      9  H   UNL     1      33.550 -24.777 -15.037  0.00  0.00    -0.079 HD
ENDROOT
BRANCH   2  10
ATOM     10  C   UNL     1      32.147 -23.733 -14.008  0.00  0.00    -0.050 C 
BRANCH  10  13
ATOM     11  O   UNL     1      28.519 -22.098 -16.930  0.00  0.00    -0.435 OA
ATOM     12  O   UNL     1      27.167 -24.055 -16.542  0.00  0.00    -0.435 OA
ATOM     13  C   UNL     1      30.802 -23.854 -14.674  0.00  0.00    -0.040 C 
ATOM     14  C   UNL     1      30.361 -22.830 -15.505  0.00  0.00    +0.034 C 
ATOM     15  C   UNL     1      30.025 -24.994 -14.440  0.00  0.00    -0.003 C 
ATOM     16  C   UNL     1      29.121 -22.985 -16.093  0.00  0.00    +0.176 C 
ATOM     17  C   UNL     1      28.350 -24.102 -15.870  0.00  0.00    +0.176 C 
ATOM     18  C   UNL     1      28.773 -25.126 -15.048  0.00  0.00    +0.040 C 
ATOM     19  C   UNL     1      27.281 -22.782 -17.212  0.00  0.00    +0.429 C 
ENDBRANCH  10  13
ENDBRANCH   2  10
BRANCH   8  20
ATOM     20  C   UNL     1      35.372 -21.619 -19.053  0.00  0.00    +0.290 C 
BRANCH  20  21
ATOM     21  O   UNL     1      36.061 -20.481 -19.506  0.00  0.00    -0.466 OA
BRANCH  21  23
ATOM     22 CL   UNL     1      33.866 -17.674 -24.174  0.00  0.00    -0.082 Cl
ATOM     23  C   UNL     1      35.548 -19.824 -20.602  0.00  0.00    +0.139 C 
ATOM     24  C   UNL     1      36.381 -19.028 -21.372  0.00  0.00    +0.038 C 
ATOM     25  C   UNL     1      34.204 -19.969 -20.915  0.00  0.00    +0.038 C 
ATOM     26  C   UNL     1      35.860 -18.361 -22.481  0.00  0.00    +0.015 C 
ATOM     27  C   UNL     1      33.683 -19.302 -22.024  0.00  0.00    +0.015 C 
ATOM     28  C   UNL     1      34.510 -18.498 -22.807  0.00  0.00    +0.058 C 
ENDBRANCH  21  23
ENDBRANCH  20  21
ENDBRANCH   8  20
TORSDOF 5
ENDMDL
MODEL 8
REMARK VINA RESULT:     -11.2      7.885     13.674
REMARK  Name = 3351
REMARK  5 active torsions:
REMARK  status: ('A' for Active; 'I' for Inactive)
REMARK    1  A    between atoms: N_2  and  C_10
REMARK    2  A    between atoms: C_8  and  C_20
REMARK    3  A    between atoms: C_10  and  C_13
REMARK    4  A    between atoms: C_20  and  O_21
REMARK    5  A    between atoms: O_21  and  C_23
REMARK                            x       y       z     vdW  Elec       q    Type
REMARK                         _______ _______ _______ _____ _____    ______ ____
ROOT
ATOM      1  O   UNL     1      34.167 -19.093 -24.122  0.00  0.00    -0.271 OA
ATOM      2  N   UNL     1      33.681 -14.219 -25.079  0.00  0.00    +0.392 N 
ATOM      3  N   UNL     1      34.364 -16.782 -23.997  0.00  0.00    -0.281 N 
ATOM      4  C   UNL     1      33.276 -15.451 -25.770  0.00  0.00    -0.055 C 
ATOM      5  C   UNL     1      33.707 -14.429 -23.625  0.00  0.00    -0.055 C 
ATOM      6  C   UNL     1      34.235 -16.595 -25.442  0.00  0.00    +0.071 C 
ATOM      7  C   UNL     1      34.670 -15.558 -23.252  0.00  0.00    +0.071 C 
ATOM      8  C   UNL     1      34.315 -18.065 -23.456  0.00  0.00    +0.270 C 
ATOM      9  H   UNL     1      34.622 -13.971 -25.386  0.00  0.00    -0.079 HD
ENDROOT
BRANCH   2  10
ATOM     10  C   UNL     1      32.782 -13.118 -25.423  0.00  0.00    -0.050 C 
BRANCH  10  13
ATOM     11  O   UNL     1      32.588  -9.053 -22.627  0.00  0.00    -0.435 OA
ATOM     12  O   UNL     1      34.632  -8.177 -23.556  0.00  0.00    -0.435 OA
ATOM     13  C   UNL     1      33.310 -11.792 -24.944  0.00  0.00    -0.040 C 
ATOM     14  C   UNL     1      32.605 -11.092 -23.969  0.00  0.00    +0.034 C 
ATOM     15  C   UNL     1      34.497 -11.292 -25.490  0.00  0.00    -0.003 C 
ATOM     16  C   UNL     1      33.128  -9.881 -23.562  0.00  0.00    +0.176 C 
ATOM     17  C   UNL     1      34.295  -9.381 -24.093  0.00  0.00    +0.176 C 
ATOM     18  C   UNL     1      35.004 -10.063 -25.060  0.00  0.00    +0.040 C 
ATOM     19  C   UNL     1      33.546  -7.975 -22.627  0.00  0.00    +0.429 C 
ENDBRANCH  10  13
ENDBRANCH   2  10
BRANCH   8  20
ATOM     20  C   UNL     1      34.450 -18.171 -21.958  0.00  0.00    +0.290 C 
BRANCH  20  21
ATOM     21  O   UNL     1      35.181 -19.344 -21.701  0.00  0.00    -0.466 OA
BRANCH  21  23
ATOM     22 CL   UNL     1      32.978 -23.082 -17.744  0.00  0.00    -0.082 Cl
ATOM     23  C   UNL     1      34.664 -20.222 -20.775  0.00  0.00    +0.139 C 
ATOM     24  C   UNL     1      33.291 -20.286 -20.588  0.00  0.00    +0.038 C 
ATOM     25  C   UNL     1      35.525 -21.026 -20.043  0.00  0.00    +0.038 C 
ATOM     26  C   UNL     1      32.768 -21.173 -19.648  0.00  0.00    +0.015 C 
ATOM     27  C   UNL     1      35.001 -21.914 -19.103  0.00  0.00    +0.015 C 
ATOM     28  C   UNL     1      33.624 -21.988 -18.905  0.00  0.00    +0.058 C 
ENDBRANCH  21  23
ENDBRANCH  20  21
ENDBRANCH   8  20
TORSDOF 5
ENDMDL
MODEL 9
REMARK VINA RESULT:     -11.1      3.064      4.721
REMARK  Name = 3351
REMARK  5 active torsions:
REMARK  status: ('A' for Active; 'I' for Inactive)
REMARK    1  A    between atoms: N_2  and  C_10
REMARK    2  A    between atoms: C_8  and  C_20
REMARK    3  A    between atoms: C_10  and  C_13
REMARK    4  A    between atoms: C_20  and  O_21
REMARK    5  A    between atoms: O_21  and  C_23
REMARK                            x       y       z     vdW  Elec       q    Type
REMARK                         _______ _______ _______ _____ _____    ______ ____
ROOT
ATOM      1  O   UNL     1      36.439 -19.383 -20.361  0.00  0.00    -0.271 OA
ATOM      2  N   UNL     1      34.480 -22.945 -17.465  0.00  0.00    +0.392 N 
ATOM      3  N   UNL     1      35.165 -21.175 -19.611  0.00  0.00    -0.281 N 
ATOM      4  C   UNL     1      35.576 -21.978 -17.312  0.00  0.00    -0.055 C 
ATOM      5  C   UNL     1      33.434 -22.403 -18.345  0.00  0.00    -0.055 C 
ATOM      6  C   UNL     1      36.187 -21.633 -18.670  0.00  0.00    +0.071 C 
ATOM      7  C   UNL     1      34.002 -22.059 -19.724  0.00  0.00    +0.071 C 
ATOM      8  C   UNL     1      35.400 -20.048 -20.397  0.00  0.00    +0.270 C 
ATOM      9  H   UNL     1      34.854 -23.792 -17.893  0.00  0.00    -0.079 HD
ENDROOT
BRANCH   2  10
ATOM     10  C   UNL     1      33.921 -23.298 -16.161  0.00  0.00    -0.050 C 
BRANCH  10  13
ATOM     11  O   UNL     1      37.304 -23.076 -12.572  0.00  0.00    -0.435 OA
ATOM     12  O   UNL     1      37.792 -25.431 -12.727  0.00  0.00    -0.435 OA
ATOM     13  C   UNL     1      34.956 -23.906 -15.253  0.00  0.00    -0.040 C 
ATOM     14  C   UNL     1      35.616 -23.095 -14.335  0.00  0.00    +0.034 C 
ATOM     15  C   UNL     1      35.232 -25.275 -15.352  0.00  0.00    -0.003 C 
ATOM     16  C   UNL     1      36.557 -23.697 -13.524  0.00  0.00    +0.176 C 
ATOM     17  C   UNL     1      36.835 -25.041 -13.614  0.00  0.00    +0.176 C 
ATOM     18  C   UNL     1      36.189 -25.859 -14.518  0.00  0.00    +0.040 C 
ATOM     19  C   UNL     1      38.084 -24.180 -12.070  0.00  0.00    +0.429 C 
ENDBRANCH  10  13
ENDBRANCH   2  10
BRANCH   8  20
ATOM     20  C   UNL     1      34.295 -19.638 -21.337  0.00  0.00    +0.290 C 
BRANCH  20  21
ATOM     21  O   UNL     1      34.824 -19.711 -22.637  0.00  0.00    -0.466 OA
BRANCH  21  23
ATOM     22 CL   UNL     1      33.421 -15.401 -26.371  0.00  0.00    -0.082 Cl
ATOM     23  C   UNL     1      34.493 -18.701 -23.512  0.00  0.00    +0.139 C 
ATOM     24  C   UNL     1      33.989 -19.021 -24.764  0.00  0.00    +0.038 C 
ATOM     25  C   UNL     1      34.672 -17.380 -23.127  0.00  0.00    +0.038 C 
ATOM     26  C   UNL     1      33.656 -17.997 -25.651  0.00  0.00    +0.015 C 
ATOM     27  C   UNL     1      34.339 -16.356 -24.015  0.00  0.00    +0.015 C 
ATOM     28  C   UNL     1      33.831 -16.664 -25.276  0.00  0.00    +0.058 C 
ENDBRANCH  21  23
ENDBRANCH  20  21
ENDBRANCH   8  20
TORSDOF 5
ENDMDL
