MODEL 1
REMARK VINA RESULT:     -13.0      0.000      0.000
REMARK  Name = 25025505
REMARK  6 active torsions:
REMARK  status: ('A' for Active; 'I' for Inactive)
REMARK    1  A    between atoms: C_3  and  C_9
REMARK    2  A    between atoms: C_4  and  C_20
REMARK    3  A    between atoms: C_17  and  C_18
REMARK    4  A    between atoms: C_20  and  O_21
REMARK    5  A    between atoms: O_21  and  C_22
REMARK    6  A    between atoms: C_25  and  N_28
REMARK                            x       y       z     vdW  Elec       q    Type
REMARK                         _______ _______ _______ _____ _____    ______ ____
ROOT
ATOM      1  S   UNL     1      33.071 -20.154 -20.685  0.00  0.00    -0.079 S 
ATOM      2  N   UNL     1      35.648 -20.245 -20.501  0.00  0.00    -0.404 NA
ATOM      3  C   UNL     1      34.653 -19.651 -21.120  0.00  0.00    +0.134 C 
ATOM      4  C   UNL     1      35.133 -21.169 -19.613  0.00  0.00    +0.142 C 
ATOM      5  C   UNL     1      33.757 -21.263 -19.571  0.00  0.00    +0.122 C 
ENDROOT
BRANCH   3   9
ATOM      6  N   UNL     1      33.955 -16.370 -23.842  0.00  0.00    -0.253 N 
ATOM      7  N   UNL     1      33.498 -14.088 -24.049  0.00  0.00    -0.203 NA
ATOM      8  N   UNL     1      33.412 -15.551 -25.962  0.00  0.00    -0.181 NA
ATOM      9  C   UNL     1      34.820 -18.571 -22.173  0.00  0.00    +0.062 C 
ATOM     10  C   UNL     1      33.891 -18.789 -23.377  0.00  0.00    +0.030 C 
ATOM     11  C   UNL     1      34.595 -17.164 -21.599  0.00  0.00    +0.030 C 
ATOM     12  C   UNL     1      34.088 -17.705 -24.437  0.00  0.00    +0.102 C 
ATOM     13  C   UNL     1      34.795 -16.091 -22.669  0.00  0.00    +0.102 C 
ATOM     14  C   UNL     1      33.606 -15.285 -24.656  0.00  0.00    +0.090 C 
ATOM     15  C   UNL     1      33.158 -13.066 -24.861  0.00  0.00    +0.161 C 
ATOM     16  C   UNL     1      33.075 -14.484 -26.716  0.00  0.00    +0.104 C 
ATOM     17  C   UNL     1      32.932 -13.206 -26.215  0.00  0.00    +0.001 C 
BRANCH  17  18
ATOM     18  C   UNL     1      32.561 -12.057 -27.076  0.00  0.00    +0.026 C 
ATOM     19  C   UNL     1      32.764 -10.710 -26.380  0.00  0.00    +0.005 C 
ENDBRANCH  17  18
ENDBRANCH   3   9
BRANCH   4  20
ATOM     20  C   UNL     1      36.076 -21.963 -18.800  0.00  0.00    +0.260 C 
BRANCH  20  21
ATOM     21  O   UNL     1      36.258 -21.348 -17.526  0.00  0.00    -0.468 OA
BRANCH  21  22
ATOM     22  C   UNL     1      36.265 -22.179 -16.440  0.00  0.00    +0.139 C 
ATOM     23  C   UNL     1      35.076 -22.457 -15.766  0.00  0.00    +0.038 C 
ATOM     24  C   UNL     1      37.461 -22.750 -16.006  0.00  0.00    +0.038 C 
ATOM     25  C   UNL     1      36.280 -23.874 -14.225  0.00  0.00    +0.078 C 
ATOM     26  C   UNL     1      35.083 -23.305 -14.658  0.00  0.00    +0.020 C 
ATOM     27  C   UNL     1      37.470 -23.598 -14.898  0.00  0.00    +0.020 C 
BRANCH  25  28
ATOM     28  N   UNL     1      36.287 -24.715 -13.126  0.00  0.00    -0.149 N 
ATOM     29  N   UNL     1      35.405 -24.595 -12.125  0.00  0.00    -0.048 NA
ATOM     30  N   UNL     1      36.798 -26.288 -11.724  0.00  0.00    -0.107 NA
ATOM     31  N   UNL     1      35.722 -25.559 -11.270  0.00  0.00    -0.024 NA
ATOM     32  C   UNL     1      37.131 -25.750 -12.874  0.00  0.00    +0.215 C 
ENDBRANCH  25  28
ENDBRANCH  21  22
ENDBRANCH  20  21
ENDBRANCH   4  20
TORSDOF 6
ENDMDL
MODEL 2
REMARK VINA RESULT:     -12.4      5.017      7.646
REMARK  Name = 25025505
REMARK  6 active torsions:
REMARK  status: ('A' for Active; 'I' for Inactive)
REMARK    1  A    between atoms: C_3  and  C_9
REMARK    2  A    between atoms: C_4  and  C_20
REMARK    3  A    between atoms: C_17  and  C_18
REMARK    4  A    between atoms: C_20  and  O_21
REMARK    5  A    between atoms: O_21  and  C_22
REMARK    6  A    between atoms: C_25  and  N_28
REMARK                            x       y       z     vdW  Elec       q    Type
REMARK                         _______ _______ _______ _____ _____    ______ ____
ROOT
ATOM      1  S   UNL     1      36.111 -23.881 -15.167  0.00  0.00    -0.079 S 
ATOM      2  N   UNL     1      33.559 -23.571 -15.433  0.00  0.00    -0.404 NA
ATOM      3  C   UNL     1      34.710 -23.436 -16.052  0.00  0.00    +0.134 C 
ATOM      4  C   UNL     1      33.790 -24.063 -14.163  0.00  0.00    +0.142 C 
ATOM      5  C   UNL     1      35.110 -24.293 -13.837  0.00  0.00    +0.122 C 
ENDROOT
BRANCH   3   9
ATOM      6  N   UNL     1      34.786 -20.928 -19.568  0.00  0.00    -0.253 N 
ATOM      7  N   UNL     1      35.808 -19.118 -20.635  0.00  0.00    -0.203 NA
ATOM      8  N   UNL     1      33.786 -20.095 -21.508  0.00  0.00    -0.181 NA
ATOM      9  C   UNL     1      34.866 -22.921 -17.471  0.00  0.00    +0.062 C 
ATOM     10  C   UNL     1      33.537 -22.416 -18.052  0.00  0.00    +0.030 C 
ATOM     11  C   UNL     1      35.925 -21.812 -17.570  0.00  0.00    +0.030 C 
ATOM     12  C   UNL     1      33.708 -21.921 -19.489  0.00  0.00    +0.102 C 
ATOM     13  C   UNL     1      36.086 -21.328 -19.011  0.00  0.00    +0.102 C 
ATOM     14  C   UNL     1      34.794 -20.004 -20.620  0.00  0.00    +0.090 C 
ATOM     15  C   UNL     1      35.784 -18.242 -21.661  0.00  0.00    +0.161 C 
ATOM     16  C   UNL     1      33.824 -19.189 -22.507  0.00  0.00    +0.104 C 
ATOM     17  C   UNL     1      34.807 -18.230 -22.636  0.00  0.00    +0.001 C 
BRANCH  17  18
ATOM     18  C   UNL     1      34.816 -17.250 -23.748  0.00  0.00    +0.026 C 
ATOM     19  C   UNL     1      34.264 -17.832 -25.051  0.00  0.00    +0.005 C 
ENDBRANCH  17  18
ENDBRANCH   3   9
BRANCH   4  20
ATOM     20  C   UNL     1      32.631 -24.295 -13.279  0.00  0.00    +0.260 C 
BRANCH  20  21
ATOM     21  O   UNL     1      31.699 -25.169 -13.916  0.00  0.00    -0.468 OA
BRANCH  21  22
ATOM     22  C   UNL     1      30.640 -24.578 -14.549  0.00  0.00    +0.139 C 
ATOM     23  C   UNL     1      29.811 -25.335 -15.377  0.00  0.00    +0.038 C 
ATOM     24  C   UNL     1      30.389 -23.218 -14.367  0.00  0.00    +0.038 C 
ATOM     25  C   UNL     1      28.481 -23.372 -15.841  0.00  0.00    +0.078 C 
ATOM     26  C   UNL     1      28.732 -24.732 -16.023  0.00  0.00    +0.020 C 
ATOM     27  C   UNL     1      29.310 -22.615 -15.012  0.00  0.00    +0.020 C 
BRANCH  25  28
ATOM     28  N   UNL     1      27.411 -22.774 -16.481  0.00  0.00    -0.149 N 
ATOM     29  N   UNL     1      27.278 -22.780 -17.814  0.00  0.00    -0.048 NA
ATOM     30  N   UNL     1      25.569 -21.700 -16.875  0.00  0.00    -0.107 NA
ATOM     31  N   UNL     1      26.150 -22.122 -18.050  0.00  0.00    -0.024 NA
ATOM     32  C   UNL     1      26.365 -22.115 -15.917  0.00  0.00    +0.215 C 
ENDBRANCH  25  28
ENDBRANCH  21  22
ENDBRANCH  20  21
ENDBRANCH   4  20
TORSDOF 6
ENDMDL
MODEL 3
REMARK VINA RESULT:     -12.0      3.833      6.539
REMARK  Name = 25025505
REMARK  6 active torsions:
REMARK  status: ('A' for Active; 'I' for Inactive)
REMARK    1  A    between atoms: C_3  and  C_9
REMARK    2  A    between atoms: C_4  and  C_20
REMARK    3  A    between atoms: C_17  and  C_18
REMARK    4  A    between atoms: C_20  and  O_21
REMARK    5  A    between atoms: O_21  and  C_22
REMARK    6  A    between atoms: C_25  and  N_28
REMARK                            x       y       z     vdW  Elec       q    Type
REMARK                         _______ _______ _______ _____ _____    ______ ____
ROOT
ATOM      1  S   UNL     1      33.279 -15.028 -25.425  0.00  0.00    -0.079 S 
ATOM      2  N   UNL     1      34.263 -15.452 -23.073  0.00  0.00    -0.404 NA
ATOM      3  C   UNL     1      33.795 -14.518 -23.870  0.00  0.00    +0.134 C 
ATOM      4  C   UNL     1      34.214 -16.665 -23.730  0.00  0.00    +0.142 C 
ATOM      5  C   UNL     1      33.711 -16.636 -25.014  0.00  0.00    +0.122 C 
ENDROOT
BRANCH   3   9
ATOM      6  N   UNL     1      32.553 -10.389 -23.603  0.00  0.00    -0.253 N 
ATOM      7  N   UNL     1      30.883  -8.910 -22.909  0.00  0.00    -0.203 NA
ATOM      8  N   UNL     1      32.734  -8.153 -24.253  0.00  0.00    -0.181 NA
ATOM      9  C   UNL     1      33.689 -13.049 -23.502  0.00  0.00    +0.062 C 
ATOM     10  C   UNL     1      33.890 -12.133 -24.717  0.00  0.00    +0.030 C 
ATOM     11  C   UNL     1      32.350 -12.719 -22.825  0.00  0.00    +0.030 C 
ATOM     12  C   UNL     1      33.802 -10.657 -24.325  0.00  0.00    +0.102 C 
ATOM     13  C   UNL     1      32.275 -11.242 -22.438  0.00  0.00    +0.102 C 
ATOM     14  C   UNL     1      32.032  -9.090 -23.587  0.00  0.00    +0.090 C 
ATOM     15  C   UNL     1      30.409  -7.647 -22.916  0.00  0.00    +0.161 C 
ATOM     16  C   UNL     1      32.203  -6.913 -24.218  0.00  0.00    +0.104 C 
ATOM     17  C   UNL     1      31.032  -6.598 -23.560  0.00  0.00    +0.001 C 
BRANCH  17  18
ATOM     18  C   UNL     1      30.480  -5.222 -23.544  0.00  0.00    +0.026 C 
ATOM     19  C   UNL     1      30.107  -4.753 -22.136  0.00  0.00    +0.005 C 
ENDBRANCH  17  18
ENDBRANCH   3   9
BRANCH   4  20
ATOM     20  C   UNL     1      34.693 -17.868 -23.021  0.00  0.00    +0.260 C 
BRANCH  20  21
ATOM     21  O   UNL     1      33.599 -18.744 -22.752  0.00  0.00    -0.468 OA
BRANCH  21  22
ATOM     22  C   UNL     1      33.740 -19.591 -21.687  0.00  0.00    +0.139 C 
ATOM     23  C   UNL     1      32.612 -20.057 -21.010  0.00  0.00    +0.038 C 
ATOM     24  C   UNL     1      35.012 -19.990 -21.277  0.00  0.00    +0.038 C 
ATOM     25  C   UNL     1      34.029 -21.318 -19.515  0.00  0.00    +0.078 C 
ATOM     26  C   UNL     1      32.757 -20.919 -19.924  0.00  0.00    +0.020 C 
ATOM     27  C   UNL     1      35.157 -20.854 -20.192  0.00  0.00    +0.020 C 
BRANCH  25  28
ATOM     28  N   UNL     1      34.172 -22.174 -18.438  0.00  0.00    -0.149 N 
ATOM     29  N   UNL     1      35.326 -22.299 -17.770  0.00  0.00    -0.048 NA
ATOM     30  N   UNL     1      33.777 -23.637 -16.888  0.00  0.00    -0.107 NA
ATOM     31  N   UNL     1      35.080 -23.195 -16.822  0.00  0.00    -0.024 NA
ATOM     32  C   UNL     1      33.234 -22.993 -17.894  0.00  0.00    +0.215 C 
ENDBRANCH  25  28
ENDBRANCH  21  22
ENDBRANCH  20  21
ENDBRANCH   4  20
TORSDOF 6
ENDMDL
MODEL 4
REMARK VINA RESULT:     -11.8      3.990      6.604
REMARK  Name = 25025505
REMARK  6 active torsions:
REMARK  status: ('A' for Active; 'I' for Inactive)
REMARK    1  A    between atoms: C_3  and  C_9
REMARK    2  A    between atoms: C_4  and  C_20
REMARK    3  A    between atoms: C_17  and  C_18
REMARK    4  A    between atoms: C_20  and  O_21
REMARK    5  A    between atoms: O_21  and  C_22
REMARK    6  A    between atoms: C_25  and  N_28
REMARK                            x       y       z     vdW  Elec       q    Type
REMARK                         _______ _______ _______ _____ _____    ______ ____
ROOT
ATOM      1  S   UNL     1      33.444 -15.513 -25.312  0.00  0.00    -0.079 S 
ATOM      2  N   UNL     1      34.168 -15.143 -22.858  0.00  0.00    -0.404 NA
ATOM      3  C   UNL     1      33.512 -14.601 -23.860  0.00  0.00    +0.134 C 
ATOM      4  C   UNL     1      34.657 -16.371 -23.257  0.00  0.00    +0.142 C 
ATOM      5  C   UNL     1      34.366 -16.744 -24.553  0.00  0.00    +0.122 C 
ENDROOT
BRANCH   3   9
ATOM      6  N   UNL     1      32.513 -10.493 -22.976  0.00  0.00    -0.253 N 
ATOM      7  N   UNL     1      33.119  -8.252 -23.239  0.00  0.00    -0.203 NA
ATOM      8  N   UNL     1      31.354  -8.892 -21.729  0.00  0.00    -0.181 NA
ATOM      9  C   UNL     1      32.829 -13.247 -23.806  0.00  0.00    +0.062 C 
ATOM     10  C   UNL     1      32.383 -12.881 -22.383  0.00  0.00    +0.030 C 
ATOM     11  C   UNL     1      33.717 -12.128 -24.370  0.00  0.00    +0.030 C 
ATOM     12  C   UNL     1      31.677 -11.524 -22.351  0.00  0.00    +0.102 C 
ATOM     13  C   UNL     1      33.000 -10.779 -24.332  0.00  0.00    +0.102 C 
ATOM     14  C   UNL     1      32.319  -9.149 -22.632  0.00  0.00    +0.090 C 
ATOM     15  C   UNL     1      32.907  -6.968 -22.884  0.00  0.00    +0.161 C 
ATOM     16  C   UNL     1      31.195  -7.589 -21.421  0.00  0.00    +0.104 C 
ATOM     17  C   UNL     1      31.950  -6.573 -21.971  0.00  0.00    +0.001 C 
BRANCH  17  18
ATOM     18  C   UNL     1      31.747  -5.150 -21.607  0.00  0.00    +0.026 C 
ATOM     19  C   UNL     1      30.274  -4.806 -21.376  0.00  0.00    +0.005 C 
ENDBRANCH  17  18
ENDBRANCH   3   9
BRANCH   4  20
ATOM     20  C   UNL     1      35.433 -17.167 -22.286  0.00  0.00    +0.260 C 
BRANCH  20  21
ATOM     21  O   UNL     1      35.379 -18.549 -22.634  0.00  0.00    -0.468 OA
BRANCH  21  22
ATOM     22  C   UNL     1      35.135 -19.428 -21.614  0.00  0.00    +0.139 C 
ATOM     23  C   UNL     1      33.823 -19.775 -21.290  0.00  0.00    +0.038 C 
ATOM     24  C   UNL     1      36.198 -19.978 -20.898  0.00  0.00    +0.038 C 
ATOM     25  C   UNL     1      34.637 -21.220 -19.535  0.00  0.00    +0.078 C 
ATOM     26  C   UNL     1      33.574 -20.671 -20.250  0.00  0.00    +0.020 C 
ATOM     27  C   UNL     1      35.950 -20.874 -19.858  0.00  0.00    +0.020 C 
BRANCH  25  28
ATOM     28  N   UNL     1      34.391 -22.108 -18.503  0.00  0.00    -0.149 N 
ATOM     29  N   UNL     1      35.315 -22.411 -17.581  0.00  0.00    -0.048 NA
ATOM     30  N   UNL     1      33.428 -23.528 -17.177  0.00  0.00    -0.107 NA
ATOM     31  N   UNL     1      34.721 -23.280 -16.773  0.00  0.00    -0.024 NA
ATOM     32  C   UNL     1      33.245 -22.793 -18.249  0.00  0.00    +0.215 C 
ENDBRANCH  25  28
ENDBRANCH  21  22
ENDBRANCH  20  21
ENDBRANCH   4  20
TORSDOF 6
ENDMDL
MODEL 5
REMARK VINA RESULT:     -11.5      3.425      5.607
REMARK  Name = 25025505
REMARK  6 active torsions:
REMARK  status: ('A' for Active; 'I' for Inactive)
REMARK    1  A    between atoms: C_3  and  C_9
REMARK    2  A    between atoms: C_4  and  C_20
REMARK    3  A    between atoms: C_17  and  C_18
REMARK    4  A    between atoms: C_20  and  O_21
REMARK    5  A    between atoms: O_21  and  C_22
REMARK    6  A    between atoms: C_25  and  N_28
REMARK                            x       y       z     vdW  Elec       q    Type
REMARK                         _______ _______ _______ _____ _____    ______ ____
ROOT
ATOM      1  S   UNL     1      32.577 -16.800 -26.190  0.00  0.00    -0.079 S 
ATOM      2  N   UNL     1      34.218 -16.958 -24.198  0.00  0.00    -0.404 NA
ATOM      3  C   UNL     1      33.641 -16.118 -25.028  0.00  0.00    +0.134 C 
ATOM      4  C   UNL     1      33.794 -18.239 -24.494  0.00  0.00    +0.142 C 
ATOM      5  C   UNL     1      32.904 -18.353 -25.541  0.00  0.00    +0.122 C 
ENDROOT
BRANCH   3   9
ATOM      6  N   UNL     1      33.055 -11.847 -24.765  0.00  0.00    -0.253 N 
ATOM      7  N   UNL     1      32.527 -10.046 -23.373  0.00  0.00    -0.203 NA
ATOM      8  N   UNL     1      32.669  -9.770 -25.763  0.00  0.00    -0.181 NA
ATOM      9  C   UNL     1      33.857 -14.616 -25.018  0.00  0.00    +0.062 C 
ATOM     10  C   UNL     1      33.048 -13.908 -26.114  0.00  0.00    +0.030 C 
ATOM     11  C   UNL     1      33.526 -13.995 -23.653  0.00  0.00    +0.030 C 
ATOM     12  C   UNL     1      33.294 -12.399 -26.103  0.00  0.00    +0.102 C 
ATOM     13  C   UNL     1      33.776 -12.486 -23.656  0.00  0.00    +0.102 C 
ATOM     14  C   UNL     1      32.736 -10.490 -24.627  0.00  0.00    +0.090 C 
ATOM     15  C   UNL     1      32.220  -8.736 -23.277  0.00  0.00    +0.161 C 
ATOM     16  C   UNL     1      32.358  -8.468 -25.593  0.00  0.00    +0.104 C 
ATOM     17  C   UNL     1      32.120  -7.890 -24.363  0.00  0.00    +0.001 C 
BRANCH  17  18
ATOM     18  C   UNL     1      31.780  -6.454 -24.216  0.00  0.00    +0.026 C 
ATOM     19  C   UNL     1      32.695  -5.545 -25.039  0.00  0.00    +0.005 C 
ENDBRANCH  17  18
ENDBRANCH   3   9
BRANCH   4  20
ATOM     20  C   UNL     1      34.318 -19.356 -23.682  0.00  0.00    +0.260 C 
BRANCH  20  21
ATOM     21  O   UNL     1      34.738 -18.876 -22.406  0.00  0.00    -0.468 OA
BRANCH  21  22
ATOM     22  C   UNL     1      34.622 -19.745 -21.356  0.00  0.00    +0.139 C 
ATOM     23  C   UNL     1      33.359 -20.124 -20.900  0.00  0.00    +0.038 C 
ATOM     24  C   UNL     1      35.765 -20.253 -20.741  0.00  0.00    +0.038 C 
ATOM     25  C   UNL     1      34.385 -21.517 -19.215  0.00  0.00    +0.078 C 
ATOM     26  C   UNL     1      33.241 -21.010 -19.829  0.00  0.00    +0.020 C 
ATOM     27  C   UNL     1      35.648 -21.139 -19.671  0.00  0.00    +0.020 C 
BRANCH  25  28
ATOM     28  N   UNL     1      34.268 -22.396 -18.153  0.00  0.00    -0.149 N 
ATOM     29  N   UNL     1      35.275 -22.631 -17.302  0.00  0.00    -0.048 NA
ATOM     30  N   UNL     1      33.489 -23.838 -16.733  0.00  0.00    -0.107 NA
ATOM     31  N   UNL     1      34.794 -23.513 -16.435  0.00  0.00    -0.024 NA
ATOM     32  C   UNL     1      33.184 -23.135 -17.798  0.00  0.00    +0.215 C 
ENDBRANCH  25  28
ENDBRANCH  21  22
ENDBRANCH  20  21
ENDBRANCH   4  20
TORSDOF 6
ENDMDL
MODEL 6
REMARK VINA RESULT:     -11.4      1.429      1.935
REMARK  Name = 25025505
REMARK  6 active torsions:
REMARK  status: ('A' for Active; 'I' for Inactive)
REMARK    1  A    between atoms: C_3  and  C_9
REMARK    2  A    between atoms: C_4  and  C_20
REMARK    3  A    between atoms: C_17  and  C_18
REMARK    4  A    between atoms: C_20  and  O_21
REMARK    5  A    between atoms: O_21  and  C_22
REMARK    6  A    between atoms: C_25  and  N_28
REMARK                            x       y       z     vdW  Elec       q    Type
REMARK                         _______ _______ _______ _____ _____    ______ ____
ROOT
ATOM      1  S   UNL     1      33.336 -19.677 -21.499  0.00  0.00    -0.079 S 
ATOM      2  N   UNL     1      35.652 -19.341 -20.403  0.00  0.00    -0.404 NA
ATOM      3  C   UNL     1      34.777 -18.791 -21.214  0.00  0.00    +0.134 C 
ATOM      4  C   UNL     1      35.156 -20.554 -19.968  0.00  0.00    +0.142 C 
ATOM      5  C   UNL     1      33.915 -20.907 -20.453  0.00  0.00    +0.122 C 
ENDROOT
BRANCH   3   9
ATOM      6  N   UNL     1      34.093 -14.945 -23.058  0.00  0.00    -0.253 N 
ATOM      7  N   UNL     1      33.386 -12.742 -22.738  0.00  0.00    -0.203 NA
ATOM      8  N   UNL     1      33.783 -13.610 -24.950  0.00  0.00    -0.181 NA
ATOM      9  C   UNL     1      34.965 -17.449 -21.897  0.00  0.00    +0.062 C 
ATOM     10  C   UNL     1      34.269 -17.394 -23.265  0.00  0.00    +0.030 C 
ATOM     11  C   UNL     1      34.477 -16.283 -21.025  0.00  0.00    +0.030 C 
ATOM     12  C   UNL     1      34.486 -16.043 -23.949  0.00  0.00    +0.102 C 
ATOM     13  C   UNL     1      34.700 -14.940 -21.720  0.00  0.00    +0.102 C 
ATOM     14  C   UNL     1      33.738 -13.707 -23.608  0.00  0.00    +0.090 C 
ATOM     15  C   UNL     1      33.048 -11.563 -23.301  0.00  0.00    +0.161 C 
ATOM     16  C   UNL     1      33.433 -12.405 -25.446  0.00  0.00    +0.104 C 
ATOM     17  C   UNL     1      33.053 -11.335 -24.662  0.00  0.00    +0.001 C 
BRANCH  17  18
ATOM     18  C   UNL     1      32.675 -10.024 -25.243  0.00  0.00    +0.026 C 
ATOM     19  C   UNL     1      32.394  -8.965 -24.176  0.00  0.00    +0.005 C 
ENDBRANCH  17  18
ENDBRANCH   3   9
BRANCH   4  20
ATOM     20  C   UNL     1      35.978 -21.356 -19.039  0.00  0.00    +0.260 C 
BRANCH  20  21
ATOM     21  O   UNL     1      35.157 -22.300 -18.353  0.00  0.00    -0.468 OA
BRANCH  21  22
ATOM     22  C   UNL     1      35.490 -22.571 -17.054  0.00  0.00    +0.139 C 
ATOM     23  C   UNL     1      36.792 -22.348 -16.605  0.00  0.00    +0.038 C 
ATOM     24  C   UNL     1      34.527 -23.070 -16.177  0.00  0.00    +0.038 C 
ATOM     25  C   UNL     1      36.167 -23.123 -14.405  0.00  0.00    +0.078 C 
ATOM     26  C   UNL     1      37.131 -22.624 -15.281  0.00  0.00    +0.020 C 
ATOM     27  C   UNL     1      34.865 -23.346 -14.853  0.00  0.00    +0.020 C 
BRANCH  25  28
ATOM     28  N   UNL     1      36.503 -23.397 -13.092  0.00  0.00    -0.149 N 
ATOM     29  N   UNL     1      37.761 -23.309 -12.639  0.00  0.00    -0.048 NA
ATOM     30  N   UNL     1      36.395 -23.939 -10.995  0.00  0.00    -0.107 NA
ATOM     31  N   UNL     1      37.690 -23.640 -11.356  0.00  0.00    -0.024 NA
ATOM     32  C   UNL     1      35.677 -23.781 -12.083  0.00  0.00    +0.215 C 
ENDBRANCH  25  28
ENDBRANCH  21  22
ENDBRANCH  20  21
ENDBRANCH   4  20
TORSDOF 6
ENDMDL
MODEL 7
REMARK VINA RESULT:     -11.2      3.371      5.902
REMARK  Name = 25025505
REMARK  6 active torsions:
REMARK  status: ('A' for Active; 'I' for Inactive)
REMARK    1  A    between atoms: C_3  and  C_9
REMARK    2  A    between atoms: C_4  and  C_20
REMARK    3  A    between atoms: C_17  and  C_18
REMARK    4  A    between atoms: C_20  and  O_21
REMARK    5  A    between atoms: O_21  and  C_22
REMARK    6  A    between atoms: C_25  and  N_28
REMARK                            x       y       z     vdW  Elec       q    Type
REMARK                         _______ _______ _______ _____ _____    ______ ____
ROOT
ATOM      1  S   UNL     1      33.931 -16.335 -26.266  0.00  0.00    -0.079 S 
ATOM      2  N   UNL     1      33.816 -16.404 -23.685  0.00  0.00    -0.404 NA
ATOM      3  C   UNL     1      33.583 -15.646 -24.733  0.00  0.00    +0.134 C 
ATOM      4  C   UNL     1      34.307 -17.621 -24.114  0.00  0.00    +0.142 C 
ATOM      5  C   UNL     1      34.440 -17.771 -25.479  0.00  0.00    +0.122 C 
ENDROOT
BRANCH   3   9
ATOM      6  N   UNL     1      33.167 -11.350 -24.886  0.00  0.00    -0.253 N 
ATOM      7  N   UNL     1      33.136  -9.454 -26.251  0.00  0.00    -0.203 NA
ATOM      8  N   UNL     1      33.176  -9.256 -23.851  0.00  0.00    -0.181 NA
ATOM      9  C   UNL     1      33.036 -14.233 -24.666  0.00  0.00    +0.062 C 
ATOM     10  C   UNL     1      33.771 -13.377 -23.624  0.00  0.00    +0.030 C 
ATOM     11  C   UNL     1      33.080 -13.530 -26.031  0.00  0.00    +0.030 C 
ATOM     12  C   UNL     1      33.194 -11.963 -23.554  0.00  0.00    +0.102 C 
ATOM     13  C   UNL     1      32.500 -12.118 -25.947  0.00  0.00    +0.102 C 
ATOM     14  C   UNL     1      33.159  -9.954 -25.002  0.00  0.00    +0.090 C 
ATOM     15  C   UNL     1      33.131  -8.107 -26.326  0.00  0.00    +0.161 C 
ATOM     16  C   UNL     1      33.169  -7.915 -23.998  0.00  0.00    +0.104 C 
ATOM     17  C   UNL     1      33.147  -7.278 -25.223  0.00  0.00    +0.001 C 
BRANCH  17  18
ATOM     18  C   UNL     1      33.140  -5.801 -25.346  0.00  0.00    +0.026 C 
ATOM     19  C   UNL     1      33.744  -5.316 -26.664  0.00  0.00    +0.005 C 
ENDBRANCH  17  18
ENDBRANCH   3   9
BRANCH   4  20
ATOM     20  C   UNL     1      34.643 -18.640 -23.100  0.00  0.00    +0.260 C 
BRANCH  20  21
ATOM     21  O   UNL     1      33.477 -18.990 -22.356  0.00  0.00    -0.468 OA
BRANCH  21  22
ATOM     22  C   UNL     1      33.658 -19.835 -21.296  0.00  0.00    +0.139 C 
ATOM     23  C   UNL     1      32.553 -20.345 -20.612  0.00  0.00    +0.038 C 
ATOM     24  C   UNL     1      34.946 -20.188 -20.897  0.00  0.00    +0.038 C 
ATOM     25  C   UNL     1      34.027 -21.558 -19.133  0.00  0.00    +0.078 C 
ATOM     26  C   UNL     1      32.738 -21.206 -19.531  0.00  0.00    +0.020 C 
ATOM     27  C   UNL     1      35.132 -21.050 -19.816  0.00  0.00    +0.020 C 
BRANCH  25  28
ATOM     28  N   UNL     1      34.210 -22.413 -18.061  0.00  0.00    -0.149 N 
ATOM     29  N   UNL     1      35.382 -22.519 -17.420  0.00  0.00    -0.048 NA
ATOM     30  N   UNL     1      33.877 -23.883 -16.502  0.00  0.00    -0.107 NA
ATOM     31  N   UNL     1      35.173 -23.419 -16.468  0.00  0.00    -0.024 NA
ATOM     32  C   UNL     1      33.299 -23.247 -17.494  0.00  0.00    +0.215 C 
ENDBRANCH  25  28
ENDBRANCH  21  22
ENDBRANCH  20  21
ENDBRANCH   4  20
TORSDOF 6
ENDMDL
MODEL 8
REMARK VINA RESULT:     -11.2      4.306      7.740
REMARK  Name = 25025505
REMARK  6 active torsions:
REMARK  status: ('A' for Active; 'I' for Inactive)
REMARK    1  A    between atoms: C_3  and  C_9
REMARK    2  A    between atoms: C_4  and  C_20
REMARK    3  A    between atoms: C_17  and  C_18
REMARK    4  A    between atoms: C_20  and  O_21
REMARK    5  A    between atoms: O_21  and  C_22
REMARK    6  A    between atoms: C_25  and  N_28
REMARK                            x       y       z     vdW  Elec       q    Type
REMARK                         _______ _______ _______ _____ _____    ______ ____
ROOT
ATOM      1  S   UNL     1      32.584 -14.209 -27.066  0.00  0.00    -0.079 S 
ATOM      2  N   UNL     1      33.648 -14.941 -24.827  0.00  0.00    -0.404 NA
ATOM      3  C   UNL     1      33.246 -13.895 -25.514  0.00  0.00    +0.134 C 
ATOM      4  C   UNL     1      33.420 -16.080 -25.573  0.00  0.00    +0.142 C 
ATOM      5  C   UNL     1      32.850 -15.884 -26.814  0.00  0.00    +0.122 C 
ENDROOT
BRANCH   3   9
ATOM      6  N   UNL     1      32.273  -9.901 -24.189  0.00  0.00    -0.253 N 
ATOM      7  N   UNL     1      31.304  -8.600 -22.507  0.00  0.00    -0.203 NA
ATOM      8  N   UNL     1      31.951  -7.626 -24.614  0.00  0.00    -0.181 NA
ATOM      9  C   UNL     1      33.332 -12.461 -25.025  0.00  0.00    +0.062 C 
ATOM     10  C   UNL     1      32.732 -11.470 -26.032  0.00  0.00    +0.030 C 
ATOM     11  C   UNL     1      32.657 -12.276 -23.658  0.00  0.00    +0.030 C 
ATOM     12  C   UNL     1      32.846 -10.029 -25.534  0.00  0.00    +0.102 C 
ATOM     13  C   UNL     1      32.779 -10.832 -23.171  0.00  0.00    +0.102 C 
ATOM     14  C   UNL     1      31.822  -8.650 -23.749  0.00  0.00    +0.090 C 
ATOM     15  C   UNL     1      30.879  -7.381 -22.117  0.00  0.00    +0.161 C 
ATOM     16  C   UNL     1      31.506  -6.437 -24.159  0.00  0.00    +0.104 C 
ATOM     17  C   UNL     1      30.954  -6.252 -22.907  0.00  0.00    +0.001 C 
BRANCH  17  18
ATOM     18  C   UNL     1      30.476  -4.929 -22.441  0.00  0.00    +0.026 C 
ATOM     19  C   UNL     1      30.353  -3.913 -23.578  0.00  0.00    +0.005 C 
ENDBRANCH  17  18
ENDBRANCH   3   9
BRANCH   4  20
ATOM     20  C   UNL     1      33.798 -17.385 -24.995  0.00  0.00    +0.260 C 
BRANCH  20  21
ATOM     21  O   UNL     1      34.842 -17.210 -24.038  0.00  0.00    -0.468 OA
BRANCH  21  22
ATOM     22  C   UNL     1      34.886 -18.110 -23.009  0.00  0.00    +0.139 C 
ATOM     23  C   UNL     1      36.035 -18.218 -22.224  0.00  0.00    +0.038 C 
ATOM     24  C   UNL     1      33.783 -18.921 -22.743  0.00  0.00    +0.038 C 
ATOM     25  C   UNL     1      34.977 -19.947 -20.911  0.00  0.00    +0.078 C 
ATOM     26  C   UNL     1      36.080 -19.137 -21.176  0.00  0.00    +0.020 C 
ATOM     27  C   UNL     1      33.827 -19.840 -21.695  0.00  0.00    +0.020 C 
BRANCH  25  28
ATOM     28  N   UNL     1      35.021 -20.858 -19.871  0.00  0.00    -0.149 N 
ATOM     29  N   UNL     1      36.110 -21.021 -19.107  0.00  0.00    -0.048 NA
ATOM     30  N   UNL     1      34.487 -22.397 -18.440  0.00  0.00    -0.107 NA
ATOM     31  N   UNL     1      35.778 -21.963 -18.233  0.00  0.00    -0.024 NA
ATOM     32  C   UNL     1      34.038 -21.699 -19.457  0.00  0.00    +0.215 C 
ENDBRANCH  25  28
ENDBRANCH  21  22
ENDBRANCH  20  21
ENDBRANCH   4  20
TORSDOF 6
ENDMDL
MODEL 9
REMARK VINA RESULT:     -11.0      3.583     13.171
REMARK  Name = 25025505
REMARK  6 active torsions:
REMARK  status: ('A' for Active; 'I' for Inactive)
REMARK    1  A    between atoms: C_3  and  C_9
REMARK    2  A    between atoms: C_4  and  C_20
REMARK    3  A    between atoms: C_17  and  C_18
REMARK    4  A    between atoms: C_20  and  O_21
REMARK    5  A    between atoms: O_21  and  C_22
REMARK    6  A    between atoms: C_25  and  N_28
REMARK                            x       y       z     vdW  Elec       q    Type
REMARK                         _______ _______ _______ _____ _____    ______ ____
ROOT
ATOM      1  S   UNL     1      35.259 -17.653 -21.468  0.00  0.00    -0.079 S 
ATOM      2  N   UNL     1      33.948 -18.716 -23.426  0.00  0.00    -0.404 NA
ATOM      3  C   UNL     1      34.343 -18.913 -22.188  0.00  0.00    +0.134 C 
ATOM      4  C   UNL     1      34.399 -17.480 -23.846  0.00  0.00    +0.142 C 
ATOM      5  C   UNL     1      35.127 -16.758 -22.924  0.00  0.00    +0.122 C 
ENDROOT
BRANCH   3   9
ATOM      6  N   UNL     1      33.340 -21.641 -18.993  0.00  0.00    -0.253 N 
ATOM      7  N   UNL     1      31.682 -22.371 -17.518  0.00  0.00    -0.203 NA
ATOM      8  N   UNL     1      33.963 -23.111 -17.287  0.00  0.00    -0.181 NA
ATOM      9  C   UNL     1      34.040 -20.161 -21.379  0.00  0.00    +0.062 C 
ATOM     10  C   UNL     1      35.043 -20.364 -20.233  0.00  0.00    +0.030 C 
ATOM     11  C   UNL     1      32.611 -20.153 -20.816  0.00  0.00    +0.030 C 
ATOM     12  C   UNL     1      34.737 -21.636 -19.442  0.00  0.00    +0.102 C 
ATOM     13  C   UNL     1      32.319 -21.430 -20.029  0.00  0.00    +0.102 C 
ATOM     14  C   UNL     1      32.978 -22.411 -17.881  0.00  0.00    +0.090 C 
ATOM     15  C   UNL     1      31.368 -23.123 -16.442  0.00  0.00    +0.161 C 
ATOM     16  C   UNL     1      33.579 -23.840 -16.219  0.00  0.00    +0.104 C 
ATOM     17  C   UNL     1      32.284 -23.885 -15.746  0.00  0.00    +0.001 C 
BRANCH  17  18
ATOM     18  C   UNL     1      31.900 -24.699 -14.568  0.00  0.00    +0.026 C 
ATOM     19  C   UNL     1      30.392 -24.948 -14.490  0.00  0.00    +0.005 C 
ENDBRANCH  17  18
ENDBRANCH   3   9
BRANCH   4  20
ATOM     20  C   UNL     1      34.071 -17.044 -25.218  0.00  0.00    +0.260 C 
BRANCH  20  21
ATOM     21  O   UNL     1      32.894 -16.238 -25.206  0.00  0.00    -0.468 OA
BRANCH  21  22
ATOM     22  C   UNL     1      33.067 -14.896 -25.405  0.00  0.00    +0.139 C 
ATOM     23  C   UNL     1      33.071 -14.377 -26.700  0.00  0.00    +0.038 C 
ATOM     24  C   UNL     1      33.242 -14.045 -24.314  0.00  0.00    +0.038 C 
ATOM     25  C   UNL     1      33.423 -12.160 -25.812  0.00  0.00    +0.078 C 
ATOM     26  C   UNL     1      33.249 -13.009 -26.904  0.00  0.00    +0.020 C 
ATOM     27  C   UNL     1      33.419 -12.677 -24.516  0.00  0.00    +0.020 C 
BRANCH  25  28
ATOM     28  N   UNL     1      33.599 -10.802 -26.014  0.00  0.00    -0.149 N 
ATOM     29  N   UNL     1      34.804 -10.261 -26.240  0.00  0.00    -0.048 NA
ATOM     30  N   UNL     1      33.235  -8.677 -26.246  0.00  0.00    -0.107 NA
ATOM     31  N   UNL     1      34.576  -8.961 -26.382  0.00  0.00    -0.024 NA
ATOM     32  C   UNL     1      32.650  -9.830 -26.020  0.00  0.00    +0.215 C 
ENDBRANCH  25  28
ENDBRANCH  21  22
ENDBRANCH  20  21
ENDBRANCH   4  20
TORSDOF 6
ENDMDL
