MODEL 1
REMARK VINA RESULT:     -13.1      0.000      0.000
REMARK  Name = 6102777
REMARK  2 active torsions:
REMARK  status: ('A' for Active; 'I' for Inactive)
REMARK    1  A    between atoms: C_4  and  S_16
REMARK    2  A    between atoms: S_16  and  N_19
REMARK                            x       y       z     vdW  Elec       q    Type
REMARK                         _______ _______ _______ _____ _____    ______ ____
ROOT
ATOM      1  O   UNL     1      36.080 -20.856 -19.135  0.00  0.00    -0.453 OA
ATOM      2  O   UNL     1      32.262 -22.255 -18.669  0.00  0.00    -0.286 OA
ATOM      3  C   UNL     1      34.481 -22.211 -17.880  0.00  0.00    +0.075 A 
ATOM      4  C   UNL     1      35.274 -23.402 -15.937  0.00  0.00    +0.126 C 
ATOM      5  C   UNL     1      35.760 -21.698 -18.098  0.00  0.00    +0.148 A 
ATOM      6  C   UNL     1      34.233 -23.063 -16.802  0.00  0.00    +0.026 C 
ATOM      7  C   UNL     1      33.765 -20.933 -19.911  0.00  0.00    +0.074 A 
ATOM      8  C   UNL     1      33.402 -21.836 -18.808  0.00  0.00    +0.201 A 
ATOM      9  C   UNL     1      35.085 -20.495 -20.011  0.00  0.00    +0.148 A 
ATOM     10  C   UNL     1      36.555 -22.892 -16.151  0.00  0.00    +0.023 C 
ATOM     11  C   UNL     1      36.798 -22.041 -17.230  0.00  0.00    +0.039 C 
ATOM     12  C   UNL     1      32.808 -20.522 -20.841  0.00  0.00    +0.006 C 
ATOM     13  C   UNL     1      35.453 -19.637 -21.050  0.00  0.00    +0.038 C 
ATOM     14  C   UNL     1      33.181 -19.665 -21.878  0.00  0.00    +0.000 C 
ATOM     15  C   UNL     1      34.500 -19.224 -21.982  0.00  0.00    +0.003 C 
ENDROOT
BRANCH   4  16
ATOM     16  S   UNL     1      34.975 -24.466 -14.586  0.00  0.00    +0.081 S 
ATOM     17  O   UNL     1      33.567 -24.357 -14.225  0.00  0.00    -0.149 OA
ATOM     18  O   UNL     1      35.534 -25.773 -14.906  0.00  0.00    -0.149 OA
BRANCH  16  19
ATOM     19  N   UNL     1      35.922 -23.735 -13.368  0.00  0.00    -0.156 N 
ATOM     20  N   UNL     1      36.570 -23.388 -11.076  0.00  0.00    -0.094 NA
ATOM     21  N   UNL     1      34.895 -24.859 -11.477  0.00  0.00    -0.071 NA
ATOM     22  N   UNL     1      36.067 -23.958  -9.972  0.00  0.00    -0.139 N 
ATOM     23  N   UNL     1      35.072 -24.835 -10.162  0.00  0.00    -0.020 NA
ATOM     24  C   UNL     1      35.803 -23.986 -11.980  0.00  0.00    +0.145 C 
ATOM     25  H   UNL     1      36.607 -23.087 -13.654  0.00  0.00    +0.186 HD
ATOM     26  H   UNL     1      36.408 -23.743  -9.073  0.00  0.00    +0.197 HD
ENDBRANCH  16  19
ENDBRANCH   4  16
TORSDOF 2
ENDMDL
MODEL 2
REMARK VINA RESULT:     -13.0      2.694      4.043
REMARK  Name = 6102777
REMARK  2 active torsions:
REMARK  status: ('A' for Active; 'I' for Inactive)
REMARK    1  A    between atoms: C_4  and  S_16
REMARK    2  A    between atoms: S_16  and  N_19
REMARK                            x       y       z     vdW  Elec       q    Type
REMARK                         _______ _______ _______ _____ _____    ______ ____
ROOT
ATOM      1  O   UNL     1      33.356 -23.154 -16.623  0.00  0.00    -0.453 OA
ATOM      2  O   UNL     1      37.309 -22.094 -16.639  0.00  0.00    -0.286 OA
ATOM      3  C   UNL     1      35.521 -23.110 -15.492  0.00  0.00    +0.075 A 
ATOM      4  C   UNL     1      35.679 -24.099 -13.296  0.00  0.00    +0.126 C 
ATOM      5  C   UNL     1      34.167 -23.441 -15.552  0.00  0.00    +0.148 A 
ATOM      6  C   UNL     1      36.281 -23.436 -14.366  0.00  0.00    +0.026 C 
ATOM      7  C   UNL     1      35.244 -22.113 -17.771  0.00  0.00    +0.074 A 
ATOM      8  C   UNL     1      36.129 -22.411 -16.634  0.00  0.00    +0.201 A 
ATOM      9  C   UNL     1      33.907 -22.502 -17.700  0.00  0.00    +0.148 A 
ATOM     10  C   UNL     1      34.326 -24.432 -13.352  0.00  0.00    +0.023 C 
ATOM     11  C   UNL     1      33.570 -24.103 -14.478  0.00  0.00    +0.039 C 
ATOM     12  C   UNL     1      35.732 -21.454 -18.902  0.00  0.00    +0.006 C 
ATOM     13  C   UNL     1      33.049 -22.230 -18.767  0.00  0.00    +0.038 C 
ATOM     14  C   UNL     1      34.870 -21.184 -19.965  0.00  0.00    +0.000 C 
ATOM     15  C   UNL     1      33.532 -21.570 -19.899  0.00  0.00    +0.003 C 
ENDROOT
BRANCH   4  16
ATOM     16  S   UNL     1      36.621 -24.512 -11.885  0.00  0.00    +0.081 S 
ATOM     17  O   UNL     1      36.388 -23.492 -10.870  0.00  0.00    -0.149 OA
ATOM     18  O   UNL     1      36.370 -25.911 -11.567  0.00  0.00    -0.149 OA
BRANCH  16  19
ATOM     19  N   UNL     1      38.211 -24.351 -12.484  0.00  0.00    -0.156 N 
ATOM     20  N   UNL     1      40.071 -25.054 -13.840  0.00  0.00    -0.094 NA
ATOM     21  N   UNL     1      38.191 -26.314 -13.913  0.00  0.00    -0.071 NA
ATOM     22  N   UNL     1      40.155 -26.115 -14.656  0.00  0.00    -0.139 N 
ATOM     23  N   UNL     1      39.064 -26.890 -14.729  0.00  0.00    -0.020 NA
ATOM     24  C   UNL     1      38.829 -25.229 -13.406  0.00  0.00    +0.145 C 
ATOM     25  H   UNL     1      38.741 -23.586 -12.163  0.00  0.00    +0.186 HD
ATOM     26  H   UNL     1      40.971 -26.313 -15.170  0.00  0.00    +0.197 HD
ENDBRANCH  16  19
ENDBRANCH   4  16
TORSDOF 2
ENDMDL
MODEL 3
REMARK VINA RESULT:     -12.4      0.989      2.231
REMARK  Name = 6102777
REMARK  2 active torsions:
REMARK  status: ('A' for Active; 'I' for Inactive)
REMARK    1  A    between atoms: C_4  and  S_16
REMARK    2  A    between atoms: S_16  and  N_19
REMARK                            x       y       z     vdW  Elec       q    Type
REMARK                         _______ _______ _______ _____ _____    ______ ____
ROOT
ATOM      1  O   UNL     1      32.369 -21.362 -19.326  0.00  0.00    -0.453 OA
ATOM      2  O   UNL     1      36.408 -21.688 -18.755  0.00  0.00    -0.286 OA
ATOM      3  C   UNL     1      34.239 -22.248 -18.029  0.00  0.00    +0.075 A 
ATOM      4  C   UNL     1      33.743 -23.624 -16.109  0.00  0.00    +0.126 C 
ATOM      5  C   UNL     1      32.875 -22.095 -18.282  0.00  0.00    +0.148 A 
ATOM      6  C   UNL     1      34.678 -23.012 -16.945  0.00  0.00    +0.026 C 
ATOM      7  C   UNL     1      34.639 -20.812 -20.040  0.00  0.00    +0.074 A 
ATOM      8  C   UNL     1      35.201 -21.592 -18.926  0.00  0.00    +0.201 A 
ATOM      9  C   UNL     1      33.253 -20.742 -20.175  0.00  0.00    +0.148 A 
ATOM     10  C   UNL     1      32.379 -23.473 -16.357  0.00  0.00    +0.023 C 
ATOM     11  C   UNL     1      31.944 -22.710 -17.442  0.00  0.00    +0.039 C 
ATOM     12  C   UNL     1      35.475 -20.153 -20.944  0.00  0.00    +0.006 C 
ATOM     13  C   UNL     1      32.696 -20.007 -21.224  0.00  0.00    +0.038 C 
ATOM     14  C   UNL     1      34.913 -19.420 -21.990  0.00  0.00    +0.000 C 
ATOM     15  C   UNL     1      33.528 -19.347 -22.131  0.00  0.00    +0.003 C 
ENDROOT
BRANCH   4  16
ATOM     16  S   UNL     1      34.281 -24.580 -14.751  0.00  0.00    +0.081 S 
ATOM     17  O   UNL     1      33.119 -24.899 -13.931  0.00  0.00    -0.149 OA
ATOM     18  O   UNL     1      35.118 -25.659 -15.260  0.00  0.00    -0.149 OA
BRANCH  16  19
ATOM     19  N   UNL     1      35.261 -23.457 -13.918  0.00  0.00    -0.156 N 
ATOM     20  N   UNL     1      36.557 -22.735 -12.023  0.00  0.00    -0.094 NA
ATOM     21  N   UNL     1      35.575 -24.773 -11.902  0.00  0.00    -0.071 NA
ATOM     22  N   UNL     1      36.788 -23.386 -10.874  0.00  0.00    -0.139 N 
ATOM     23  N   UNL     1      36.225 -24.597 -10.759  0.00  0.00    -0.020 NA
ATOM     24  C   UNL     1      35.799 -23.645 -12.623  0.00  0.00    +0.145 C 
ATOM     25  H   UNL     1      35.469 -22.610 -14.377  0.00  0.00    +0.186 HD
ATOM     26  H   UNL     1      37.339 -22.996 -10.157  0.00  0.00    +0.197 HD
ENDBRANCH  16  19
ENDBRANCH   4  16
TORSDOF 2
ENDMDL
MODEL 4
REMARK VINA RESULT:     -12.2      1.993      2.470
REMARK  Name = 6102777
REMARK  2 active torsions:
REMARK  status: ('A' for Active; 'I' for Inactive)
REMARK    1  A    between atoms: C_4  and  S_16
REMARK    2  A    between atoms: S_16  and  N_19
REMARK                            x       y       z     vdW  Elec       q    Type
REMARK                         _______ _______ _______ _____ _____    ______ ____
ROOT
ATOM      1  O   UNL     1      36.085 -20.847 -19.124  0.00  0.00    -0.453 OA
ATOM      2  O   UNL     1      32.319 -22.320 -18.495  0.00  0.00    -0.286 OA
ATOM      3  C   UNL     1      34.562 -22.209 -17.786  0.00  0.00    +0.075 A 
ATOM      4  C   UNL     1      35.450 -23.338 -15.846  0.00  0.00    +0.126 C 
ATOM      5  C   UNL     1      35.821 -21.672 -18.059  0.00  0.00    +0.148 A 
ATOM      6  C   UNL     1      34.371 -23.042 -16.680  0.00  0.00    +0.026 C 
ATOM      7  C   UNL     1      33.748 -20.993 -19.816  0.00  0.00    +0.074 A 
ATOM      8  C   UNL     1      33.444 -21.879 -18.682  0.00  0.00    +0.201 A 
ATOM      9  C   UNL     1      35.053 -20.528 -19.972  0.00  0.00    +0.148 A 
ATOM     10  C   UNL     1      36.710 -22.805 -16.116  0.00  0.00    +0.023 C 
ATOM     11  C   UNL     1      36.896 -21.973 -17.221  0.00  0.00    +0.039 C 
ATOM     12  C   UNL     1      32.750 -20.624 -20.722  0.00  0.00    +0.006 C 
ATOM     13  C   UNL     1      35.364 -19.686 -21.042  0.00  0.00    +0.038 C 
ATOM     14  C   UNL     1      33.067 -19.783 -21.789  0.00  0.00    +0.000 C 
ATOM     15  C   UNL     1      34.370 -19.315 -21.949  0.00  0.00    +0.003 C 
ENDROOT
BRANCH   4  16
ATOM     16  S   UNL     1      35.222 -24.378 -14.462  0.00  0.00    +0.081 S 
ATOM     17  O   UNL     1      35.735 -23.688 -13.286  0.00  0.00    -0.149 OA
ATOM     18  O   UNL     1      33.843 -24.850 -14.473  0.00  0.00    -0.149 OA
BRANCH  16  19
ATOM     19  N   UNL     1      36.261 -25.678 -14.846  0.00  0.00    -0.156 N 
ATOM     20  N   UNL     1      38.403 -26.775 -14.864  0.00  0.00    -0.094 NA
ATOM     21  N   UNL     1      38.284 -24.731 -13.895  0.00  0.00    -0.071 NA
ATOM     22  N   UNL     1      39.569 -26.337 -14.367  0.00  0.00    -0.139 N 
ATOM     23  N   UNL     1      39.545 -25.130 -13.785  0.00  0.00    -0.020 NA
ATOM     24  C   UNL     1      37.642 -25.736 -14.541  0.00  0.00    +0.145 C 
ATOM     25  H   UNL     1      35.868 -26.448 -15.317  0.00  0.00    +0.186 HD
ATOM     26  H   UNL     1      40.394 -26.871 -14.427  0.00  0.00    +0.197 HD
ENDBRANCH  16  19
ENDBRANCH   4  16
TORSDOF 2
ENDMDL
MODEL 5
REMARK VINA RESULT:     -12.0      4.551      5.424
REMARK  Name = 6102777
REMARK  2 active torsions:
REMARK  status: ('A' for Active; 'I' for Inactive)
REMARK    1  A    between atoms: C_4  and  S_16
REMARK    2  A    between atoms: S_16  and  N_19
REMARK                            x       y       z     vdW  Elec       q    Type
REMARK                         _______ _______ _______ _____ _____    ______ ____
ROOT
ATOM      1  O   UNL     1      35.308 -22.683 -17.097  0.00  0.00    -0.453 OA
ATOM      2  O   UNL     1      31.698 -21.912 -18.863  0.00  0.00    -0.286 OA
ATOM      3  C   UNL     1      32.874 -22.888 -17.072  0.00  0.00    +0.075 A 
ATOM      4  C   UNL     1      31.850 -24.066 -15.231  0.00  0.00    +0.126 C 
ATOM      5  C   UNL     1      34.137 -23.116 -16.525  0.00  0.00    +0.148 A 
ATOM      6  C   UNL     1      31.727 -23.361 -16.429  0.00  0.00    +0.026 C 
ATOM      7  C   UNL     1      34.041 -21.686 -18.932  0.00  0.00    +0.074 A 
ATOM      8  C   UNL     1      32.776 -22.142 -18.335  0.00  0.00    +0.201 A 
ATOM      9  C   UNL     1      35.236 -21.984 -18.278  0.00  0.00    +0.148 A 
ATOM     10  C   UNL     1      33.110 -24.297 -14.681  0.00  0.00    +0.023 C 
ATOM     11  C   UNL     1      34.253 -23.823 -15.326  0.00  0.00    +0.039 C 
ATOM     12  C   UNL     1      34.048 -20.969 -20.131  0.00  0.00    +0.006 C 
ATOM     13  C   UNL     1      36.448 -21.561 -18.826  0.00  0.00    +0.038 C 
ATOM     14  C   UNL     1      35.263 -20.550 -20.674  0.00  0.00    +0.000 C 
ATOM     15  C   UNL     1      36.460 -20.845 -20.024  0.00  0.00    +0.003 C 
ENDROOT
BRANCH   4  16
ATOM     16  S   UNL     1      30.422 -24.661 -14.420  0.00  0.00    +0.081 S 
ATOM     17  O   UNL     1      29.926 -25.814 -15.161  0.00  0.00    -0.149 OA
ATOM     18  O   UNL     1      30.731 -24.798 -13.003  0.00  0.00    -0.149 OA
BRANCH  16  19
ATOM     19  N   UNL     1      29.346 -23.354 -14.635  0.00  0.00    -0.156 N 
ATOM     20  N   UNL     1      27.597 -22.188 -15.807  0.00  0.00    -0.094 NA
ATOM     21  N   UNL     1      28.286 -24.170 -16.661  0.00  0.00    -0.071 NA
ATOM     22  N   UNL     1      26.954 -22.555 -16.925  0.00  0.00    -0.139 N 
ATOM     23  N   UNL     1      27.330 -23.723 -17.465  0.00  0.00    -0.020 NA
ATOM     24  C   UNL     1      28.412 -23.229 -15.691  0.00  0.00    +0.145 C 
ATOM     25  H   UNL     1      29.376 -22.627 -13.969  0.00  0.00    +0.186 HD
ATOM     26  H   UNL     1      26.246 -22.000 -17.325  0.00  0.00    +0.197 HD
ENDBRANCH  16  19
ENDBRANCH   4  16
TORSDOF 2
ENDMDL
MODEL 6
REMARK VINA RESULT:     -11.8      6.562      9.252
REMARK  Name = 6102777
REMARK  2 active torsions:
REMARK  status: ('A' for Active; 'I' for Inactive)
REMARK    1  A    between atoms: C_4  and  S_16
REMARK    2  A    between atoms: S_16  and  N_19
REMARK                            x       y       z     vdW  Elec       q    Type
REMARK                         _______ _______ _______ _____ _____    ______ ____
ROOT
ATOM      1  O   UNL     1      33.672 -13.494 -23.871  0.00  0.00    -0.453 OA
ATOM      2  O   UNL     1      33.563 -16.694 -26.419  0.00  0.00    -0.286 OA
ATOM      3  C   UNL     1      33.983 -15.887 -24.247  0.00  0.00    +0.075 A 
ATOM      4  C   UNL     1      34.693 -17.249 -22.386  0.00  0.00    +0.126 C 
ATOM      5  C   UNL     1      33.999 -14.754 -23.434  0.00  0.00    +0.148 A 
ATOM      6  C   UNL     1      34.329 -17.137 -23.729  0.00  0.00    +0.026 C 
ATOM      7  C   UNL     1      33.247 -14.381 -26.106  0.00  0.00    +0.074 A 
ATOM      8  C   UNL     1      33.594 -15.738 -25.658  0.00  0.00    +0.201 A 
ATOM      9  C   UNL     1      33.306 -13.336 -25.186  0.00  0.00    +0.148 A 
ATOM     10  C   UNL     1      34.712 -16.119 -21.569  0.00  0.00    +0.023 C 
ATOM     11  C   UNL     1      34.365 -14.872 -22.092  0.00  0.00    +0.039 C 
ATOM     12  C   UNL     1      32.865 -14.142 -27.429  0.00  0.00    +0.006 C 
ATOM     13  C   UNL     1      32.980 -12.039 -25.589  0.00  0.00    +0.038 C 
ATOM     14  C   UNL     1      32.541 -12.844 -27.827  0.00  0.00    +0.000 C 
ATOM     15  C   UNL     1      32.598 -11.795 -26.910  0.00  0.00    +0.003 C 
ENDROOT
BRANCH   4  16
ATOM     16  S   UNL     1      35.128 -18.807 -21.728  0.00  0.00    +0.081 S 
ATOM     17  O   UNL     1      35.512 -19.676 -22.833  0.00  0.00    -0.149 OA
ATOM     18  O   UNL     1      36.059 -18.590 -20.629  0.00  0.00    -0.149 OA
BRANCH  16  19
ATOM     19  N   UNL     1      33.631 -19.334 -21.098  0.00  0.00    -0.156 N 
ATOM     20  N   UNL     1      32.252 -20.845 -19.831  0.00  0.00    -0.094 NA
ATOM     21  N   UNL     1      34.469 -21.298 -19.942  0.00  0.00    -0.071 NA
ATOM     22  N   UNL     1      32.620 -21.948 -19.162  0.00  0.00    -0.139 N 
ATOM     23  N   UNL     1      33.924 -22.254 -19.201  0.00  0.00    -0.020 NA
ATOM     24  C   UNL     1      33.442 -20.484 -20.295  0.00  0.00    +0.145 C 
ATOM     25  H   UNL     1      32.835 -18.794 -21.310  0.00  0.00    +0.186 HD
ATOM     26  H   UNL     1      31.969 -22.500 -18.671  0.00  0.00    +0.197 HD
ENDBRANCH  16  19
ENDBRANCH   4  16
TORSDOF 2
ENDMDL
MODEL 7
REMARK VINA RESULT:     -11.8      2.182      3.236
REMARK  Name = 6102777
REMARK  2 active torsions:
REMARK  status: ('A' for Active; 'I' for Inactive)
REMARK    1  A    between atoms: C_4  and  S_16
REMARK    2  A    between atoms: S_16  and  N_19
REMARK                            x       y       z     vdW  Elec       q    Type
REMARK                         _______ _______ _______ _____ _____    ______ ____
ROOT
ATOM      1  O   UNL     1      32.472 -21.779 -18.925  0.00  0.00    -0.453 OA
ATOM      2  O   UNL     1      36.561 -21.626 -18.836  0.00  0.00    -0.286 OA
ATOM      3  C   UNL     1      34.575 -22.466 -17.889  0.00  0.00    +0.075 A 
ATOM      4  C   UNL     1      34.477 -23.942 -15.982  0.00  0.00    +0.126 C 
ATOM      5  C   UNL     1      33.183 -22.473 -17.976  0.00  0.00    +0.148 A 
ATOM      6  C   UNL     1      35.227 -23.198 -16.894  0.00  0.00    +0.026 C 
ATOM      7  C   UNL     1      34.561 -20.938 -19.871  0.00  0.00    +0.074 A 
ATOM      8  C   UNL     1      35.340 -21.673 -18.863  0.00  0.00    +0.201 A 
ATOM      9  C   UNL     1      33.170 -21.033 -19.844  0.00  0.00    +0.148 A 
ATOM     10  C   UNL     1      33.084 -23.952 -16.065  0.00  0.00    +0.023 C 
ATOM     11  C   UNL     1      32.437 -23.219 -17.061  0.00  0.00    +0.039 C 
ATOM     12  C   UNL     1      35.199 -20.158 -20.839  0.00  0.00    +0.006 C 
ATOM     13  C   UNL     1      32.410 -20.344 -20.791  0.00  0.00    +0.038 C 
ATOM     14  C   UNL     1      34.435 -19.471 -21.783  0.00  0.00    +0.000 C 
ATOM     15  C   UNL     1      33.044 -19.564 -21.759  0.00  0.00    +0.003 C 
ENDROOT
BRANCH   4  16
ATOM     16  S   UNL     1      35.282 -24.862 -14.735  0.00  0.00    +0.081 S 
ATOM     17  O   UNL     1      34.722 -24.467 -13.448  0.00  0.00    -0.149 OA
ATOM     18  O   UNL     1      35.265 -26.265 -15.125  0.00  0.00    -0.149 OA
BRANCH  16  19
ATOM     19  N   UNL     1      36.877 -24.266 -14.857  0.00  0.00    -0.156 N 
ATOM     20  N   UNL     1      39.268 -24.535 -14.890  0.00  0.00    -0.094 NA
ATOM     21  N   UNL     1      38.011 -26.399 -14.614  0.00  0.00    -0.071 NA
ATOM     22  N   UNL     1      39.982 -25.663 -14.767  0.00  0.00    -0.139 N 
ATOM     23  N   UNL     1      39.278 -26.791 -14.600  0.00  0.00    -0.020 NA
ATOM     24  C   UNL     1      38.050 -25.054 -14.789  0.00  0.00    +0.145 C 
ATOM     25  H   UNL     1      36.990 -23.295 -14.985  0.00  0.00    +0.186 HD
ATOM     26  H   UNL     1      40.966 -25.662 -14.796  0.00  0.00    +0.197 HD
ENDBRANCH  16  19
ENDBRANCH   4  16
TORSDOF 2
ENDMDL
MODEL 8
REMARK VINA RESULT:     -11.6      2.114      2.666
REMARK  Name = 6102777
REMARK  2 active torsions:
REMARK  status: ('A' for Active; 'I' for Inactive)
REMARK    1  A    between atoms: C_4  and  S_16
REMARK    2  A    between atoms: S_16  and  N_19
REMARK                            x       y       z     vdW  Elec       q    Type
REMARK                         _______ _______ _______ _____ _____    ______ ____
ROOT
ATOM      1  O   UNL     1      36.047 -21.010 -18.929  0.00  0.00    -0.453 OA
ATOM      2  O   UNL     1      32.249 -22.421 -18.346  0.00  0.00    -0.286 OA
ATOM      3  C   UNL     1      34.482 -22.336 -17.601  0.00  0.00    +0.075 A 
ATOM      4  C   UNL     1      35.321 -23.458 -15.637  0.00  0.00    +0.126 C 
ATOM      5  C   UNL     1      35.753 -21.821 -17.860  0.00  0.00    +0.148 A 
ATOM      6  C   UNL     1      34.261 -23.154 -16.491  0.00  0.00    +0.026 C 
ATOM      7  C   UNL     1      33.718 -21.129 -19.657  0.00  0.00    +0.074 A 
ATOM      8  C   UNL     1      33.384 -21.999 -18.519  0.00  0.00    +0.201 A 
ATOM      9  C   UNL     1      35.033 -20.685 -19.797  0.00  0.00    +0.148 A 
ATOM     10  C   UNL     1      36.594 -22.946 -15.891  0.00  0.00    +0.023 C 
ATOM     11  C   UNL     1      36.810 -22.129 -17.001  0.00  0.00    +0.039 C 
ATOM     12  C   UNL     1      32.741 -20.754 -20.582  0.00  0.00    +0.006 C 
ATOM     13  C   UNL     1      35.374 -19.858 -20.869  0.00  0.00    +0.038 C 
ATOM     14  C   UNL     1      33.087 -19.929 -21.652  0.00  0.00    +0.000 C 
ATOM     15  C   UNL     1      34.400 -19.482 -21.796  0.00  0.00    +0.003 C 
ENDROOT
BRANCH   4  16
ATOM     16  S   UNL     1      35.056 -24.481 -14.246  0.00  0.00    +0.081 S 
ATOM     17  O   UNL     1      36.060 -25.537 -14.262  0.00  0.00    -0.149 OA
ATOM     18  O   UNL     1      34.931 -23.626 -13.073  0.00  0.00    -0.149 OA
BRANCH  16  19
ATOM     19  N   UNL     1      33.530 -25.154 -14.613  0.00  0.00    -0.156 N 
ATOM     20  N   UNL     1      31.142 -25.313 -14.363  0.00  0.00    -0.094 NA
ATOM     21  N   UNL     1      32.223 -23.763 -13.113  0.00  0.00    -0.071 NA
ATOM     22  N   UNL     1      30.337 -24.593 -13.567  0.00  0.00    -0.139 N 
ATOM     23  N   UNL     1      30.935 -23.664 -12.809  0.00  0.00    -0.020 NA
ATOM     24  C   UNL     1      32.301 -24.752 -14.038  0.00  0.00    +0.145 C 
ATOM     25  H   UNL     1      33.504 -25.881 -15.278  0.00  0.00    +0.186 HD
ATOM     26  H   UNL     1      29.364 -24.740 -13.542  0.00  0.00    +0.197 HD
ENDBRANCH  16  19
ENDBRANCH   4  16
TORSDOF 2
ENDMDL
MODEL 9
REMARK VINA RESULT:     -11.3      6.410      9.228
REMARK  Name = 6102777
REMARK  2 active torsions:
REMARK  status: ('A' for Active; 'I' for Inactive)
REMARK    1  A    between atoms: C_4  and  S_16
REMARK    2  A    between atoms: S_16  and  N_19
REMARK                            x       y       z     vdW  Elec       q    Type
REMARK                         _______ _______ _______ _____ _____    ______ ____
ROOT
ATOM      1  O   UNL     1      33.257 -15.871 -26.287  0.00  0.00    -0.453 OA
ATOM      2  O   UNL     1      34.025 -13.584 -22.982  0.00  0.00    -0.286 OA
ATOM      3  C   UNL     1      33.969 -15.727 -23.955  0.00  0.00    +0.075 A 
ATOM      4  C   UNL     1      34.561 -17.771 -22.817  0.00  0.00    +0.126 C 
ATOM      5  C   UNL     1      33.689 -16.446 -25.117  0.00  0.00    +0.148 A 
ATOM      6  C   UNL     1      34.406 -16.385 -22.802  0.00  0.00    +0.026 C 
ATOM      7  C   UNL     1      33.334 -13.670 -25.232  0.00  0.00    +0.074 A 
ATOM      8  C   UNL     1      33.796 -14.267 -23.969  0.00  0.00    +0.201 A 
ATOM      9  C   UNL     1      33.090 -14.508 -26.319  0.00  0.00    +0.148 A 
ATOM     10  C   UNL     1      34.281 -18.495 -23.976  0.00  0.00    +0.023 C 
ATOM     11  C   UNL     1      33.846 -17.834 -25.125  0.00  0.00    +0.039 C 
ATOM     12  C   UNL     1      33.141 -12.291 -25.341  0.00  0.00    +0.006 C 
ATOM     13  C   UNL     1      32.651 -13.963 -27.527  0.00  0.00    +0.038 C 
ATOM     14  C   UNL     1      32.701 -11.752 -26.551  0.00  0.00    +0.000 C 
ATOM     15  C   UNL     1      32.457 -12.586 -27.642  0.00  0.00    +0.003 C 
ENDROOT
BRANCH   4  16
ATOM     16  S   UNL     1      35.106 -18.603 -21.381  0.00  0.00    +0.081 S 
ATOM     17  O   UNL     1      36.197 -19.492 -21.758  0.00  0.00    -0.149 OA
ATOM     18  O   UNL     1      35.317 -17.611 -20.336  0.00  0.00    -0.149 OA
BRANCH  16  19
ATOM     19  N   UNL     1      33.731 -19.539 -20.995  0.00  0.00    -0.156 N 
ATOM     20  N   UNL     1      32.638 -21.412 -19.951  0.00  0.00    -0.094 NA
ATOM     21  N   UNL     1      34.883 -21.238 -19.698  0.00  0.00    -0.071 NA
ATOM     22  N   UNL     1      33.184 -22.394 -19.219  0.00  0.00    -0.139 N 
ATOM     23  N   UNL     1      34.511 -22.332 -19.045  0.00  0.00    -0.020 NA
ATOM     24  C   UNL     1      33.741 -20.723 -20.220  0.00  0.00    +0.145 C 
ATOM     25  H   UNL     1      32.861 -19.230 -21.339  0.00  0.00    +0.186 HD
ATOM     26  H   UNL     1      32.641 -23.119 -18.833  0.00  0.00    +0.197 HD
ENDBRANCH  16  19
ENDBRANCH   4  16
TORSDOF 2
ENDMDL
