MODEL 1
REMARK VINA RESULT:     -13.2      0.000      0.000
REMARK  Name = 448407
REMARK  4 active torsions:
REMARK  status: ('A' for Active; 'I' for Inactive)
REMARK    1  A    between atoms: C_1  and  N_8
REMARK    2  A    between atoms: C_2  and  C_23
REMARK    3  A    between atoms: N_22  and  C_25
REMARK    4  A    between atoms: C_25  and  C_28
REMARK                            x       y       z     vdW  Elec       q    Type
REMARK                         _______ _______ _______ _____ _____    ______ ____
ROOT
ATOM      1  C   UNL     1      33.993 -22.010 -18.703  0.00  0.00    +0.090 C 
ATOM      2  C   UNL     1      34.410 -20.516 -20.579  0.00  0.00    +0.055 C 
ATOM      3  C   UNL     1      33.534 -21.296 -19.824  0.00  0.00    +0.023 C 
ATOM      4  C   UNL     1      35.353 -21.919 -18.359  0.00  0.00    +0.018 C 
ATOM      5  C   UNL     1      35.756 -20.436 -20.224  0.00  0.00    +0.005 C 
ATOM      6  C   UNL     1      36.228 -21.138 -19.114  0.00  0.00    +0.002 C 
ENDROOT
BRANCH   1   8
ATOM      7  O   UNL     1      29.063 -22.375 -17.105  0.00  0.00    -0.207 OA
ATOM      8  N   UNL     1      33.120 -22.787 -17.950  0.00  0.00    -0.137 N 
ATOM      9  N   UNL     1      33.451 -23.425 -16.796  0.00  0.00    -0.215 N 
ATOM     10  N   UNL     1      31.761 -22.487 -17.994  0.00  0.00    -0.143 NA
ATOM     11  N   UNL     1      32.006 -24.063 -14.911  0.00  0.00    -0.309 NA
ATOM     12  N   UNL     1      29.680 -23.468 -15.156  0.00  0.00    -0.251 NA
ATOM     13  N   UNL     1      30.409 -24.559 -13.252  0.00  0.00    -0.283 N 
ATOM     14  C   UNL     1      32.329 -23.566 -16.048  0.00  0.00    +0.243 C 
ATOM     15  C   UNL     1      31.286 -22.944 -16.877  0.00  0.00    +0.241 C 
ATOM     16  C   UNL     1      29.901 -22.903 -16.389  0.00  0.00    +0.239 C 
ATOM     17  C   UNL     1      30.678 -24.004 -14.482  0.00  0.00    +0.208 C 
ATOM     18  H   UNL     1      34.352 -23.732 -16.546  0.00  0.00    +0.175 HD
ATOM     19  H   UNL     1      31.135 -24.967 -12.725  0.00  0.00    +0.156 HD
ATOM     20  H   UNL     1      29.491 -24.547 -12.897  0.00  0.00    +0.156 HD
ENDBRANCH   1   8
BRANCH   2  23
ATOM     21  O   UNL     1      32.702 -19.565 -21.874  0.00  0.00    -0.270 OA
ATOM     22  N   UNL     1      34.875 -19.324 -22.650  0.00  0.00    -0.297 N 
ATOM     23  C   UNL     1      33.919 -19.782 -21.735  0.00  0.00    +0.246 C 
ATOM     24  H   UNL     1      35.821 -19.532 -22.478  0.00  0.00    +0.150 HD
BRANCH  22  25
ATOM     25  C   UNL     1      34.546 -18.563 -23.833  0.00  0.00    +0.117 C 
BRANCH  25  28
ATOM     26 CL   UNL     1      33.132 -13.831 -25.460  0.00  0.00    -0.082 Cl
ATOM     27 CL   UNL     1      34.818 -14.665 -20.403  0.00  0.00    -0.082 Cl
ATOM     28  C   UNL     1      34.353 -17.105 -23.528  0.00  0.00    -0.001 C 
ATOM     29  C   UNL     1      34.642 -16.624 -22.256  0.00  0.00    +0.009 C 
ATOM     30  C   UNL     1      33.888 -16.251 -24.521  0.00  0.00    +0.009 C 
ATOM     31  C   UNL     1      33.708 -14.897 -24.239  0.00  0.00    +0.058 C 
ATOM     32  C   UNL     1      34.463 -15.271 -21.973  0.00  0.00    +0.058 C 
ATOM     33  C   UNL     1      33.996 -14.406 -22.964  0.00  0.00    +0.023 C 
ENDBRANCH  25  28
ENDBRANCH  22  25
ENDBRANCH   2  23
TORSDOF 4
ENDMDL
MODEL 2
REMARK VINA RESULT:     -12.8      3.109      3.916
REMARK  Name = 448407
REMARK  4 active torsions:
REMARK  status: ('A' for Active; 'I' for Inactive)
REMARK    1  A    between atoms: C_1  and  N_8
REMARK    2  A    between atoms: C_2  and  C_23
REMARK    3  A    between atoms: N_22  and  C_25
REMARK    4  A    between atoms: C_25  and  C_28
REMARK                            x       y       z     vdW  Elec       q    Type
REMARK                         _______ _______ _______ _____ _____    ______ ____
ROOT
ATOM      1  C   UNL     1      34.682 -22.456 -17.788  0.00  0.00    +0.090 C 
ATOM      2  C   UNL     1      34.925 -20.919 -19.660  0.00  0.00    +0.055 C 
ATOM      3  C   UNL     1      35.469 -21.585 -18.562  0.00  0.00    +0.023 C 
ATOM      4  C   UNL     1      33.336 -22.642 -18.147  0.00  0.00    +0.018 C 
ATOM      5  C   UNL     1      33.587 -21.115 -20.002  0.00  0.00    +0.005 C 
ATOM      6  C   UNL     1      32.793 -21.976 -19.245  0.00  0.00    +0.002 C 
ENDROOT
BRANCH   1   8
ATOM      7  O   UNL     1      33.570 -24.278 -13.051  0.00  0.00    -0.207 OA
ATOM      8  N   UNL     1      35.224 -23.121 -16.694  0.00  0.00    -0.137 N 
ATOM      9  N   UNL     1      36.493 -22.953 -16.238  0.00  0.00    -0.215 N 
ATOM     10  N   UNL     1      34.366 -23.528 -15.675  0.00  0.00    -0.143 NA
ATOM     11  N   UNL     1      37.375 -23.271 -13.964  0.00  0.00    -0.309 NA
ATOM     12  N   UNL     1      35.751 -23.978 -12.325  0.00  0.00    -0.251 NA
ATOM     13  N   UNL     1      37.956 -23.648 -11.712  0.00  0.00    -0.283 N 
ATOM     14  C   UNL     1      36.514 -23.242 -14.913  0.00  0.00    +0.243 C 
ATOM     15  C   UNL     1      35.118 -23.603 -14.621  0.00  0.00    +0.241 C 
ATOM     16  C   UNL     1      34.739 -23.986 -13.255  0.00  0.00    +0.239 C 
ATOM     17  C   UNL     1      36.975 -23.640 -12.677  0.00  0.00    +0.208 C 
ATOM     18  H   UNL     1      37.266 -22.669 -16.777  0.00  0.00    +0.175 HD
ATOM     19  H   UNL     1      38.880 -23.399 -11.946  0.00  0.00    +0.156 HD
ATOM     20  H   UNL     1      37.734 -23.900 -10.786  0.00  0.00    +0.156 HD
ENDBRANCH   1   8
BRANCH   2  23
ATOM     21  O   UNL     1      36.897 -19.718 -20.067  0.00  0.00    -0.270 OA
ATOM     22  N   UNL     1      35.213 -19.552 -21.653  0.00  0.00    -0.297 N 
ATOM     23  C   UNL     1      35.754 -20.023 -20.451  0.00  0.00    +0.246 C 
ATOM     24  H   UNL     1      34.302 -19.834 -21.895  0.00  0.00    +0.150 HD
BRANCH  22  25
ATOM     25  C   UNL     1      35.921 -18.675 -22.557  0.00  0.00    +0.117 C 
BRANCH  25  28
ATOM     26 CL   UNL     1      32.337 -18.414 -26.316  0.00  0.00    -0.082 Cl
ATOM     27 CL   UNL     1      33.947 -13.995 -23.670  0.00  0.00    -0.082 Cl
ATOM     28  C   UNL     1      34.982 -17.840 -23.380  0.00  0.00    -0.001 C 
ATOM     29  C   UNL     1      34.912 -16.468 -23.164  0.00  0.00    +0.009 C 
ATOM     30  C   UNL     1      34.192 -18.447 -24.349  0.00  0.00    +0.009 C 
ATOM     31  C   UNL     1      33.320 -17.672 -25.114  0.00  0.00    +0.058 C 
ATOM     32  C   UNL     1      34.041 -15.693 -23.928  0.00  0.00    +0.058 C 
ATOM     33  C   UNL     1      33.243 -16.295 -24.903  0.00  0.00    +0.023 C 
ENDBRANCH  25  28
ENDBRANCH  22  25
ENDBRANCH   2  23
TORSDOF 4
ENDMDL
MODEL 3
REMARK VINA RESULT:     -12.8      3.106      4.062
REMARK  Name = 448407
REMARK  4 active torsions:
REMARK  status: ('A' for Active; 'I' for Inactive)
REMARK    1  A    between atoms: C_1  and  N_8
REMARK    2  A    between atoms: C_2  and  C_23
REMARK    3  A    between atoms: N_22  and  C_25
REMARK    4  A    between atoms: C_25  and  C_28
REMARK                            x       y       z     vdW  Elec       q    Type
REMARK                         _______ _______ _______ _____ _____    ______ ____
ROOT
ATOM      1  C   UNL     1      34.681 -22.445 -17.793  0.00  0.00    +0.090 C 
ATOM      2  C   UNL     1      34.928 -20.907 -19.664  0.00  0.00    +0.055 C 
ATOM      3  C   UNL     1      35.469 -21.573 -18.564  0.00  0.00    +0.023 C 
ATOM      4  C   UNL     1      33.336 -22.632 -18.157  0.00  0.00    +0.018 C 
ATOM      5  C   UNL     1      33.592 -21.104 -20.010  0.00  0.00    +0.005 C 
ATOM      6  C   UNL     1      32.796 -21.966 -19.256  0.00  0.00    +0.002 C 
ENDROOT
BRANCH   1   8
ATOM      7  O   UNL     1      33.562 -24.252 -13.052  0.00  0.00    -0.207 OA
ATOM      8  N   UNL     1      35.220 -23.110 -16.698  0.00  0.00    -0.137 N 
ATOM      9  N   UNL     1      36.490 -22.947 -16.242  0.00  0.00    -0.215 N 
ATOM     10  N   UNL     1      34.361 -23.511 -15.678  0.00  0.00    -0.143 NA
ATOM     11  N   UNL     1      37.371 -23.263 -13.967  0.00  0.00    -0.309 NA
ATOM     12  N   UNL     1      35.744 -23.960 -12.327  0.00  0.00    -0.251 NA
ATOM     13  N   UNL     1      37.951 -23.638 -11.715  0.00  0.00    -0.283 N 
ATOM     14  C   UNL     1      36.510 -23.233 -14.916  0.00  0.00    +0.243 C 
ATOM     15  C   UNL     1      35.112 -23.587 -14.624  0.00  0.00    +0.241 C 
ATOM     16  C   UNL     1      34.732 -23.966 -13.257  0.00  0.00    +0.239 C 
ATOM     17  C   UNL     1      36.970 -23.628 -12.680  0.00  0.00    +0.208 C 
ATOM     18  H   UNL     1      37.265 -22.667 -16.782  0.00  0.00    +0.175 HD
ATOM     19  H   UNL     1      38.876 -23.394 -11.949  0.00  0.00    +0.156 HD
ATOM     20  H   UNL     1      37.728 -23.887 -10.789  0.00  0.00    +0.156 HD
ENDBRANCH   1   8
BRANCH   2  23
ATOM     21  O   UNL     1      36.915 -19.735 -20.085  0.00  0.00    -0.270 OA
ATOM     22  N   UNL     1      35.202 -19.500 -21.631  0.00  0.00    -0.297 N 
ATOM     23  C   UNL     1      35.758 -20.009 -20.451  0.00  0.00    +0.246 C 
ATOM     24  H   UNL     1      34.281 -19.757 -21.859  0.00  0.00    +0.150 HD
BRANCH  22  25
ATOM     25  C   UNL     1      35.909 -18.616 -22.529  0.00  0.00    +0.117 C 
BRANCH  25  28
ATOM     26 CL   UNL     1      33.914 -13.970 -23.748  0.00  0.00    -0.082 Cl
ATOM     27 CL   UNL     1      32.341 -18.452 -26.308  0.00  0.00    -0.082 Cl
ATOM     28  C   UNL     1      34.969 -17.804 -23.373  0.00  0.00    -0.001 C 
ATOM     29  C   UNL     1      34.187 -18.435 -24.334  0.00  0.00    +0.009 C 
ATOM     30  C   UNL     1      34.891 -16.429 -23.186  0.00  0.00    +0.009 C 
ATOM     31  C   UNL     1      34.018 -15.674 -23.970  0.00  0.00    +0.058 C 
ATOM     32  C   UNL     1      33.314 -17.681 -25.117  0.00  0.00    +0.058 C 
ATOM     33  C   UNL     1      33.230 -16.300 -24.937  0.00  0.00    +0.023 C 
ENDBRANCH  25  28
ENDBRANCH  22  25
ENDBRANCH   2  23
TORSDOF 4
ENDMDL
MODEL 4
REMARK VINA RESULT:     -12.6      4.157      9.821
REMARK  Name = 448407
REMARK  4 active torsions:
REMARK  status: ('A' for Active; 'I' for Inactive)
REMARK    1  A    between atoms: C_1  and  N_8
REMARK    2  A    between atoms: C_2  and  C_23
REMARK    3  A    between atoms: N_22  and  C_25
REMARK    4  A    between atoms: C_25  and  C_28
REMARK                            x       y       z     vdW  Elec       q    Type
REMARK                         _______ _______ _______ _____ _____    ______ ____
ROOT
ATOM      1  C   UNL     1      35.428 -19.182 -21.408  0.00  0.00    +0.090 C 
ATOM      2  C   UNL     1      34.432 -20.888 -19.985  0.00  0.00    +0.055 C 
ATOM      3  C   UNL     1      34.303 -19.892 -20.953  0.00  0.00    +0.023 C 
ATOM      4  C   UNL     1      36.685 -19.500 -20.866  0.00  0.00    +0.018 C 
ATOM      5  C   UNL     1      35.687 -21.191 -19.459  0.00  0.00    +0.005 C 
ATOM      6  C   UNL     1      36.814 -20.496 -19.900  0.00  0.00    +0.002 C 
ENDROOT
BRANCH   1   8
ATOM      7  O   UNL     1      34.427 -14.128 -22.079  0.00  0.00    -0.207 OA
ATOM      8  N   UNL     1      35.299 -18.190 -22.373  0.00  0.00    -0.137 N 
ATOM      9  N   UNL     1      34.752 -18.374 -23.604  0.00  0.00    -0.215 N 
ATOM     10  N   UNL     1      35.173 -16.869 -21.951  0.00  0.00    -0.143 NA
ATOM     11  N   UNL     1      33.641 -16.736 -25.063  0.00  0.00    -0.309 NA
ATOM     12  N   UNL     1      33.510 -14.495 -24.176  0.00  0.00    -0.251 NA
ATOM     13  N   UNL     1      32.627 -14.977 -26.258  0.00  0.00    -0.283 N 
ATOM     14  C   UNL     1      34.250 -17.188 -24.031  0.00  0.00    +0.243 C 
ATOM     15  C   UNL     1      34.556 -16.270 -22.923  0.00  0.00    +0.241 C 
ATOM     16  C   UNL     1      34.157 -14.860 -23.020  0.00  0.00    +0.239 C 
ATOM     17  C   UNL     1      33.278 -15.388 -25.118  0.00  0.00    +0.208 C 
ATOM     18  H   UNL     1      34.724 -19.223 -24.100  0.00  0.00    +0.175 HD
ATOM     19  H   UNL     1      32.440 -15.622 -26.979  0.00  0.00    +0.156 HD
ATOM     20  H   UNL     1      32.346 -14.038 -26.354  0.00  0.00    +0.156 HD
ENDBRANCH   1   8
BRANCH   2  23
ATOM     21  O   UNL     1      32.231 -21.659 -20.227  0.00  0.00    -0.270 OA
ATOM     22  N   UNL     1      33.355 -22.264 -18.290  0.00  0.00    -0.297 N 
ATOM     23  C   UNL     1      33.258 -21.614 -19.527  0.00  0.00    +0.246 C 
ATOM     24  H   UNL     1      34.198 -22.186 -17.789  0.00  0.00    +0.150 HD
BRANCH  22  25
ATOM     25  C   UNL     1      32.284 -23.042 -17.712  0.00  0.00    +0.117 C 
BRANCH  25  28
ATOM     26 CL   UNL     1      30.475 -24.527 -13.068  0.00  0.00    -0.082 Cl
ATOM     27 CL   UNL     1      35.748 -23.730 -13.895  0.00  0.00    -0.082 Cl
ATOM     28  C   UNL     1      32.564 -23.409 -16.283  0.00  0.00    -0.001 C 
ATOM     29  C   UNL     1      33.872 -23.399 -15.814  0.00  0.00    +0.009 C 
ATOM     30  C   UNL     1      31.511 -23.755 -15.443  0.00  0.00    +0.009 C 
ATOM     31  C   UNL     1      31.770 -24.096 -14.116  0.00  0.00    +0.058 C 
ATOM     32  C   UNL     1      34.132 -23.740 -14.487  0.00  0.00    +0.058 C 
ATOM     33  C   UNL     1      33.081 -24.089 -13.637  0.00  0.00    +0.023 C 
ENDBRANCH  25  28
ENDBRANCH  22  25
ENDBRANCH   2  23
TORSDOF 4
ENDMDL
MODEL 5
REMARK VINA RESULT:     -12.3      4.952     10.044
REMARK  Name = 448407
REMARK  4 active torsions:
REMARK  status: ('A' for Active; 'I' for Inactive)
REMARK    1  A    between atoms: C_1  and  N_8
REMARK    2  A    between atoms: C_2  and  C_23
REMARK    3  A    between atoms: N_22  and  C_25
REMARK    4  A    between atoms: C_25  and  C_28
REMARK                            x       y       z     vdW  Elec       q    Type
REMARK                         _______ _______ _______ _____ _____    ______ ____
ROOT
ATOM      1  C   UNL     1      33.943 -19.544 -21.690  0.00  0.00    +0.090 C 
ATOM      2  C   UNL     1      34.832 -20.923 -19.892  0.00  0.00    +0.055 C 
ATOM      3  C   UNL     1      35.035 -20.074 -20.980  0.00  0.00    +0.023 C 
ATOM      4  C   UNL     1      32.644 -19.888 -21.279  0.00  0.00    +0.018 C 
ATOM      5  C   UNL     1      33.536 -21.254 -19.497  0.00  0.00    +0.005 C 
ATOM      6  C   UNL     1      32.442 -20.737 -20.191  0.00  0.00    +0.002 C 
ENDROOT
BRANCH   1   8
ATOM      7  O   UNL     1      34.671 -14.572 -23.011  0.00  0.00    -0.207 OA
ATOM      8  N   UNL     1      34.145 -18.696 -22.774  0.00  0.00    -0.137 N 
ATOM      9  N   UNL     1      33.559 -18.845 -23.991  0.00  0.00    -0.215 N 
ATOM     10  N   UNL     1      34.466 -17.365 -22.522  0.00  0.00    -0.143 NA
ATOM     11  N   UNL     1      33.044 -17.132 -25.680  0.00  0.00    -0.309 NA
ATOM     12  N   UNL     1      33.670 -14.880 -25.079  0.00  0.00    -0.251 NA
ATOM     13  N   UNL     1      32.663 -15.305 -27.117  0.00  0.00    -0.283 N 
ATOM     14  C   UNL     1      33.476 -17.625 -24.578  0.00  0.00    +0.243 C 
ATOM     15  C   UNL     1      34.076 -16.726 -23.581  0.00  0.00    +0.241 C 
ATOM     16  C   UNL     1      34.167 -15.287 -23.865  0.00  0.00    +0.239 C 
ATOM     17  C   UNL     1      33.148 -15.759 -25.912  0.00  0.00    +0.208 C 
ATOM     18  H   UNL     1      33.248 -19.693 -24.381  0.00  0.00    +0.175 HD
ATOM     19  H   UNL     1      32.267 -15.938 -27.760  0.00  0.00    +0.156 HD
ATOM     20  H   UNL     1      32.709 -14.346 -27.337  0.00  0.00    +0.156 HD
ENDBRANCH   1   8
BRANCH   2  23
ATOM     21  O   UNL     1      36.991 -21.830 -19.778  0.00  0.00    -0.270 OA
ATOM     22  N   UNL     1      35.869 -21.517 -17.772  0.00  0.00    -0.297 N 
ATOM     23  C   UNL     1      35.972 -21.461 -19.167  0.00  0.00    +0.246 C 
ATOM     24  H   UNL     1      35.034 -21.209 -17.354  0.00  0.00    +0.150 HD
BRANCH  22  25
ATOM     25  C   UNL     1      36.925 -22.004 -16.913  0.00  0.00    +0.117 C 
BRANCH  25  28
ATOM     26 CL   UNL     1      32.876 -24.176 -14.477  0.00  0.00    -0.082 Cl
ATOM     27 CL   UNL     1      37.945 -25.617 -13.316  0.00  0.00    -0.082 Cl
ATOM     28  C   UNL     1      36.413 -22.981 -15.894  0.00  0.00    -0.001 C 
ATOM     29  C   UNL     1      37.314 -23.752 -15.167  0.00  0.00    +0.009 C 
ATOM     30  C   UNL     1      35.045 -23.105 -15.687  0.00  0.00    +0.009 C 
ATOM     31  C   UNL     1      34.569 -24.013 -14.740  0.00  0.00    +0.058 C 
ATOM     32  C   UNL     1      36.839 -24.659 -14.221  0.00  0.00    +0.058 C 
ATOM     33  C   UNL     1      35.466 -24.791 -14.007  0.00  0.00    +0.023 C 
ENDBRANCH  25  28
ENDBRANCH  22  25
ENDBRANCH   2  23
TORSDOF 4
ENDMDL
MODEL 6
REMARK VINA RESULT:     -11.7      3.083      4.271
REMARK  Name = 448407
REMARK  4 active torsions:
REMARK  status: ('A' for Active; 'I' for Inactive)
REMARK    1  A    between atoms: C_1  and  N_8
REMARK    2  A    between atoms: C_2  and  C_23
REMARK    3  A    between atoms: N_22  and  C_25
REMARK    4  A    between atoms: C_25  and  C_28
REMARK                            x       y       z     vdW  Elec       q    Type
REMARK                         _______ _______ _______ _____ _____    ______ ____
ROOT
ATOM      1  C   UNL     1      34.308 -22.193 -17.866  0.00  0.00    +0.090 C 
ATOM      2  C   UNL     1      34.559 -20.910 -19.919  0.00  0.00    +0.055 C 
ATOM      3  C   UNL     1      35.102 -21.440 -18.749  0.00  0.00    +0.023 C 
ATOM      4  C   UNL     1      32.955 -22.399 -18.190  0.00  0.00    +0.018 C 
ATOM      5  C   UNL     1      33.216 -21.124 -20.226  0.00  0.00    +0.005 C 
ATOM      6  C   UNL     1      32.414 -21.869 -19.361  0.00  0.00    +0.002 C 
ENDROOT
BRANCH   1   8
ATOM      7  O   UNL     1      38.762 -23.665 -15.634  0.00  0.00    -0.207 OA
ATOM      8  N   UNL     1      34.848 -22.723 -16.700  0.00  0.00    -0.137 N 
ATOM      9  N   UNL     1      34.249 -23.670 -15.931  0.00  0.00    -0.215 N 
ATOM     10  N   UNL     1      36.234 -22.764 -16.572  0.00  0.00    -0.143 NA
ATOM     11  N   UNL     1      35.281 -25.332 -14.440  0.00  0.00    -0.309 NA
ATOM     12  N   UNL     1      37.691 -25.261 -14.338  0.00  0.00    -0.251 NA
ATOM     13  N   UNL     1      36.517 -26.814 -13.089  0.00  0.00    -0.283 N 
ATOM     14  C   UNL     1      35.214 -24.362 -15.275  0.00  0.00    +0.243 C 
ATOM     15  C   UNL     1      36.459 -23.727 -15.733  0.00  0.00    +0.241 C 
ATOM     16  C   UNL     1      37.749 -24.216 -15.228  0.00  0.00    +0.239 C 
ATOM     17  C   UNL     1      36.527 -25.768 -13.984  0.00  0.00    +0.208 C 
ATOM     18  H   UNL     1      33.280 -23.828 -15.861  0.00  0.00    +0.175 HD
ATOM     19  H   UNL     1      35.663 -27.213 -12.806  0.00  0.00    +0.156 HD
ATOM     20  H   UNL     1      37.366 -27.164 -12.732  0.00  0.00    +0.156 HD
ENDBRANCH   1   8
BRANCH   2  23
ATOM     21  O   UNL     1      36.565 -19.848 -20.510  0.00  0.00    -0.270 OA
ATOM     22  N   UNL     1      34.830 -19.758 -22.046  0.00  0.00    -0.297 N 
ATOM     23  C   UNL     1      35.396 -20.135 -20.822  0.00  0.00    +0.246 C 
ATOM     24  H   UNL     1      33.899 -20.017 -22.228  0.00  0.00    +0.150 HD
BRANCH  22  25
ATOM     25  C   UNL     1      35.541 -19.007 -23.056  0.00  0.00    +0.117 C 
BRANCH  25  28
ATOM     26 CL   UNL     1      34.427 -14.400 -20.915  0.00  0.00    -0.082 Cl
ATOM     27 CL   UNL     1      33.411 -15.388 -26.122  0.00  0.00    -0.082 Cl
ATOM     28  C   UNL     1      34.992 -17.617 -23.213  0.00  0.00    -0.001 C 
ATOM     29  C   UNL     1      34.515 -17.202 -24.450  0.00  0.00    +0.009 C 
ATOM     30  C   UNL     1      34.968 -16.761 -22.118  0.00  0.00    +0.009 C 
ATOM     31  C   UNL     1      34.460 -15.470 -22.263  0.00  0.00    +0.058 C 
ATOM     32  C   UNL     1      34.005 -15.912 -24.596  0.00  0.00    +0.058 C 
ATOM     33  C   UNL     1      33.978 -15.045 -23.502  0.00  0.00    +0.023 C 
ENDBRANCH  25  28
ENDBRANCH  22  25
ENDBRANCH   2  23
TORSDOF 4
ENDMDL
MODEL 7
REMARK VINA RESULT:     -11.7      4.764      7.864
REMARK  Name = 448407
REMARK  4 active torsions:
REMARK  status: ('A' for Active; 'I' for Inactive)
REMARK    1  A    between atoms: C_1  and  N_8
REMARK    2  A    between atoms: C_2  and  C_23
REMARK    3  A    between atoms: N_22  and  C_25
REMARK    4  A    between atoms: C_25  and  C_28
REMARK                            x       y       z     vdW  Elec       q    Type
REMARK                         _______ _______ _______ _____ _____    ______ ____
ROOT
ATOM      1  C   UNL     1      33.126 -17.324 -25.654  0.00  0.00    +0.090 C 
ATOM      2  C   UNL     1      32.772 -15.113 -26.609  0.00  0.00    +0.055 C 
ATOM      3  C   UNL     1      33.396 -15.944 -25.679  0.00  0.00    +0.023 C 
ATOM      4  C   UNL     1      32.214 -17.846 -26.587  0.00  0.00    +0.018 C 
ATOM      5  C   UNL     1      31.870 -15.648 -27.528  0.00  0.00    +0.005 C 
ATOM      6  C   UNL     1      31.591 -17.015 -27.517  0.00  0.00    +0.002 C 
ENDROOT
BRANCH   1   8
ATOM      7  O   UNL     1      32.337 -20.022 -21.285  0.00  0.00    -0.207 OA
ATOM      8  N   UNL     1      33.749 -18.152 -24.728  0.00  0.00    -0.137 N 
ATOM      9  N   UNL     1      35.036 -18.017 -24.310  0.00  0.00    -0.215 N 
ATOM     10  N   UNL     1      32.963 -18.774 -23.761  0.00  0.00    -0.143 NA
ATOM     11  N   UNL     1      36.051 -18.705 -22.178  0.00  0.00    -0.309 NA
ATOM     12  N   UNL     1      34.544 -19.767 -20.621  0.00  0.00    -0.251 NA
ATOM     13  N   UNL     1      36.767 -19.459 -20.064  0.00  0.00    -0.283 N 
ATOM     14  C   UNL     1      35.139 -18.540 -23.063  0.00  0.00    +0.243 C 
ATOM     15  C   UNL     1      33.774 -19.008 -22.776  0.00  0.00    +0.241 C 
ATOM     16  C   UNL     1      33.483 -19.649 -21.487  0.00  0.00    +0.239 C 
ATOM     17  C   UNL     1      35.735 -19.318 -20.964  0.00  0.00    +0.208 C 
ATOM     18  H   UNL     1      35.768 -17.607 -24.824  0.00  0.00    +0.175 HD
ATOM     19  H   UNL     1      37.668 -19.133 -20.293  0.00  0.00    +0.156 HD
ATOM     20  H   UNL     1      36.605 -19.885 -19.191  0.00  0.00    +0.156 HD
ENDBRANCH   1   8
BRANCH   2  23
ATOM     21  O   UNL     1      33.169 -13.076 -27.701  0.00  0.00    -0.270 OA
ATOM     22  N   UNL     1      33.192 -13.054 -25.381  0.00  0.00    -0.297 N 
ATOM     23  C   UNL     1      33.063 -13.688 -26.623  0.00  0.00    +0.246 C 
ATOM     24  H   UNL     1      33.097 -13.600 -24.568  0.00  0.00    +0.150 HD
BRANCH  22  25
ATOM     25  C   UNL     1      33.459 -11.642 -25.231  0.00  0.00    +0.117 C 
BRANCH  25  28
ATOM     26 CL   UNL     1      31.922  -7.486 -22.510  0.00  0.00    -0.082 Cl
ATOM     27 CL   UNL     1      31.307 -12.484 -20.572  0.00  0.00    -0.082 Cl
ATOM     28  C   UNL     1      32.836 -11.082 -23.984  0.00  0.00    -0.001 C 
ATOM     29  C   UNL     1      32.412 -11.945 -22.980  0.00  0.00    +0.009 C 
ATOM     30  C   UNL     1      32.689  -9.707 -23.847  0.00  0.00    +0.009 C 
ATOM     31  C   UNL     1      32.110  -9.187 -22.689  0.00  0.00    +0.058 C 
ATOM     32  C   UNL     1      31.834 -11.426 -21.822  0.00  0.00    +0.058 C 
ATOM     33  C   UNL     1      31.682 -10.046 -21.676  0.00  0.00    +0.023 C 
ENDBRANCH  25  28
ENDBRANCH  22  25
ENDBRANCH   2  23
TORSDOF 4
ENDMDL
MODEL 8
REMARK VINA RESULT:     -11.7      3.847      5.735
REMARK  Name = 448407
REMARK  4 active torsions:
REMARK  status: ('A' for Active; 'I' for Inactive)
REMARK    1  A    between atoms: C_1  and  N_8
REMARK    2  A    between atoms: C_2  and  C_23
REMARK    3  A    between atoms: N_22  and  C_25
REMARK    4  A    between atoms: C_25  and  C_28
REMARK                            x       y       z     vdW  Elec       q    Type
REMARK                         _______ _______ _______ _____ _____    ______ ____
ROOT
ATOM      1  C   UNL     1      33.698 -23.778 -13.714  0.00  0.00    +0.090 C 
ATOM      2  C   UNL     1      35.926 -23.472 -14.647  0.00  0.00    +0.055 C 
ATOM      3  C   UNL     1      34.540 -23.362 -14.761  0.00  0.00    +0.023 C 
ATOM      4  C   UNL     1      34.285 -24.305 -12.550  0.00  0.00    +0.018 C 
ATOM      5  C   UNL     1      36.491 -23.998 -13.486  0.00  0.00    +0.005 C 
ATOM      6  C   UNL     1      35.671 -24.415 -12.438  0.00  0.00    +0.002 C 
ENDROOT
BRANCH   1   8
ATOM      7  O   UNL     1      29.421 -26.334 -15.184  0.00  0.00    -0.207 OA
ATOM      8  N   UNL     1      32.317 -23.667 -13.826  0.00  0.00    -0.137 N 
ATOM      9  N   UNL     1      31.658 -22.533 -14.182  0.00  0.00    -0.215 N 
ATOM     10  N   UNL     1      31.586 -24.806 -14.156  0.00  0.00    -0.143 NA
ATOM     11  N   UNL     1      29.465 -22.295 -15.271  0.00  0.00    -0.309 NA
ATOM     12  N   UNL     1      28.339 -24.370 -15.770  0.00  0.00    -0.251 NA
ATOM     13  N   UNL     1      27.352 -22.349 -16.312  0.00  0.00    -0.283 N 
ATOM     14  C   UNL     1      30.480 -22.885 -14.755  0.00  0.00    +0.243 C 
ATOM     15  C   UNL     1      30.501 -24.355 -14.703  0.00  0.00    +0.241 C 
ATOM     16  C   UNL     1      29.366 -25.115 -15.243  0.00  0.00    +0.239 C 
ATOM     17  C   UNL     1      28.405 -23.053 -15.774  0.00  0.00    +0.208 C 
ATOM     18  H   UNL     1      31.981 -21.613 -14.048  0.00  0.00    +0.175 HD
ATOM     19  H   UNL     1      27.375 -21.365 -16.328  0.00  0.00    +0.156 HD
ATOM     20  H   UNL     1      26.577 -22.830 -16.682  0.00  0.00    +0.156 HD
ENDBRANCH   1   8
BRANCH   2  23
ATOM     21  O   UNL     1      38.006 -23.255 -15.707  0.00  0.00    -0.270 OA
ATOM     22  N   UNL     1      36.160 -22.390 -16.815  0.00  0.00    -0.297 N 
ATOM     23  C   UNL     1      36.782 -23.036 -15.739  0.00  0.00    +0.246 C 
ATOM     24  H   UNL     1      35.188 -22.249 -16.774  0.00  0.00    +0.150 HD
BRANCH  22  25
ATOM     25  C   UNL     1      36.871 -21.920 -17.981  0.00  0.00    +0.117 C 
BRANCH  25  28
ATOM     26 CL   UNL     1      36.245 -18.619 -21.950  0.00  0.00    -0.082 Cl
ATOM     27 CL   UNL     1      32.066 -21.335 -19.880  0.00  0.00    -0.082 Cl
ATOM     28  C   UNL     1      35.953 -21.263 -18.972  0.00  0.00    -0.001 C 
ATOM     29  C   UNL     1      34.598 -21.571 -18.963  0.00  0.00    +0.009 C 
ATOM     30  C   UNL     1      36.469 -20.355 -19.889  0.00  0.00    +0.009 C 
ATOM     31  C   UNL     1      35.617 -19.745 -20.810  0.00  0.00    +0.058 C 
ATOM     32  C   UNL     1      33.746 -20.962 -19.883  0.00  0.00    +0.058 C 
ATOM     33  C   UNL     1      34.255 -20.049 -20.808  0.00  0.00    +0.023 C 
ENDBRANCH  25  28
ENDBRANCH  22  25
ENDBRANCH   2  23
TORSDOF 4
ENDMDL
MODEL 9
REMARK VINA RESULT:     -11.6      3.365      5.219
REMARK  Name = 448407
REMARK  4 active torsions:
REMARK  status: ('A' for Active; 'I' for Inactive)
REMARK    1  A    between atoms: C_1  and  N_8
REMARK    2  A    between atoms: C_2  and  C_23
REMARK    3  A    between atoms: N_22  and  C_25
REMARK    4  A    between atoms: C_25  and  C_28
REMARK                            x       y       z     vdW  Elec       q    Type
REMARK                         _______ _______ _______ _____ _____    ______ ____
ROOT
ATOM      1  C   UNL     1      33.096 -23.555 -14.775  0.00  0.00    +0.090 C 
ATOM      2  C   UNL     1      35.401 -23.239 -15.492  0.00  0.00    +0.055 C 
ATOM      3  C   UNL     1      34.037 -22.994 -15.656  0.00  0.00    +0.023 C 
ATOM      4  C   UNL     1      33.559 -24.366 -13.726  0.00  0.00    +0.018 C 
ATOM      5  C   UNL     1      35.843 -24.047 -14.445  0.00  0.00    +0.005 C 
ATOM      6  C   UNL     1      34.922 -24.611 -13.562  0.00  0.00    +0.002 C 
ENDROOT
BRANCH   1   8
ATOM      7  O   UNL     1      28.406 -25.779 -14.548  0.00  0.00    -0.207 OA
ATOM      8  N   UNL     1      31.737 -23.310 -14.938  0.00  0.00    -0.137 N 
ATOM      9  N   UNL     1      31.206 -22.487 -15.881  0.00  0.00    -0.215 N 
ATOM     10  N   UNL     1      30.836 -24.303 -14.563  0.00  0.00    -0.143 NA
ATOM     11  N   UNL     1      28.979 -22.561 -16.923  0.00  0.00    -0.309 NA
ATOM     12  N   UNL     1      27.548 -24.346 -16.156  0.00  0.00    -0.251 NA
ATOM     13  N   UNL     1      26.797 -22.858 -17.758  0.00  0.00    -0.283 N 
ATOM     14  C   UNL     1      29.947 -22.908 -16.158  0.00  0.00    +0.243 C 
ATOM     15  C   UNL     1      29.777 -24.074 -15.276  0.00  0.00    +0.241 C 
ATOM     16  C   UNL     1      28.509 -24.815 -15.292  0.00  0.00    +0.239 C 
ATOM     17  C   UNL     1      27.789 -23.292 -16.909  0.00  0.00    +0.208 C 
ATOM     18  H   UNL     1      31.659 -21.717 -16.295  0.00  0.00    +0.175 HD
ATOM     19  H   UNL     1      26.948 -22.073 -18.334  0.00  0.00    +0.156 HD
ATOM     20  H   UNL     1      25.935 -23.333 -17.792  0.00  0.00    +0.156 HD
ENDBRANCH   1   8
BRANCH   2  23
ATOM     21  O   UNL     1      37.573 -22.629 -16.130  0.00  0.00    -0.270 OA
ATOM     22  N   UNL     1      35.859 -22.139 -17.614  0.00  0.00    -0.297 N 
ATOM     23  C   UNL     1      36.361 -22.650 -16.411  0.00  0.00    +0.246 C 
ATOM     24  H   UNL     1      34.889 -22.187 -17.771  0.00  0.00    +0.150 HD
BRANCH  22  25
ATOM     25  C   UNL     1      36.689 -21.544 -18.636  0.00  0.00    +0.117 C 
BRANCH  25  28
ATOM     26 CL   UNL     1      32.046 -20.493 -20.728  0.00  0.00    -0.082 Cl
ATOM     27 CL   UNL     1      36.533 -18.092 -22.521  0.00  0.00    -0.082 Cl
ATOM     28  C   UNL     1      35.879 -20.783 -19.646  0.00  0.00    -0.001 C 
ATOM     29  C   UNL     1      36.512 -19.897 -20.510  0.00  0.00    +0.009 C 
ATOM     30  C   UNL     1      34.503 -20.973 -19.707  0.00  0.00    +0.009 C 
ATOM     31  C   UNL     1      33.750 -20.267 -20.644  0.00  0.00    +0.058 C 
ATOM     32  C   UNL     1      35.759 -19.191 -21.447  0.00  0.00    +0.058 C 
ATOM     33  C   UNL     1      34.377 -19.375 -21.515  0.00  0.00    +0.023 C 
ENDBRANCH  25  28
ENDBRANCH  22  25
ENDBRANCH   2  23
TORSDOF 4
ENDMDL
