MODEL 1
REMARK VINA RESULT:     -13.2      0.000      0.000
REMARK  Name = 24767976
REMARK  5 active torsions:
REMARK  status: ('A' for Active; 'I' for Inactive)
REMARK    1  A    between atoms: C_1  and  N_9
REMARK    2  A    between atoms: C_2  and  O_19
REMARK    3  A    between atoms: C_10  and  C_14
REMARK    4  A    between atoms: O_19  and  C_27
REMARK    5  A    between atoms: C_31  and  C_33
REMARK                            x       y       z     vdW  Elec       q    Type
REMARK                         _______ _______ _______ _____ _____    ______ ____
ROOT
ATOM      1  C   UNL     1      34.699 -21.889 -18.658  0.00  0.00    +0.050 C 
ATOM      2  C   UNL     1      35.130 -20.503 -20.588  0.00  0.00    +0.148 C 
ATOM      3  C   UNL     1      33.327 -21.763 -18.873  0.00  0.00    -0.008 C 
ATOM      4  C   UNL     1      35.601 -21.259 -19.516  0.00  0.00    +0.052 C 
ATOM      5  C   UNL     1      32.856 -21.007 -19.946  0.00  0.00    +0.000 C 
ATOM      6  C   UNL     1      33.758 -20.377 -20.804  0.00  0.00    +0.037 C 
ATOM      7  C   UNL     1      32.338 -22.427 -17.969  0.00  0.00    +0.032 C 
ENDROOT
BRANCH   1   9
ATOM      8  O   UNL     1      36.850 -21.257 -16.666  0.00  0.00    -0.268 OA
ATOM      9  N   UNL     1      35.190 -22.643 -17.589  0.00  0.00    -0.279 N 
ATOM     10  C   UNL     1      36.202 -22.298 -16.685  0.00  0.00    +0.265 C 
ATOM     11  H   UNL     1      34.774 -23.526 -17.456  0.00  0.00    +0.155 HD
BRANCH  10  14
ATOM     12  N   UNL     1      35.632 -23.891 -14.797  0.00  0.00    -0.206 N 
ATOM     13  N   UNL     1      36.176 -24.802 -13.973  0.00  0.00    -0.182 NA
ATOM     14  C   UNL     1      36.523 -23.331 -15.665  0.00  0.00    +0.124 C 
ATOM     15  C   UNL     1      37.735 -23.916 -15.389  0.00  0.00    +0.037 C 
ATOM     16  C   UNL     1      37.461 -24.814 -14.339  0.00  0.00    +0.078 C 
ATOM     17  C   UNL     1      34.221 -23.599 -14.695  0.00  0.00    +0.140 C 
ATOM     18  C   UNL     1      38.408 -25.708 -13.654  0.00  0.00    +0.054 C 
ENDBRANCH  10  14
ENDBRANCH   1   9
BRANCH   2  19
ATOM     19  O   UNL     1      36.029 -19.874 -21.445  0.00  0.00    -0.435 OA
BRANCH  19  27
ATOM     20  N   UNL     1      33.936 -15.252 -23.092  0.00  0.00    -0.373 NA
ATOM     21  N   UNL     1      34.651 -17.341 -23.409  0.00  0.00    -0.173 N 
ATOM     22  N   UNL     1      35.171 -18.573 -23.149  0.00  0.00    -0.138 NA
ATOM     23  C   UNL     1      33.784 -15.608 -24.408  0.00  0.00    +0.187 C 
ATOM     24  C   UNL     1      34.220 -16.892 -24.630  0.00  0.00    +0.193 C 
ATOM     25  C   UNL     1      34.460 -16.309 -22.505  0.00  0.00    +0.204 C 
ATOM     26  C   UNL     1      34.840 -16.547 -21.163  0.00  0.00    +0.054 C 
ATOM     27  C   UNL     1      35.497 -18.724 -21.906  0.00  0.00    +0.245 C 
ATOM     28  C   UNL     1      35.360 -17.732 -20.819  0.00  0.00    +0.063 C 
ATOM     29  O   UNL     1      33.300 -16.014 -27.351  0.00  0.00    -0.275 OA
ATOM     30  N   UNL     1      33.261 -14.757 -25.353  0.00  0.00    -0.261 N 
ATOM     31  C   UNL     1      33.051 -14.990 -26.728  0.00  0.00    +0.227 C 
ATOM     32  H   UNL     1      32.997 -13.868 -25.026  0.00  0.00    +0.157 HD
BRANCH  31  33
ATOM     33  C   UNL     1      32.454 -13.835 -27.469  0.00  0.00    +0.077 C 
ATOM     34  C   UNL     1      33.312 -12.641 -27.773  0.00  0.00    +0.010 C 
ATOM     35  C   UNL     1      32.225 -12.542 -26.743  0.00  0.00    +0.010 C 
ENDBRANCH  31  33
ENDBRANCH  19  27
ENDBRANCH   2  19
TORSDOF 5
ENDMDL
MODEL 2
REMARK VINA RESULT:     -12.4      4.717     11.565
REMARK  Name = 24767976
REMARK  5 active torsions:
REMARK  status: ('A' for Active; 'I' for Inactive)
REMARK    1  A    between atoms: C_1  and  N_9
REMARK    2  A    between atoms: C_2  and  O_19
REMARK    3  A    between atoms: C_10  and  C_14
REMARK    4  A    between atoms: O_19  and  C_27
REMARK    5  A    between atoms: C_31  and  C_33
REMARK                            x       y       z     vdW  Elec       q    Type
REMARK                         _______ _______ _______ _____ _____    ______ ____
ROOT
ATOM      1  C   UNL     1      33.500 -11.197 -25.080  0.00  0.00    +0.050 C 
ATOM      2  C   UNL     1      33.075 -12.501 -27.068  0.00  0.00    +0.148 C 
ATOM      3  C   UNL     1      34.617 -10.629 -25.690  0.00  0.00    -0.008 C 
ATOM      4  C   UNL     1      32.728 -12.133 -25.769  0.00  0.00    +0.052 C 
ATOM      5  C   UNL     1      34.964 -10.997 -26.991  0.00  0.00    +0.000 C 
ATOM      6  C   UNL     1      34.193 -11.933 -27.680  0.00  0.00    +0.037 C 
ATOM      7  C   UNL     1      35.462  -9.625 -24.975  0.00  0.00    +0.032 C 
ENDROOT
BRANCH   1   9
ATOM      8  O   UNL     1      31.810  -8.925 -24.093  0.00  0.00    -0.268 OA
ATOM      9  N   UNL     1      33.136 -10.841 -23.779  0.00  0.00    -0.279 N 
ATOM     10  C   UNL     1      32.340  -9.764 -23.372  0.00  0.00    +0.265 C 
ATOM     11  H   UNL     1      33.482 -11.418 -23.060  0.00  0.00    +0.155 HD
BRANCH  10  14
ATOM     12  N   UNL     1      32.532  -8.554 -21.152  0.00  0.00    -0.206 N 
ATOM     13  N   UNL     1      32.251  -8.680 -19.844  0.00  0.00    -0.182 NA
ATOM     14  C   UNL     1      32.154  -9.629 -21.903  0.00  0.00    +0.124 C 
ATOM     15  C   UNL     1      31.588 -10.520 -21.024  0.00  0.00    +0.037 C 
ATOM     16  C   UNL     1      31.674  -9.883 -19.772  0.00  0.00    +0.078 C 
ATOM     17  C   UNL     1      33.177  -7.351 -21.624  0.00  0.00    +0.140 C 
ATOM     18  C   UNL     1      31.213 -10.395 -18.471  0.00  0.00    +0.054 C 
ENDBRANCH  10  14
ENDBRANCH   1   9
BRANCH   2  19
ATOM     19  O   UNL     1      32.305 -13.435 -27.757  0.00  0.00    -0.435 OA
BRANCH  19  27
ATOM     20  N   UNL     1      32.467 -18.242 -25.449  0.00  0.00    -0.373 NA
ATOM     21  N   UNL     1      33.134 -16.128 -25.699  0.00  0.00    -0.173 N 
ATOM     22  N   UNL     1      33.216 -14.857 -26.181  0.00  0.00    -0.138 NA
ATOM     23  C   UNL     1      33.461 -17.952 -24.550  0.00  0.00    +0.187 C 
ATOM     24  C   UNL     1      33.891 -16.654 -24.685  0.00  0.00    +0.193 C 
ATOM     25  C   UNL     1      32.283 -17.131 -26.133  0.00  0.00    +0.204 C 
ATOM     26  C   UNL     1      31.397 -16.814 -27.191  0.00  0.00    +0.054 C 
ATOM     27  C   UNL     1      32.381 -14.634 -27.144  0.00  0.00    +0.245 C 
ATOM     28  C   UNL     1      31.410 -15.586 -27.724  0.00  0.00    +0.063 C 
ATOM     29  O   UNL     1      35.602 -17.700 -22.449  0.00  0.00    -0.275 OA
ATOM     30  N   UNL     1      33.939 -18.871 -23.647  0.00  0.00    -0.261 N 
ATOM     31  C   UNL     1      34.949 -18.710 -22.676  0.00  0.00    +0.227 C 
ATOM     32  H   UNL     1      33.521 -19.761 -23.683  0.00  0.00    +0.157 HD
BRANCH  31  33
ATOM     33  C   UNL     1      35.218 -19.930 -21.851  0.00  0.00    +0.077 C 
ATOM     34  C   UNL     1      34.458 -20.128 -20.572  0.00  0.00    +0.010 C 
ATOM     35  C   UNL     1      35.917 -19.778 -20.532  0.00  0.00    +0.010 C 
ENDBRANCH  31  33
ENDBRANCH  19  27
ENDBRANCH   2  19
TORSDOF 5
ENDMDL
MODEL 3
REMARK VINA RESULT:     -12.4      1.844     11.622
REMARK  Name = 24767976
REMARK  5 active torsions:
REMARK  status: ('A' for Active; 'I' for Inactive)
REMARK    1  A    between atoms: C_1  and  N_9
REMARK    2  A    between atoms: C_2  and  O_19
REMARK    3  A    between atoms: C_10  and  C_14
REMARK    4  A    between atoms: O_19  and  C_27
REMARK    5  A    between atoms: C_31  and  C_33
REMARK                            x       y       z     vdW  Elec       q    Type
REMARK                         _______ _______ _______ _____ _____    ______ ____
ROOT
ATOM      1  C   UNL     1      34.061 -19.449 -21.645  0.00  0.00    +0.050 C 
ATOM      2  C   UNL     1      33.334 -21.124 -20.063  0.00  0.00    +0.148 C 
ATOM      3  C   UNL     1      35.368 -19.574 -21.177  0.00  0.00    -0.008 C 
ATOM      4  C   UNL     1      33.043 -20.224 -21.088  0.00  0.00    +0.052 C 
ATOM      5  C   UNL     1      35.659 -20.474 -20.151  0.00  0.00    +0.000 C 
ATOM      6  C   UNL     1      34.641 -21.249 -19.594  0.00  0.00    +0.037 C 
ATOM      7  C   UNL     1      36.478 -18.756 -21.754  0.00  0.00    +0.032 C 
ENDROOT
BRANCH   1   9
ATOM      8  O   UNL     1      34.484 -19.673 -24.605  0.00  0.00    -0.268 OA
ATOM      9  N   UNL     1      33.750 -18.554 -22.672  0.00  0.00    -0.279 N 
ATOM     10  C   UNL     1      33.971 -18.710 -24.045  0.00  0.00    +0.265 C 
ATOM     11  H   UNL     1      33.324 -17.710 -22.396  0.00  0.00    +0.155 HD
BRANCH  10  14
ATOM     12  N   UNL     1      33.842 -16.250 -24.645  0.00  0.00    -0.206 N 
ATOM     13  N   UNL     1      33.347 -15.403 -25.563  0.00  0.00    -0.182 NA
ATOM     14  C   UNL     1      33.553 -17.560 -24.891  0.00  0.00    +0.124 C 
ATOM     15  C   UNL     1      32.818 -17.571 -26.051  0.00  0.00    +0.037 C 
ATOM     16  C   UNL     1      32.723 -16.216 -26.420  0.00  0.00    +0.078 C 
ATOM     17  C   UNL     1      34.598 -15.723 -23.532  0.00  0.00    +0.140 C 
ATOM     18  C   UNL     1      32.038 -15.652 -27.595  0.00  0.00    +0.054 C 
ENDBRANCH  10  14
ENDBRANCH   1   9
BRANCH   2  19
ATOM     19  O   UNL     1      32.318 -21.897 -19.507  0.00  0.00    -0.435 OA
BRANCH  19  27
ATOM     20  N   UNL     1      33.699 -23.839 -14.734  0.00  0.00    -0.373 NA
ATOM     21  N   UNL     1      34.150 -23.075 -16.780  0.00  0.00    -0.173 N 
ATOM     22  N   UNL     1      33.962 -22.576 -18.034  0.00  0.00    -0.138 NA
ATOM     23  C   UNL     1      35.053 -23.844 -14.952  0.00  0.00    +0.187 C 
ATOM     24  C   UNL     1      35.357 -23.377 -16.207  0.00  0.00    +0.193 C 
ATOM     25  C   UNL     1      33.170 -23.372 -15.847  0.00  0.00    +0.204 C 
ATOM     26  C   UNL     1      31.827 -23.139 -16.224  0.00  0.00    +0.054 C 
ATOM     27  C   UNL     1      32.714 -22.385 -18.314  0.00  0.00    +0.245 C 
ATOM     28  C   UNL     1      31.552 -22.649 -17.439  0.00  0.00    +0.063 C 
ATOM     29  O   UNL     1      38.057 -24.002 -15.051  0.00  0.00    -0.275 OA
ATOM     30  N   UNL     1      35.957 -24.270 -14.007  0.00  0.00    -0.261 N 
ATOM     31  C   UNL     1      37.363 -24.328 -14.097  0.00  0.00    +0.227 C 
ATOM     32  H   UNL     1      35.571 -24.575 -13.156  0.00  0.00    +0.157 HD
BRANCH  31  33
ATOM     33  C   UNL     1      38.043 -24.847 -12.868  0.00  0.00    +0.077 C 
ATOM     34  C   UNL     1      37.448 -26.021 -12.147  0.00  0.00    +0.010 C 
ATOM     35  C   UNL     1      37.384 -24.653 -11.534  0.00  0.00    +0.010 C 
ENDBRANCH  31  33
ENDBRANCH  19  27
ENDBRANCH   2  19
TORSDOF 5
ENDMDL
MODEL 4
REMARK VINA RESULT:     -12.2      2.608     11.198
REMARK  Name = 24767976
REMARK  5 active torsions:
REMARK  status: ('A' for Active; 'I' for Inactive)
REMARK    1  A    between atoms: C_1  and  N_9
REMARK    2  A    between atoms: C_2  and  O_19
REMARK    3  A    between atoms: C_10  and  C_14
REMARK    4  A    between atoms: O_19  and  C_27
REMARK    5  A    between atoms: C_31  and  C_33
REMARK                            x       y       z     vdW  Elec       q    Type
REMARK                         _______ _______ _______ _____ _____    ______ ____
ROOT
ATOM      1  C   UNL     1      33.830 -16.501 -24.423  0.00  0.00    +0.050 C 
ATOM      2  C   UNL     1      34.877 -18.439 -23.432  0.00  0.00    +0.148 C 
ATOM      3  C   UNL     1      33.350 -17.293 -25.465  0.00  0.00    -0.008 C 
ATOM      4  C   UNL     1      34.594 -17.074 -23.406  0.00  0.00    +0.052 C 
ATOM      5  C   UNL     1      33.633 -18.659 -25.491  0.00  0.00    +0.000 C 
ATOM      6  C   UNL     1      34.397 -19.232 -24.474  0.00  0.00    +0.037 C 
ATOM      7  C   UNL     1      32.530 -16.705 -26.568  0.00  0.00    +0.032 C 
ENDROOT
BRANCH   1   9
ATOM      8  O   UNL     1      34.587 -14.438 -22.382  0.00  0.00    -0.268 OA
ATOM      9  N   UNL     1      33.557 -15.132 -24.378  0.00  0.00    -0.279 N 
ATOM     10  C   UNL     1      33.936 -14.209 -23.396  0.00  0.00    +0.265 C 
ATOM     11  H   UNL     1      33.031 -14.771 -25.130  0.00  0.00    +0.155 HD
BRANCH  10  14
ATOM     12  N   UNL     1      32.573 -12.148 -22.829  0.00  0.00    -0.206 N 
ATOM     13  N   UNL     1      32.313 -10.897 -23.245  0.00  0.00    -0.182 NA
ATOM     14  C   UNL     1      33.466 -12.816 -23.616  0.00  0.00    +0.124 C 
ATOM     15  C   UNL     1      33.814 -11.941 -24.616  0.00  0.00    +0.037 C 
ATOM     16  C   UNL     1      33.074 -10.776 -24.336  0.00  0.00    +0.078 C 
ATOM     17  C   UNL     1      31.916 -12.650 -21.645  0.00  0.00    +0.140 C 
ATOM     18  C   UNL     1      33.068  -9.514 -25.095  0.00  0.00    +0.054 C 
ENDBRANCH  10  14
ENDBRANCH   1   9
BRANCH   2  19
ATOM     19  O   UNL     1      35.640 -19.013 -22.417  0.00  0.00    -0.435 OA
BRANCH  19  27
ATOM     20  N   UNL     1      32.319 -21.589 -19.132  0.00  0.00    -0.373 NA
ATOM     21  N   UNL     1      34.344 -20.979 -19.843  0.00  0.00    -0.173 N 
ATOM     22  N   UNL     1      35.317 -20.386 -20.589  0.00  0.00    -0.138 NA
ATOM     23  C   UNL     1      33.287 -22.145 -18.334  0.00  0.00    +0.187 C 
ATOM     24  C   UNL     1      34.545 -21.784 -18.753  0.00  0.00    +0.193 C 
ATOM     25  C   UNL     1      32.975 -20.890 -20.036  0.00  0.00    +0.204 C 
ATOM     26  C   UNL     1      32.526 -20.100 -21.121  0.00  0.00    +0.054 C 
ATOM     27  C   UNL     1      34.839 -19.680 -21.562  0.00  0.00    +0.245 C 
ATOM     28  C   UNL     1      33.415 -19.480 -21.906  0.00  0.00    +0.063 C 
ATOM     29  O   UNL     1      35.102 -23.532 -16.375  0.00  0.00    -0.275 OA
ATOM     30  N   UNL     1      32.993 -22.955 -17.263  0.00  0.00    -0.261 N 
ATOM     31  C   UNL     1      33.880 -23.587 -16.367  0.00  0.00    +0.227 C 
ATOM     32  H   UNL     1      32.036 -23.114 -17.099  0.00  0.00    +0.157 HD
BRANCH  31  33
ATOM     33  C   UNL     1      33.212 -24.403 -15.304  0.00  0.00    +0.077 C 
ATOM     34  C   UNL     1      32.363 -23.709 -14.279  0.00  0.00    +0.010 C 
ATOM     35  C   UNL     1      33.691 -24.287 -13.887  0.00  0.00    +0.010 C 
ENDBRANCH  31  33
ENDBRANCH  19  27
ENDBRANCH   2  19
TORSDOF 5
ENDMDL
MODEL 5
REMARK VINA RESULT:     -12.0      4.929     12.228
REMARK  Name = 24767976
REMARK  5 active torsions:
REMARK  status: ('A' for Active; 'I' for Inactive)
REMARK    1  A    between atoms: C_1  and  N_9
REMARK    2  A    between atoms: C_2  and  O_19
REMARK    3  A    between atoms: C_10  and  C_14
REMARK    4  A    between atoms: O_19  and  C_27
REMARK    5  A    between atoms: C_31  and  C_33
REMARK                            x       y       z     vdW  Elec       q    Type
REMARK                         _______ _______ _______ _____ _____    ______ ____
ROOT
ATOM      1  C   UNL     1      33.479  -9.990 -24.548  0.00  0.00    +0.050 C 
ATOM      2  C   UNL     1      32.958 -11.475 -26.380  0.00  0.00    +0.148 C 
ATOM      3  C   UNL     1      34.727  -9.731 -25.112  0.00  0.00    -0.008 C 
ATOM      4  C   UNL     1      32.594 -10.862 -25.182  0.00  0.00    +0.052 C 
ATOM      5  C   UNL     1      35.092 -10.345 -26.311  0.00  0.00    +0.000 C 
ATOM      6  C   UNL     1      34.206 -11.217 -26.945  0.00  0.00    +0.037 C 
ATOM      7  C   UNL     1      35.696  -8.802 -24.455  0.00  0.00    +0.032 C 
ENDROOT
BRANCH   1   9
ATOM      8  O   UNL     1      31.288  -8.022 -23.983  0.00  0.00    -0.268 OA
ATOM      9  N   UNL     1      33.096  -9.385 -23.349  0.00  0.00    -0.279 N 
ATOM     10  C   UNL     1      32.060  -8.467 -23.140  0.00  0.00    +0.265 C 
ATOM     11  H   UNL     1      33.620  -9.633 -22.552  0.00  0.00    +0.155 HD
BRANCH  10  14
ATOM     12  N   UNL     1      31.394  -8.690 -20.704  0.00  0.00    -0.206 N 
ATOM     13  N   UNL     1      31.374  -8.017 -19.541  0.00  0.00    -0.182 NA
ATOM     14  C   UNL     1      31.915  -7.977 -21.744  0.00  0.00    +0.124 C 
ATOM     15  C   UNL     1      32.260  -6.753 -21.224  0.00  0.00    +0.037 C 
ATOM     16  C   UNL     1      31.905  -6.835 -19.865  0.00  0.00    +0.078 C 
ATOM     17  C   UNL     1      30.885 -10.041 -20.748  0.00  0.00    +0.140 C 
ATOM     18  C   UNL     1      32.058  -5.796 -18.833  0.00  0.00    +0.054 C 
ENDBRANCH  10  14
ENDBRANCH   1   9
BRANCH   2  19
ATOM     19  O   UNL     1      32.074 -12.346 -27.014  0.00  0.00    -0.435 OA
BRANCH  19  27
ATOM     20  N   UNL     1      33.176 -17.443 -25.889  0.00  0.00    -0.373 NA
ATOM     21  N   UNL     1      33.173 -15.259 -25.438  0.00  0.00    -0.173 N 
ATOM     22  N   UNL     1      32.962 -13.920 -25.576  0.00  0.00    -0.138 NA
ATOM     23  C   UNL     1      33.764 -17.212 -24.672  0.00  0.00    +0.187 C 
ATOM     24  C   UNL     1      33.775 -15.872 -24.370  0.00  0.00    +0.193 C 
ATOM     25  C   UNL     1      32.826 -16.254 -26.336  0.00  0.00    +0.204 C 
ATOM     26  C   UNL     1      32.183 -15.851 -27.531  0.00  0.00    +0.054 C 
ATOM     27  C   UNL     1      32.372 -13.620 -26.687  0.00  0.00    +0.245 C 
ATOM     28  C   UNL     1      31.937 -14.553 -27.748  0.00  0.00    +0.063 C 
ATOM     29  O   UNL     1      35.107 -17.109 -21.980  0.00  0.00    -0.275 OA
ATOM     30  N   UNL     1      34.267 -18.221 -23.885  0.00  0.00    -0.261 N 
ATOM     31  C   UNL     1      34.891 -18.127 -22.624  0.00  0.00    +0.227 C 
ATOM     32  H   UNL     1      34.179 -19.130 -24.250  0.00  0.00    +0.157 HD
BRANCH  31  33
ATOM     33  C   UNL     1      35.319 -19.440 -22.044  0.00  0.00    +0.077 C 
ATOM     34  C   UNL     1      34.563 -20.001 -20.874  0.00  0.00    +0.010 C 
ATOM     35  C   UNL     1      35.951 -19.463 -20.683  0.00  0.00    +0.010 C 
ENDBRANCH  31  33
ENDBRANCH  19  27
ENDBRANCH   2  19
TORSDOF 5
ENDMDL
MODEL 6
REMARK VINA RESULT:     -12.0      5.381     12.944
REMARK  Name = 24767976
REMARK  5 active torsions:
REMARK  status: ('A' for Active; 'I' for Inactive)
REMARK    1  A    between atoms: C_1  and  N_9
REMARK    2  A    between atoms: C_2  and  O_19
REMARK    3  A    between atoms: C_10  and  C_14
REMARK    4  A    between atoms: O_19  and  C_27
REMARK    5  A    between atoms: C_31  and  C_33
REMARK                            x       y       z     vdW  Elec       q    Type
REMARK                         _______ _______ _______ _____ _____    ______ ____
ROOT
ATOM      1  C   UNL     1      31.888 -10.292 -22.508  0.00  0.00    +0.050 C 
ATOM      2  C   UNL     1      33.086 -12.225 -23.322  0.00  0.00    +0.148 C 
ATOM      3  C   UNL     1      31.341 -11.061 -21.483  0.00  0.00    -0.008 C 
ATOM      4  C   UNL     1      32.761 -10.873 -23.428  0.00  0.00    +0.052 C 
ATOM      5  C   UNL     1      31.667 -12.414 -21.376  0.00  0.00    +0.000 C 
ATOM      6  C   UNL     1      32.539 -12.996 -22.296  0.00  0.00    +0.037 C 
ATOM      7  C   UNL     1      30.404 -10.464 -20.483  0.00  0.00    +0.032 C 
ENDROOT
BRANCH   1   9
ATOM      8  O   UNL     1      33.446  -7.861 -21.697  0.00  0.00    -0.268 OA
ATOM      9  N   UNL     1      31.575  -8.935 -22.631  0.00  0.00    -0.279 N 
ATOM     10  C   UNL     1      32.343  -7.835 -22.233  0.00  0.00    +0.265 C 
ATOM     11  H   UNL     1      30.707  -8.728 -23.048  0.00  0.00    +0.155 HD
BRANCH  10  14
ATOM     12  N   UNL     1      31.922  -5.727 -23.576  0.00  0.00    -0.206 N 
ATOM     13  N   UNL     1      31.244  -4.567 -23.551  0.00  0.00    -0.182 NA
ATOM     14  C   UNL     1      31.723  -6.505 -22.473  0.00  0.00    +0.124 C 
ATOM     15  C   UNL     1      30.855  -5.806 -21.671  0.00  0.00    +0.037 C 
ATOM     16  C   UNL     1      30.594  -4.621 -22.385  0.00  0.00    +0.078 C 
ATOM     17  C   UNL     1      32.760  -6.031 -24.713  0.00  0.00    +0.140 C 
ATOM     18  C   UNL     1      29.721  -3.505 -21.983  0.00  0.00    +0.054 C 
ENDBRANCH  10  14
ENDBRANCH   1   9
BRANCH   2  19
ATOM     19  O   UNL     1      33.957 -12.807 -24.240  0.00  0.00    -0.435 OA
BRANCH  19  27
ATOM     20  N   UNL     1      33.816 -18.124 -23.838  0.00  0.00    -0.373 NA
ATOM     21  N   UNL     1      34.406 -16.088 -23.143  0.00  0.00    -0.173 N 
ATOM     22  N   UNL     1      34.532 -14.732 -23.103  0.00  0.00    -0.138 NA
ATOM     23  C   UNL     1      34.542 -18.214 -22.678  0.00  0.00    +0.187 C 
ATOM     24  C   UNL     1      34.919 -16.971 -22.230  0.00  0.00    +0.193 C 
ATOM     25  C   UNL     1      33.743 -16.835 -24.103  0.00  0.00    +0.204 C 
ATOM     26  C   UNL     1      33.127 -16.126 -25.162  0.00  0.00    +0.054 C 
ATOM     27  C   UNL     1      33.947 -14.147 -24.097  0.00  0.00    +0.245 C 
ATOM     28  C   UNL     1      33.202 -14.790 -25.200  0.00  0.00    +0.063 C 
ATOM     29  O   UNL     1      36.086 -18.814 -20.165  0.00  0.00    -0.275 OA
ATOM     30  N   UNL     1      34.835 -19.414 -22.075  0.00  0.00    -0.261 N 
ATOM     31  C   UNL     1      35.566 -19.650 -20.892  0.00  0.00    +0.227 C 
ATOM     32  H   UNL     1      34.489 -20.214 -22.529  0.00  0.00    +0.157 HD
BRANCH  31  33
ATOM     33  C   UNL     1      35.692 -21.094 -20.518  0.00  0.00    +0.077 C 
ATOM     34  C   UNL     1      34.680 -21.698 -19.589  0.00  0.00    +0.010 C 
ATOM     35  C   UNL     1      36.082 -21.452 -19.114  0.00  0.00    +0.010 C 
ENDBRANCH  31  33
ENDBRANCH  19  27
ENDBRANCH   2  19
TORSDOF 5
ENDMDL
MODEL 7
REMARK VINA RESULT:     -11.8      2.803     11.377
REMARK  Name = 24767976
REMARK  5 active torsions:
REMARK  status: ('A' for Active; 'I' for Inactive)
REMARK    1  A    between atoms: C_1  and  N_9
REMARK    2  A    between atoms: C_2  and  O_19
REMARK    3  A    between atoms: C_10  and  C_14
REMARK    4  A    between atoms: O_19  and  C_27
REMARK    5  A    between atoms: C_31  and  C_33
REMARK                            x       y       z     vdW  Elec       q    Type
REMARK                         _______ _______ _______ _____ _____    ______ ____
ROOT
ATOM      1  C   UNL     1      34.134 -16.335 -22.915  0.00  0.00    +0.050 C 
ATOM      2  C   UNL     1      34.875 -18.485 -22.104  0.00  0.00    +0.148 C 
ATOM      3  C   UNL     1      34.469 -15.757 -21.692  0.00  0.00    -0.008 C 
ATOM      4  C   UNL     1      34.337 -17.700 -23.122  0.00  0.00    +0.052 C 
ATOM      5  C   UNL     1      35.008 -16.543 -20.673  0.00  0.00    +0.000 C 
ATOM      6  C   UNL     1      35.211 -17.908 -20.879  0.00  0.00    +0.037 C 
ATOM      7  C   UNL     1      34.262 -14.298 -21.443  0.00  0.00    +0.032 C 
ENDROOT
BRANCH   1   9
ATOM      8  O   UNL     1      34.466 -16.567 -25.886  0.00  0.00    -0.268 OA
ATOM      9  N   UNL     1      33.593 -15.564 -23.948  0.00  0.00    -0.279 N 
ATOM     10  C   UNL     1      33.783 -15.717 -25.326  0.00  0.00    +0.265 C 
ATOM     11  H   UNL     1      33.008 -14.821 -23.672  0.00  0.00    +0.155 HD
BRANCH  10  14
ATOM     12  N   UNL     1      32.206 -14.999 -27.176  0.00  0.00    -0.206 N 
ATOM     13  N   UNL     1      31.722 -13.911 -27.799  0.00  0.00    -0.182 NA
ATOM     14  C   UNL     1      33.092 -14.714 -26.179  0.00  0.00    +0.124 C 
ATOM     15  C   UNL     1      33.194 -13.344 -26.147  0.00  0.00    +0.037 C 
ATOM     16  C   UNL     1      32.328 -12.903 -27.166  0.00  0.00    +0.078 C 
ATOM     17  C   UNL     1      31.768 -16.309 -27.599  0.00  0.00    +0.140 C 
ATOM     18  C   UNL     1      32.050 -11.514 -27.568  0.00  0.00    +0.054 C 
ENDBRANCH  10  14
ENDBRANCH   1   9
BRANCH   2  19
ATOM     19  O   UNL     1      35.078 -19.848 -22.309  0.00  0.00    -0.435 OA
BRANCH  19  27
ATOM     20  N   UNL     1      34.410 -22.536 -17.750  0.00  0.00    -0.373 NA
ATOM     21  N   UNL     1      33.666 -21.429 -19.538  0.00  0.00    -0.173 N 
ATOM     22  N   UNL     1      33.668 -20.731 -20.708  0.00  0.00    -0.138 NA
ATOM     23  C   UNL     1      33.040 -22.475 -17.731  0.00  0.00    +0.187 C 
ATOM     24  C   UNL     1      32.556 -21.797 -18.823  0.00  0.00    +0.193 C 
ATOM     25  C   UNL     1      34.770 -21.900 -18.847  0.00  0.00    +0.204 C 
ATOM     26  C   UNL     1      36.043 -21.634 -19.404  0.00  0.00    +0.054 C 
ATOM     27  C   UNL     1      34.861 -20.523 -21.162  0.00  0.00    +0.245 C 
ATOM     28  C   UNL     1      36.137 -20.953 -20.552  0.00  0.00    +0.063 C 
ATOM     29  O   UNL     1      30.056 -22.552 -17.340  0.00  0.00    -0.275 OA
ATOM     30  N   UNL     1      32.284 -23.034 -16.727  0.00  0.00    -0.261 N 
ATOM     31  C   UNL     1      30.882 -23.046 -16.583  0.00  0.00    +0.227 C 
ATOM     32  H   UNL     1      32.790 -23.486 -16.015  0.00  0.00    +0.157 HD
BRANCH  31  33
ATOM     33  C   UNL     1      30.389 -23.754 -15.359  0.00  0.00    +0.077 C 
ATOM     34  C   UNL     1      29.831 -25.140 -15.493  0.00  0.00    +0.010 C 
ATOM     35  C   UNL     1      28.916 -23.989 -15.195  0.00  0.00    +0.010 C 
ENDBRANCH  31  33
ENDBRANCH  19  27
ENDBRANCH   2  19
TORSDOF 5
ENDMDL
MODEL 8
REMARK VINA RESULT:     -11.6      1.499     11.729
REMARK  Name = 24767976
REMARK  5 active torsions:
REMARK  status: ('A' for Active; 'I' for Inactive)
REMARK    1  A    between atoms: C_1  and  N_9
REMARK    2  A    between atoms: C_2  and  O_19
REMARK    3  A    between atoms: C_10  and  C_14
REMARK    4  A    between atoms: O_19  and  C_27
REMARK    5  A    between atoms: C_31  and  C_33
REMARK                            x       y       z     vdW  Elec       q    Type
REMARK                         _______ _______ _______ _____ _____    ______ ____
ROOT
ATOM      1  C   UNL     1      34.153 -16.356 -22.876  0.00  0.00    +0.050 C 
ATOM      2  C   UNL     1      35.001 -18.428 -21.968  0.00  0.00    +0.148 C 
ATOM      3  C   UNL     1      34.443 -15.710 -21.675  0.00  0.00    -0.008 C 
ATOM      4  C   UNL     1      34.432 -17.715 -23.023  0.00  0.00    +0.052 C 
ATOM      5  C   UNL     1      35.013 -16.424 -20.619  0.00  0.00    +0.000 C 
ATOM      6  C   UNL     1      35.292 -17.783 -20.766  0.00  0.00    +0.037 C 
ATOM      7  C   UNL     1      34.155 -14.256 -21.489  0.00  0.00    +0.032 C 
ENDROOT
BRANCH   1   9
ATOM      8  O   UNL     1      34.550 -16.676 -25.831  0.00  0.00    -0.268 OA
ATOM      9  N   UNL     1      33.584 -15.659 -23.944  0.00  0.00    -0.279 N 
ATOM     10  C   UNL     1      33.806 -15.850 -25.313  0.00  0.00    +0.265 C 
ATOM     11  H   UNL     1      32.949 -14.944 -23.705  0.00  0.00    +0.155 HD
BRANCH  10  14
ATOM     12  N   UNL     1      32.161 -15.298 -27.161  0.00  0.00    -0.206 N 
ATOM     13  N   UNL     1      31.634 -14.267 -27.843  0.00  0.00    -0.182 NA
ATOM     14  C   UNL     1      33.068 -14.924 -26.213  0.00  0.00    +0.124 C 
ATOM     15  C   UNL     1      33.140 -13.554 -26.280  0.00  0.00    +0.037 C 
ATOM     16  C   UNL     1      32.235 -13.205 -27.301  0.00  0.00    +0.078 C 
ATOM     17  C   UNL     1      31.740 -16.643 -27.476  0.00  0.00    +0.140 C 
ATOM     18  C   UNL     1      31.915 -11.854 -27.791  0.00  0.00    +0.054 C 
ENDBRANCH  10  14
ENDBRANCH   1   9
BRANCH   2  19
ATOM     19  O   UNL     1      35.279 -19.785 -22.114  0.00  0.00    -0.435 OA
BRANCH  19  27
ATOM     20  N   UNL     1      33.846 -22.381 -17.680  0.00  0.00    -0.373 NA
ATOM     21  N   UNL     1      35.343 -21.471 -19.060  0.00  0.00    -0.173 N 
ATOM     22  N   UNL     1      35.868 -20.823 -20.137  0.00  0.00    -0.138 NA
ATOM     23  C   UNL     1      35.111 -22.539 -17.174  0.00  0.00    +0.187 C 
ATOM     24  C   UNL     1      36.053 -21.986 -18.008  0.00  0.00    +0.193 C 
ATOM     25  C   UNL     1      34.005 -21.734 -18.817  0.00  0.00    +0.204 C 
ATOM     26  C   UNL     1      33.073 -21.289 -19.784  0.00  0.00    +0.054 C 
ATOM     27  C   UNL     1      34.964 -20.443 -20.981  0.00  0.00    +0.245 C 
ATOM     28  C   UNL     1      33.503 -20.643 -20.875  0.00  0.00    +0.063 C 
ATOM     29  O   UNL     1      37.708 -23.077 -15.751  0.00  0.00    -0.275 OA
ATOM     30  N   UNL     1      35.361 -23.176 -15.982  0.00  0.00    -0.261 N 
ATOM     31  C   UNL     1      36.600 -23.407 -15.350  0.00  0.00    +0.227 C 
ATOM     32  H   UNL     1      34.570 -23.516 -15.506  0.00  0.00    +0.157 HD
BRANCH  31  33
ATOM     33  C   UNL     1      36.506 -24.137 -14.046  0.00  0.00    +0.077 C 
ATOM     34  C   UNL     1      36.936 -23.441 -12.788  0.00  0.00    +0.010 C 
ATOM     35  C   UNL     1      37.768 -24.555 -13.351  0.00  0.00    +0.010 C 
ENDBRANCH  31  33
ENDBRANCH  19  27
ENDBRANCH   2  19
TORSDOF 5
ENDMDL
MODEL 9
REMARK VINA RESULT:     -11.5      2.413      3.673
REMARK  Name = 24767976
REMARK  5 active torsions:
REMARK  status: ('A' for Active; 'I' for Inactive)
REMARK    1  A    between atoms: C_1  and  N_9
REMARK    2  A    between atoms: C_2  and  O_19
REMARK    3  A    between atoms: C_10  and  C_14
REMARK    4  A    between atoms: O_19  and  C_27
REMARK    5  A    between atoms: C_31  and  C_33
REMARK                            x       y       z     vdW  Elec       q    Type
REMARK                         _______ _______ _______ _____ _____    ______ ____
ROOT
ATOM      1  C   UNL     1      34.419 -21.143 -19.355  0.00  0.00    +0.050 C 
ATOM      2  C   UNL     1      34.659 -20.026 -21.483  0.00  0.00    +0.148 C 
ATOM      3  C   UNL     1      35.806 -21.209 -19.233  0.00  0.00    -0.008 C 
ATOM      4  C   UNL     1      33.845 -20.551 -20.480  0.00  0.00    +0.052 C 
ATOM      5  C   UNL     1      36.621 -20.682 -20.236  0.00  0.00    +0.000 C 
ATOM      6  C   UNL     1      36.047 -20.091 -21.362  0.00  0.00    +0.037 C 
ATOM      7  C   UNL     1      36.449 -21.837 -18.038  0.00  0.00    +0.032 C 
ENDROOT
BRANCH   1   9
ATOM      8  O   UNL     1      33.481 -23.952 -18.886  0.00  0.00    -0.268 OA
ATOM      9  N   UNL     1      33.587 -21.663 -18.360  0.00  0.00    -0.279 N 
ATOM     10  C   UNL     1      33.178 -22.990 -18.187  0.00  0.00    +0.265 C 
ATOM     11  H   UNL     1      33.245 -21.016 -17.701  0.00  0.00    +0.155 HD
BRANCH  10  14
ATOM     12  N   UNL     1      32.634 -23.669 -15.807  0.00  0.00    -0.206 N 
ATOM     13  N   UNL     1      31.611 -23.805 -14.946  0.00  0.00    -0.182 NA
ATOM     14  C   UNL     1      32.260 -23.230 -17.043  0.00  0.00    +0.124 C 
ATOM     15  C   UNL     1      30.897 -23.067 -16.987  0.00  0.00    +0.037 C 
ATOM     16  C   UNL     1      30.553 -23.436 -15.672  0.00  0.00    +0.078 C 
ATOM     17  C   UNL     1      33.974 -23.986 -15.367  0.00  0.00    +0.140 C 
ATOM     18  C   UNL     1      29.210 -23.449 -15.068  0.00  0.00    +0.054 C 
ENDBRANCH  10  14
ENDBRANCH   1   9
BRANCH   2  19
ATOM     19  O   UNL     1      34.086 -19.435 -22.607  0.00  0.00    -0.435 OA
BRANCH  19  27
ATOM     20  N   UNL     1      34.570 -14.147 -22.104  0.00  0.00    -0.373 NA
ATOM     21  N   UNL     1      34.079 -16.004 -23.238  0.00  0.00    -0.173 N 
ATOM     22  N   UNL     1      33.904 -17.324 -23.525  0.00  0.00    -0.138 NA
ATOM     23  C   UNL     1      34.164 -13.830 -23.376  0.00  0.00    +0.187 C 
ATOM     24  C   UNL     1      33.856 -14.959 -24.096  0.00  0.00    +0.193 C 
ATOM     25  C   UNL     1      34.512 -15.462 -22.040  0.00  0.00    +0.204 C 
ATOM     26  C   UNL     1      34.809 -16.365 -20.992  0.00  0.00    +0.054 C 
ATOM     27  C   UNL     1      34.193 -18.094 -22.526  0.00  0.00    +0.245 C 
ATOM     28  C   UNL     1      34.665 -17.681 -21.187  0.00  0.00    +0.063 C 
ATOM     29  O   UNL     1      33.332 -12.746 -26.058  0.00  0.00    -0.275 OA
ATOM     30  N   UNL     1      34.089 -12.535 -23.832  0.00  0.00    -0.261 N 
ATOM     31  C   UNL     1      33.692 -12.070 -25.103  0.00  0.00    +0.227 C 
ATOM     32  H   UNL     1      34.347 -11.840 -23.185  0.00  0.00    +0.157 HD
BRANCH  31  33
ATOM     33  C   UNL     1      33.727 -10.581 -25.258  0.00  0.00    +0.077 C 
ATOM     34  C   UNL     1      34.986  -9.929 -25.751  0.00  0.00    +0.010 C 
ATOM     35  C   UNL     1      34.570  -9.770 -24.318  0.00  0.00    +0.010 C 
ENDBRANCH  31  33
ENDBRANCH  19  27
ENDBRANCH   2  19
TORSDOF 5
ENDMDL
