MODEL 1
REMARK VINA RESULT:     -11.9      0.000      0.000
REMARK  Name = 447994
REMARK  10 active torsions:
REMARK  status: ('A' for Active; 'I' for Inactive)
REMARK    1  A    between atoms: C_2  and  C_10
REMARK    2  A    between atoms: C_3  and  C_17
REMARK    3  A    between atoms: C_12  and  C_14
REMARK    4  A    between atoms: C_14  and  O_15
REMARK    5  A    between atoms: C_18  and  C_19
REMARK    6  A    between atoms: C_19  and  O_20
REMARK    7  A    between atoms: O_20  and  C_21
REMARK    8  A    between atoms: C_22  and  C_30
REMARK    9  A    between atoms: C_23  and  O_27
REMARK   10  A    between atoms: C_30  and  O_31
REMARK                            x       y       z     vdW  Elec       q    Type
REMARK                         _______ _______ _______ _____ _____    ______ ____
ROOT
ATOM      1  F   UNL     1      28.806 -25.405 -14.008  0.00  0.00    -0.204 F 
ATOM      2  C   UNL     1      30.112 -23.886 -15.290  0.00  0.00    +0.065 C 
ATOM      3  C   UNL     1      32.457 -23.631 -14.771  0.00  0.00    +0.000 C 
ATOM      4  C   UNL     1      31.347 -23.290 -15.543  0.00  0.00    +0.005 C 
ATOM      5  C   UNL     1      29.986 -24.823 -14.264  0.00  0.00    +0.143 C 
ATOM      6  C   UNL     1      32.332 -24.568 -13.745  0.00  0.00    +0.002 C 
ATOM      7  C   UNL     1      31.097 -25.164 -13.492  0.00  0.00    +0.030 C 
ENDROOT
BRANCH   2  10
ATOM      8  O   UNL     1      28.493 -24.513 -16.894  0.00  0.00    -0.353 OA
ATOM      9  N   UNL     1      27.397 -24.031 -17.599  0.00  0.00    -0.070 NA
ATOM     10  C   UNL     1      28.966 -23.531 -16.091  0.00  0.00    +0.179 C 
ATOM     11  C   UNL     1      28.216 -22.401 -16.237  0.00  0.00    +0.069 C 
ATOM     12  C   UNL     1      27.251 -22.768 -17.190  0.00  0.00    +0.198 C 
BRANCH  12  14
ATOM     13  O   UNL     1      25.828 -21.956 -18.911  0.00  0.00    -0.243 OA
ATOM     14  C   UNL     1      26.194 -21.960 -17.725  0.00  0.00    +0.359 C 
BRANCH  14  15
ATOM     15  O   UNL     1      25.570 -21.144 -16.815  0.00  0.00    -0.476 OA
ATOM     16  H   UNL     1      24.785 -21.430 -16.389  0.00  0.00    +0.295 HD
ENDBRANCH  14  15
ENDBRANCH  12  14
ENDBRANCH   2  10
BRANCH   3  17
ATOM     17  C   UNL     1      33.746 -23.010 -15.035  0.00  0.00    -0.001 C 
ATOM     18  C   UNL     1      34.705 -23.492 -15.858  0.00  0.00    +0.021 C 
BRANCH  18  19
ATOM     19  C   UNL     1      36.011 -22.809 -16.108  0.00  0.00    +0.232 C 
BRANCH  19  20
ATOM     20  O   UNL     1      37.049 -23.580 -15.520  0.00  0.00    -0.470 OA
BRANCH  20  21
ATOM     21  C   UNL     1      36.921 -23.876 -14.187  0.00  0.00    +0.148 C 
ATOM     22  C   UNL     1      36.920 -25.195 -13.749  0.00  0.00    +0.143 C 
ATOM     23  C   UNL     1      36.791 -25.473 -12.390  0.00  0.00    +0.143 C 
ATOM     24  C   UNL     1      36.794 -22.830 -13.279  0.00  0.00    +0.037 C 
ATOM     25  C   UNL     1      36.663 -24.430 -11.473  0.00  0.00    +0.037 C 
ATOM     26  C   UNL     1      36.665 -23.108 -11.919  0.00  0.00    +0.006 C 
BRANCH  23  27
ATOM     27  O   UNL     1      36.788 -26.758 -11.933  0.00  0.00    -0.505 OA
ATOM     28  H   UNL     1      37.597 -27.180 -11.717  0.00  0.00    +0.292 HD
ENDBRANCH  23  27
BRANCH  22  30
ATOM     29  O   UNL     1      36.192 -26.597 -15.536  0.00  0.00    -0.245 OA
ATOM     30  C   UNL     1      37.055 -26.288 -14.708  0.00  0.00    +0.347 C 
BRANCH  30  31
ATOM     31  O   UNL     1      38.257 -26.924 -14.573  0.00  0.00    -0.441 OA
ATOM     32  C   UNL     1      39.428 -26.102 -14.622  0.00  0.00    +0.256 C 
ENDBRANCH  30  31
ENDBRANCH  22  30
ENDBRANCH  20  21
ENDBRANCH  19  20
ENDBRANCH  18  19
ENDBRANCH   3  17
TORSDOF 10
ENDMDL
MODEL 2
REMARK VINA RESULT:     -11.8      5.873      6.785
REMARK  Name = 447994
REMARK  10 active torsions:
REMARK  status: ('A' for Active; 'I' for Inactive)
REMARK    1  A    between atoms: C_2  and  C_10
REMARK    2  A    between atoms: C_3  and  C_17
REMARK    3  A    between atoms: C_12  and  C_14
REMARK    4  A    between atoms: C_14  and  O_15
REMARK    5  A    between atoms: C_18  and  C_19
REMARK    6  A    between atoms: C_19  and  O_20
REMARK    7  A    between atoms: O_20  and  C_21
REMARK    8  A    between atoms: C_22  and  C_30
REMARK    9  A    between atoms: C_23  and  O_27
REMARK   10  A    between atoms: C_30  and  O_31
REMARK                            x       y       z     vdW  Elec       q    Type
REMARK                         _______ _______ _______ _____ _____    ______ ____
ROOT
ATOM      1  F   UNL     1      31.786 -20.149 -21.297  0.00  0.00    -0.204 F 
ATOM      2  C   UNL     1      34.094 -20.030 -20.737  0.00  0.00    +0.065 C 
ATOM      3  C   UNL     1      34.953 -21.472 -18.999  0.00  0.00    +0.000 C 
ATOM      4  C   UNL     1      35.159 -20.481 -19.958  0.00  0.00    +0.005 C 
ATOM      5  C   UNL     1      32.821 -20.571 -20.557  0.00  0.00    +0.143 C 
ATOM      6  C   UNL     1      33.679 -22.012 -18.819  0.00  0.00    +0.002 C 
ATOM      7  C   UNL     1      32.613 -21.562 -19.598  0.00  0.00    +0.030 C 
ENDROOT
BRANCH   2  10
ATOM      8  O   UNL     1      35.197 -18.041 -21.380  0.00  0.00    -0.353 OA
ATOM      9  N   UNL     1      35.306 -17.130 -22.423  0.00  0.00    -0.070 NA
ATOM     10  C   UNL     1      34.312 -19.005 -21.728  0.00  0.00    +0.179 C 
ATOM     11  C   UNL     1      33.824 -18.767 -22.979  0.00  0.00    +0.069 C 
ATOM     12  C   UNL     1      34.477 -17.585 -23.367  0.00  0.00    +0.198 C 
BRANCH  12  14
ATOM     13  O   UNL     1      34.583 -17.339 -25.728  0.00  0.00    -0.243 OA
ATOM     14  C   UNL     1      34.341 -16.872 -24.604  0.00  0.00    +0.359 C 
BRANCH  14  15
ATOM     15  O   UNL     1      33.907 -15.575 -24.483  0.00  0.00    -0.476 OA
ATOM     16  H   UNL     1      33.804 -15.042 -25.246  0.00  0.00    +0.295 HD
ENDBRANCH  14  15
ENDBRANCH  12  14
ENDBRANCH   2  10
BRANCH   3  17
ATOM     17  C   UNL     1      36.064 -21.942 -18.186  0.00  0.00    -0.001 C 
ATOM     18  C   UNL     1      36.013 -22.234 -16.867  0.00  0.00    +0.021 C 
BRANCH  18  19
ATOM     19  C   UNL     1      37.181 -22.729 -16.076  0.00  0.00    +0.232 C 
BRANCH  19  20
ATOM     20  O   UNL     1      36.937 -24.076 -15.697  0.00  0.00    -0.470 OA
BRANCH  20  21
ATOM     21  C   UNL     1      36.481 -24.288 -14.421  0.00  0.00    +0.148 C 
ATOM     22  C   UNL     1      36.918 -25.383 -13.684  0.00  0.00    +0.143 C 
ATOM     23  C   UNL     1      36.443 -25.579 -12.388  0.00  0.00    +0.143 C 
ATOM     24  C   UNL     1      35.574 -23.385 -13.876  0.00  0.00    +0.037 C 
ATOM     25  C   UNL     1      35.534 -24.677 -11.835  0.00  0.00    +0.037 C 
ATOM     26  C   UNL     1      35.100 -23.581 -12.580  0.00  0.00    +0.006 C 
BRANCH  23  27
ATOM     27  O   UNL     1      36.855 -26.643 -11.643  0.00  0.00    -0.505 OA
ATOM     28  H   UNL     1      36.224 -27.227 -11.271  0.00  0.00    +0.292 HD
ENDBRANCH  23  27
BRANCH  22  30
ATOM     29  O   UNL     1      37.564 -27.236 -15.040  0.00  0.00    -0.245 OA
ATOM     30  C   UNL     1      37.871 -26.326 -14.262  0.00  0.00    +0.347 C 
BRANCH  30  31
ATOM     31  O   UNL     1      39.143 -26.074 -13.833  0.00  0.00    -0.441 OA
ATOM     32  C   UNL     1      40.028 -25.458 -14.775  0.00  0.00    +0.256 C 
ENDBRANCH  30  31
ENDBRANCH  22  30
ENDBRANCH  20  21
ENDBRANCH  19  20
ENDBRANCH  18  19
ENDBRANCH   3  17
TORSDOF 10
ENDMDL
MODEL 3
REMARK VINA RESULT:     -11.6      6.144      7.251
REMARK  Name = 447994
REMARK  10 active torsions:
REMARK  status: ('A' for Active; 'I' for Inactive)
REMARK    1  A    between atoms: C_2  and  C_10
REMARK    2  A    between atoms: C_3  and  C_17
REMARK    3  A    between atoms: C_12  and  C_14
REMARK    4  A    between atoms: C_14  and  O_15
REMARK    5  A    between atoms: C_18  and  C_19
REMARK    6  A    between atoms: C_19  and  O_20
REMARK    7  A    between atoms: O_20  and  C_21
REMARK    8  A    between atoms: C_22  and  C_30
REMARK    9  A    between atoms: C_23  and  O_27
REMARK   10  A    between atoms: C_30  and  O_31
REMARK                            x       y       z     vdW  Elec       q    Type
REMARK                         _______ _______ _______ _____ _____    ______ ____
ROOT
ATOM      1  F   UNL     1      31.678 -19.963 -21.487  0.00  0.00    -0.204 F 
ATOM      2  C   UNL     1      34.014 -19.850 -21.057  0.00  0.00    +0.065 C 
ATOM      3  C   UNL     1      34.952 -21.233 -19.312  0.00  0.00    +0.000 C 
ATOM      4  C   UNL     1      35.116 -20.282 -20.319  0.00  0.00    +0.005 C 
ATOM      5  C   UNL     1      32.747 -20.368 -20.787  0.00  0.00    +0.143 C 
ATOM      6  C   UNL     1      33.685 -21.752 -19.043  0.00  0.00    +0.002 C 
ATOM      7  C   UNL     1      32.583 -21.319 -19.780  0.00  0.00    +0.030 C 
ENDROOT
BRANCH   2  10
ATOM      8  O   UNL     1      34.867 -17.752 -21.734  0.00  0.00    -0.353 OA
ATOM      9  N   UNL     1      34.957 -16.902 -22.830  0.00  0.00    -0.070 NA
ATOM     10  C   UNL     1      34.188 -18.866 -22.098  0.00  0.00    +0.179 C 
ATOM     11  C   UNL     1      33.820 -18.788 -23.409  0.00  0.00    +0.069 C 
ATOM     12  C   UNL     1      34.325 -17.542 -23.817  0.00  0.00    +0.198 C 
BRANCH  12  14
ATOM     13  O   UNL     1      34.449 -17.518 -26.191  0.00  0.00    -0.243 OA
ATOM     14  C   UNL     1      34.228 -16.939 -25.115  0.00  0.00    +0.359 C 
BRANCH  14  15
ATOM     15  O   UNL     1      33.862 -15.616 -25.115  0.00  0.00    -0.476 OA
ATOM     16  H   UNL     1      33.717 -15.169 -25.926  0.00  0.00    +0.295 HD
ENDBRANCH  14  15
ENDBRANCH  12  14
ENDBRANCH   2  10
BRANCH   3  17
ATOM     17  C   UNL     1      36.101 -21.684 -18.543  0.00  0.00    -0.001 C 
ATOM     18  C   UNL     1      36.092 -22.034 -17.236  0.00  0.00    +0.021 C 
BRANCH  18  19
ATOM     19  C   UNL     1      37.298 -22.506 -16.491  0.00  0.00    +0.232 C 
BRANCH  19  20
ATOM     20  O   UNL     1      36.934 -22.746 -15.139  0.00  0.00    -0.470 OA
BRANCH  20  21
ATOM     21  C   UNL     1      37.403 -23.899 -14.566  0.00  0.00    +0.148 C 
ATOM     22  C   UNL     1      36.680 -24.541 -13.566  0.00  0.00    +0.143 C 
ATOM     23  C   UNL     1      37.175 -25.713 -12.998  0.00  0.00    +0.143 C 
ATOM     24  C   UNL     1      38.617 -24.419 -15.004  0.00  0.00    +0.037 C 
ATOM     25  C   UNL     1      38.391 -26.240 -13.433  0.00  0.00    +0.037 C 
ATOM     26  C   UNL     1      39.112 -25.592 -14.436  0.00  0.00    +0.006 C 
BRANCH  23  27
ATOM     27  O   UNL     1      36.486 -26.363 -12.017  0.00  0.00    -0.505 OA
ATOM     28  H   UNL     1      36.783 -26.322 -11.129  0.00  0.00    +0.292 HD
ENDBRANCH  23  27
BRANCH  22  30
ATOM     29  O   UNL     1      35.227 -23.478 -12.001  0.00  0.00    -0.245 OA
ATOM     30  C   UNL     1      35.407 -23.991 -13.111  0.00  0.00    +0.347 C 
BRANCH  30  31
ATOM     31  O   UNL     1      34.440 -24.114 -14.068  0.00  0.00    -0.441 OA
ATOM     32  C   UNL     1      33.085 -24.175 -13.610  0.00  0.00    +0.256 C 
ENDBRANCH  30  31
ENDBRANCH  22  30
ENDBRANCH  20  21
ENDBRANCH  19  20
ENDBRANCH  18  19
ENDBRANCH   3  17
TORSDOF 10
ENDMDL
MODEL 4
REMARK VINA RESULT:     -11.6      7.163      8.381
REMARK  Name = 447994
REMARK  10 active torsions:
REMARK  status: ('A' for Active; 'I' for Inactive)
REMARK    1  A    between atoms: C_2  and  C_10
REMARK    2  A    between atoms: C_3  and  C_17
REMARK    3  A    between atoms: C_12  and  C_14
REMARK    4  A    between atoms: C_14  and  O_15
REMARK    5  A    between atoms: C_18  and  C_19
REMARK    6  A    between atoms: C_19  and  O_20
REMARK    7  A    between atoms: O_20  and  C_21
REMARK    8  A    between atoms: C_22  and  C_30
REMARK    9  A    between atoms: C_23  and  O_27
REMARK   10  A    between atoms: C_30  and  O_31
REMARK                            x       y       z     vdW  Elec       q    Type
REMARK                         _______ _______ _______ _____ _____    ______ ____
ROOT
ATOM      1  F   UNL     1      36.694 -17.938 -22.954  0.00  0.00    -0.204 F 
ATOM      2  C   UNL     1      34.512 -18.760 -22.486  0.00  0.00    +0.065 C 
ATOM      3  C   UNL     1      34.199 -20.247 -20.607  0.00  0.00    +0.000 C 
ATOM      4  C   UNL     1      33.675 -19.541 -21.690  0.00  0.00    +0.005 C 
ATOM      5  C   UNL     1      35.876 -18.684 -22.199  0.00  0.00    +0.143 C 
ATOM      6  C   UNL     1      35.563 -20.171 -20.320  0.00  0.00    +0.002 C 
ATOM      7  C   UNL     1      36.401 -19.390 -21.116  0.00  0.00    +0.030 C 
ENDROOT
BRANCH   2  10
ATOM      8  O   UNL     1      32.974 -18.662 -24.277  0.00  0.00    -0.353 OA
ATOM      9  N   UNL     1      32.548 -17.847 -25.319  0.00  0.00    -0.070 NA
ATOM     10  C   UNL     1      33.966 -18.031 -23.604  0.00  0.00    +0.179 C 
ATOM     11  C   UNL     1      34.217 -16.814 -24.165  0.00  0.00    +0.069 C 
ATOM     12  C   UNL     1      33.305 -16.750 -25.232  0.00  0.00    +0.198 C 
BRANCH  12  14
ATOM     13  O   UNL     1      33.308 -15.767 -27.396  0.00  0.00    -0.243 OA
ATOM     14  C   UNL     1      33.126 -15.681 -26.171  0.00  0.00    +0.359 C 
BRANCH  14  15
ATOM     15  O   UNL     1      32.723 -14.488 -25.624  0.00  0.00    -0.476 OA
ATOM     16  H   UNL     1      31.822 -14.233 -25.666  0.00  0.00    +0.295 HD
ENDBRANCH  14  15
ENDBRANCH  12  14
ENDBRANCH   2  10
BRANCH   3  17
ATOM     17  C   UNL     1      33.326 -21.061 -19.777  0.00  0.00    -0.001 C 
ATOM     18  C   UNL     1      33.714 -22.093 -18.992  0.00  0.00    +0.021 C 
BRANCH  18  19
ATOM     19  C   UNL     1      32.779 -22.893 -18.144  0.00  0.00    +0.232 C 
BRANCH  19  20
ATOM     20  O   UNL     1      33.534 -23.582 -17.158  0.00  0.00    -0.470 OA
BRANCH  20  21
ATOM     21  C   UNL     1      32.994 -23.652 -15.900  0.00  0.00    +0.148 C 
ATOM     22  C   UNL     1      33.738 -24.143 -14.833  0.00  0.00    +0.143 C 
ATOM     23  C   UNL     1      33.169 -24.205 -13.562  0.00  0.00    +0.143 C 
ATOM     24  C   UNL     1      31.685 -23.222 -15.710  0.00  0.00    +0.037 C 
ATOM     25  C   UNL     1      31.857 -23.774 -13.364  0.00  0.00    +0.037 C 
ATOM     26  C   UNL     1      31.115 -23.283 -14.438  0.00  0.00    +0.006 C 
BRANCH  23  27
ATOM     27  O   UNL     1      33.877 -24.679 -12.498  0.00  0.00    -0.505 OA
ATOM     28  H   UNL     1      34.708 -24.304 -12.283  0.00  0.00    +0.292 HD
ENDBRANCH  23  27
BRANCH  22  30
ATOM     29  O   UNL     1      35.421 -25.675 -15.548  0.00  0.00    -0.245 OA
ATOM     30  C   UNL     1      35.112 -24.592 -15.040  0.00  0.00    +0.347 C 
BRANCH  30  31
ATOM     31  O   UNL     1      36.011 -23.662 -14.601  0.00  0.00    -0.441 OA
ATOM     32  C   UNL     1      36.714 -22.923 -15.606  0.00  0.00    +0.256 C 
ENDBRANCH  30  31
ENDBRANCH  22  30
ENDBRANCH  20  21
ENDBRANCH  19  20
ENDBRANCH  18  19
ENDBRANCH   3  17
TORSDOF 10
ENDMDL
MODEL 5
REMARK VINA RESULT:     -11.2      7.238     10.923
REMARK  Name = 447994
REMARK  10 active torsions:
REMARK  status: ('A' for Active; 'I' for Inactive)
REMARK    1  A    between atoms: C_2  and  C_10
REMARK    2  A    between atoms: C_3  and  C_17
REMARK    3  A    between atoms: C_12  and  C_14
REMARK    4  A    between atoms: C_14  and  O_15
REMARK    5  A    between atoms: C_18  and  C_19
REMARK    6  A    between atoms: C_19  and  O_20
REMARK    7  A    between atoms: O_20  and  C_21
REMARK    8  A    between atoms: C_22  and  C_30
REMARK    9  A    between atoms: C_23  and  O_27
REMARK   10  A    between atoms: C_30  and  O_31
REMARK                            x       y       z     vdW  Elec       q    Type
REMARK                         _______ _______ _______ _____ _____    ______ ____
ROOT
ATOM      1  F   UNL     1      33.232 -23.878 -15.912  0.00  0.00    -0.204 F 
ATOM      2  C   UNL     1      35.145 -22.741 -16.749  0.00  0.00    +0.065 C 
ATOM      3  C   UNL     1      35.018 -21.670 -18.911  0.00  0.00    +0.000 C 
ATOM      4  C   UNL     1      35.743 -21.995 -17.765  0.00  0.00    +0.005 C 
ATOM      5  C   UNL     1      33.821 -23.161 -16.879  0.00  0.00    +0.143 C 
ATOM      6  C   UNL     1      33.694 -22.090 -19.041  0.00  0.00    +0.002 C 
ATOM      7  C   UNL     1      33.096 -22.836 -18.025  0.00  0.00    +0.030 C 
ENDROOT
BRANCH   2  10
ATOM      8  O   UNL     1      37.173 -23.476 -15.784  0.00  0.00    -0.353 OA
ATOM      9  N   UNL     1      37.772 -23.762 -14.563  0.00  0.00    -0.070 NA
ATOM     10  C   UNL     1      35.899 -23.075 -15.565  0.00  0.00    +0.179 C 
ATOM     11  C   UNL     1      35.624 -23.082 -14.230  0.00  0.00    +0.069 C 
ATOM     12  C   UNL     1      36.828 -23.519 -13.650  0.00  0.00    +0.198 C 
BRANCH  12  14
ATOM     13  O   UNL     1      36.754 -24.693 -11.585  0.00  0.00    -0.243 OA
ATOM     14  C   UNL     1      37.112 -23.713 -12.258  0.00  0.00    +0.359 C 
BRANCH  14  15
ATOM     15  O   UNL     1      37.837 -22.708 -11.668  0.00  0.00    -0.476 OA
ATOM     16  H   UNL     1      38.705 -22.517 -11.968  0.00  0.00    +0.295 HD
ENDBRANCH  14  15
ENDBRANCH  12  14
ENDBRANCH   2  10
BRANCH   3  17
ATOM     17  C   UNL     1      35.641 -20.892 -19.971  0.00  0.00    -0.001 C 
ATOM     18  C   UNL     1      35.017 -19.996 -20.768  0.00  0.00    +0.021 C 
BRANCH  18  19
ATOM     19  C   UNL     1      35.704 -19.208 -21.837  0.00  0.00    +0.232 C 
BRANCH  19  20
ATOM     20  O   UNL     1      34.738 -18.796 -22.793  0.00  0.00    -0.470 OA
BRANCH  20  21
ATOM     21  C   UNL     1      34.513 -17.448 -22.904  0.00  0.00    +0.148 C 
ATOM     22  C   UNL     1      33.952 -16.915 -24.059  0.00  0.00    +0.143 C 
ATOM     23  C   UNL     1      33.731 -15.542 -24.151  0.00  0.00    +0.143 C 
ATOM     24  C   UNL     1      34.855 -16.622 -21.838  0.00  0.00    +0.037 C 
ATOM     25  C   UNL     1      34.071 -14.708 -23.086  0.00  0.00    +0.037 C 
ATOM     26  C   UNL     1      34.633 -15.249 -21.930  0.00  0.00    +0.006 C 
BRANCH  23  27
ATOM     27  O   UNL     1      33.181 -14.993 -25.271  0.00  0.00    -0.505 OA
ATOM     28  H   UNL     1      33.723 -14.529 -25.880  0.00  0.00    +0.292 HD
ENDBRANCH  23  27
BRANCH  22  30
ATOM     29  O   UNL     1      34.368 -18.104 -26.085  0.00  0.00    -0.245 OA
ATOM     30  C   UNL     1      33.595 -17.787 -25.174  0.00  0.00    +0.347 C 
BRANCH  30  31
ATOM     31  O   UNL     1      32.299 -18.209 -25.081  0.00  0.00    -0.441 OA
ATOM     32  C   UNL     1      31.478 -18.023 -26.239  0.00  0.00    +0.256 C 
ENDBRANCH  30  31
ENDBRANCH  22  30
ENDBRANCH  20  21
ENDBRANCH  19  20
ENDBRANCH  18  19
ENDBRANCH   3  17
TORSDOF 10
ENDMDL
MODEL 6
REMARK VINA RESULT:     -11.0      7.914     10.640
REMARK  Name = 447994
REMARK  10 active torsions:
REMARK  status: ('A' for Active; 'I' for Inactive)
REMARK    1  A    between atoms: C_2  and  C_10
REMARK    2  A    between atoms: C_3  and  C_17
REMARK    3  A    between atoms: C_12  and  C_14
REMARK    4  A    between atoms: C_14  and  O_15
REMARK    5  A    between atoms: C_18  and  C_19
REMARK    6  A    between atoms: C_19  and  O_20
REMARK    7  A    between atoms: O_20  and  C_21
REMARK    8  A    between atoms: C_22  and  C_30
REMARK    9  A    between atoms: C_23  and  O_27
REMARK   10  A    between atoms: C_30  and  O_31
REMARK                            x       y       z     vdW  Elec       q    Type
REMARK                         _______ _______ _______ _____ _____    ______ ____
ROOT
ATOM      1  F   UNL     1      35.224 -22.970 -16.854  0.00  0.00    -0.204 F 
ATOM      2  C   UNL     1      33.456 -22.142 -18.211  0.00  0.00    +0.065 C 
ATOM      3  C   UNL     1      33.997 -20.832 -20.168  0.00  0.00    +0.000 C 
ATOM      4  C   UNL     1      33.048 -21.419 -19.331  0.00  0.00    +0.005 C 
ATOM      5  C   UNL     1      34.815 -22.279 -17.927  0.00  0.00    +0.143 C 
ATOM      6  C   UNL     1      35.356 -20.969 -19.883  0.00  0.00    +0.002 C 
ATOM      7  C   UNL     1      35.765 -21.692 -18.763  0.00  0.00    +0.030 C 
ENDROOT
BRANCH   2  10
ATOM      8  O   UNL     1      31.187 -22.406 -17.607  0.00  0.00    -0.353 OA
ATOM      9  N   UNL     1      30.356 -23.060 -16.706  0.00  0.00    -0.070 NA
ATOM     10  C   UNL     1      32.471 -22.748 -17.349  0.00  0.00    +0.179 C 
ATOM     11  C   UNL     1      32.526 -23.616 -16.298  0.00  0.00    +0.069 C 
ATOM     12  C   UNL     1      31.178 -23.776 -15.935  0.00  0.00    +0.198 C 
BRANCH  12  14
ATOM     13  O   UNL     1      29.446 -24.650 -14.561  0.00  0.00    -0.243 OA
ATOM     14  C   UNL     1      30.645 -24.588 -14.880  0.00  0.00    +0.359 C 
BRANCH  14  15
ATOM     15  O   UNL     1      31.571 -25.337 -14.198  0.00  0.00    -0.476 OA
ATOM     16  H   UNL     1      32.011 -24.975 -13.453  0.00  0.00    +0.295 HD
ENDBRANCH  14  15
ENDBRANCH  12  14
ENDBRANCH   2  10
BRANCH   3  17
ATOM     17  C   UNL     1      33.571 -20.078 -21.336  0.00  0.00    -0.001 C 
ATOM     18  C   UNL     1      34.384 -19.419 -22.194  0.00  0.00    +0.021 C 
BRANCH  18  19
ATOM     19  C   UNL     1      33.899 -18.668 -23.392  0.00  0.00    +0.232 C 
BRANCH  19  20
ATOM     20  O   UNL     1      34.831 -17.639 -23.693  0.00  0.00    -0.470 OA
BRANCH  20  21
ATOM     21  C   UNL     1      34.403 -16.347 -23.531  0.00  0.00    +0.148 C 
ATOM     22  C   UNL     1      33.742 -15.684 -24.559  0.00  0.00    +0.143 C 
ATOM     23  C   UNL     1      33.314 -14.371 -24.373  0.00  0.00    +0.143 C 
ATOM     24  C   UNL     1      34.639 -15.711 -22.317  0.00  0.00    +0.037 C 
ATOM     25  C   UNL     1      33.547 -13.727 -23.158  0.00  0.00    +0.037 C 
ATOM     26  C   UNL     1      34.210 -14.398 -22.130  0.00  0.00    +0.006 C 
BRANCH  23  27
ATOM     27  O   UNL     1      32.663 -13.697 -25.363  0.00  0.00    -0.505 OA
ATOM     28  H   UNL     1      31.894 -14.065 -25.753  0.00  0.00    +0.292 HD
ENDBRANCH  23  27
BRANCH  22  30
ATOM     29  O   UNL     1      34.387 -16.754 -26.591  0.00  0.00    -0.245 OA
ATOM     30  C   UNL     1      33.497 -16.358 -25.831  0.00  0.00    +0.347 C 
BRANCH  30  31
ATOM     31  O   UNL     1      32.159 -16.495 -26.072  0.00  0.00    -0.441 OA
ATOM     32  C   UNL     1      31.665 -17.831 -26.210  0.00  0.00    +0.256 C 
ENDBRANCH  30  31
ENDBRANCH  22  30
ENDBRANCH  20  21
ENDBRANCH  19  20
ENDBRANCH  18  19
ENDBRANCH   3  17
TORSDOF 10
ENDMDL
MODEL 7
REMARK VINA RESULT:     -10.6     11.252     14.362
REMARK  Name = 447994
REMARK  10 active torsions:
REMARK  status: ('A' for Active; 'I' for Inactive)
REMARK    1  A    between atoms: C_2  and  C_10
REMARK    2  A    between atoms: C_3  and  C_17
REMARK    3  A    between atoms: C_12  and  C_14
REMARK    4  A    between atoms: C_14  and  O_15
REMARK    5  A    between atoms: C_18  and  C_19
REMARK    6  A    between atoms: C_19  and  O_20
REMARK    7  A    between atoms: O_20  and  C_21
REMARK    8  A    between atoms: C_22  and  C_30
REMARK    9  A    between atoms: C_23  and  O_27
REMARK   10  A    between atoms: C_30  and  O_31
REMARK                            x       y       z     vdW  Elec       q    Type
REMARK                         _______ _______ _______ _____ _____    ______ ____
ROOT
ATOM      1  F   UNL     1      34.705 -19.912 -24.235  0.00  0.00    -0.204 F 
ATOM      2  C   UNL     1      34.853 -18.094 -22.710  0.00  0.00    +0.065 C 
ATOM      3  C   UNL     1      34.377 -15.861 -23.500  0.00  0.00    +0.000 C 
ATOM      4  C   UNL     1      34.741 -16.725 -22.468  0.00  0.00    +0.005 C 
ATOM      5  C   UNL     1      34.601 -18.599 -23.985  0.00  0.00    +0.143 C 
ATOM      6  C   UNL     1      34.125 -16.367 -24.776  0.00  0.00    +0.002 C 
ATOM      7  C   UNL     1      34.237 -17.736 -25.019  0.00  0.00    +0.030 C 
ENDROOT
BRANCH   2  10
ATOM      8  O   UNL     1      36.436 -18.736 -21.077  0.00  0.00    -0.353 OA
ATOM      9  N   UNL     1      36.663 -19.664 -20.068  0.00  0.00    -0.070 NA
ATOM     10  C   UNL     1      35.229 -18.984 -21.638  0.00  0.00    +0.179 C 
ATOM     11  C   UNL     1      34.637 -20.053 -21.033  0.00  0.00    +0.069 C 
ATOM     12  C   UNL     1      35.575 -20.439 -20.060  0.00  0.00    +0.198 C 
BRANCH  12  14
ATOM     13  O   UNL     1      34.795 -22.547 -19.287  0.00  0.00    -0.243 OA
ATOM     14  C   UNL     1      35.472 -21.520 -19.123  0.00  0.00    +0.359 C 
BRANCH  14  15
ATOM     15  O   UNL     1      36.197 -21.358 -17.968  0.00  0.00    -0.476 OA
ATOM     16  H   UNL     1      37.121 -21.514 -17.968  0.00  0.00    +0.295 HD
ENDBRANCH  14  15
ENDBRANCH  12  14
ENDBRANCH   2  10
BRANCH   3  17
ATOM     17  C   UNL     1      34.259 -14.433 -23.248  0.00  0.00    -0.001 C 
ATOM     18  C   UNL     1      33.736 -13.519 -24.097  0.00  0.00    +0.021 C 
BRANCH  18  19
ATOM     19  C   UNL     1      33.623 -12.061 -23.786  0.00  0.00    +0.232 C 
BRANCH  19  20
ATOM     20  O   UNL     1      32.270 -11.764 -23.476  0.00  0.00    -0.470 OA
BRANCH  20  21
ATOM     21  C   UNL     1      31.988 -11.448 -22.172  0.00  0.00    +0.148 C 
ATOM     22  C   UNL     1      31.886 -10.121 -21.769  0.00  0.00    +0.143 C 
ATOM     23  C   UNL     1      31.598  -9.822 -20.438  0.00  0.00    +0.143 C 
ATOM     24  C   UNL     1      31.803 -12.480 -21.258  0.00  0.00    +0.037 C 
ATOM     25  C   UNL     1      31.411 -10.852 -19.517  0.00  0.00    +0.037 C 
ATOM     26  C   UNL     1      31.514 -12.181 -19.927  0.00  0.00    +0.006 C 
BRANCH  23  27
ATOM     27  O   UNL     1      31.491  -8.530 -20.016  0.00  0.00    -0.505 OA
ATOM     28  H   UNL     1      30.675  -8.212 -19.683  0.00  0.00    +0.292 HD
ENDBRANCH  23  27
BRANCH  22  30
ATOM     29  O   UNL     1      31.258  -8.730 -23.602  0.00  0.00    -0.245 OA
ATOM     30  C   UNL     1      32.080  -9.042 -22.733  0.00  0.00    +0.347 C 
BRANCH  30  31
ATOM     31  O   UNL     1      33.284  -8.423 -22.553  0.00  0.00    -0.441 OA
ATOM     32  C   UNL     1      34.172  -8.405 -23.675  0.00  0.00    +0.256 C 
ENDBRANCH  30  31
ENDBRANCH  22  30
ENDBRANCH  20  21
ENDBRANCH  19  20
ENDBRANCH  18  19
ENDBRANCH   3  17
TORSDOF 10
ENDMDL
MODEL 8
REMARK VINA RESULT:     -10.6      7.525      9.391
REMARK  Name = 447994
REMARK  10 active torsions:
REMARK  status: ('A' for Active; 'I' for Inactive)
REMARK    1  A    between atoms: C_2  and  C_10
REMARK    2  A    between atoms: C_3  and  C_17
REMARK    3  A    between atoms: C_12  and  C_14
REMARK    4  A    between atoms: C_14  and  O_15
REMARK    5  A    between atoms: C_18  and  C_19
REMARK    6  A    between atoms: C_19  and  O_20
REMARK    7  A    between atoms: O_20  and  C_21
REMARK    8  A    between atoms: C_22  and  C_30
REMARK    9  A    between atoms: C_23  and  O_27
REMARK   10  A    between atoms: C_30  and  O_31
REMARK                            x       y       z     vdW  Elec       q    Type
REMARK                         _______ _______ _______ _____ _____    ______ ____
ROOT
ATOM      1  F   UNL     1      35.194 -16.004 -23.092  0.00  0.00    -0.204 F 
ATOM      2  C   UNL     1      34.129 -18.130 -23.118  0.00  0.00    +0.065 C 
ATOM      3  C   UNL     1      34.621 -19.707 -21.354  0.00  0.00    +0.000 C 
ATOM      4  C   UNL     1      33.940 -19.379 -22.526  0.00  0.00    +0.005 C 
ATOM      5  C   UNL     1      35.001 -17.209 -22.537  0.00  0.00    +0.143 C 
ATOM      6  C   UNL     1      35.493 -18.785 -20.773  0.00  0.00    +0.002 C 
ATOM      7  C   UNL     1      35.683 -17.536 -21.365  0.00  0.00    +0.030 C 
ENDROOT
BRANCH   2  10
ATOM      8  O   UNL     1      32.452 -18.666 -24.693  0.00  0.00    -0.353 OA
ATOM      9  N   UNL     1      31.862 -18.218 -25.869  0.00  0.00    -0.070 NA
ATOM     10  C   UNL     1      33.422 -17.795 -24.329  0.00  0.00    +0.179 C 
ATOM     11  C   UNL     1      33.500 -16.772 -25.228  0.00  0.00    +0.069 C 
ATOM     12  C   UNL     1      32.504 -17.086 -26.168  0.00  0.00    +0.198 C 
BRANCH  12  14
ATOM     13  O   UNL     1      32.911 -15.634 -28.005  0.00  0.00    -0.243 OA
ATOM     14  C   UNL     1      32.140 -16.346 -27.341  0.00  0.00    +0.359 C 
BRANCH  14  15
ATOM     15  O   UNL     1      30.826 -16.464 -27.719  0.00  0.00    -0.476 OA
ATOM     16  H   UNL     1      30.317 -17.195 -27.426  0.00  0.00    +0.295 HD
ENDBRANCH  14  15
ENDBRANCH  12  14
ENDBRANCH   2  10
BRANCH   3  17
ATOM     17  C   UNL     1      34.424 -21.009 -20.737  0.00  0.00    -0.001 C 
ATOM     18  C   UNL     1      33.598 -21.278 -19.700  0.00  0.00    +0.021 C 
BRANCH  18  19
ATOM     19  C   UNL     1      33.418 -22.639 -19.108  0.00  0.00    +0.232 C 
BRANCH  19  20
ATOM     20  O   UNL     1      32.310 -22.607 -18.220  0.00  0.00    -0.470 OA
BRANCH  20  21
ATOM     21  C   UNL     1      32.532 -23.035 -16.937  0.00  0.00    +0.148 C 
ATOM     22  C   UNL     1      31.468 -23.300 -16.082  0.00  0.00    +0.143 C 
ATOM     23  C   UNL     1      31.716 -23.736 -14.782  0.00  0.00    +0.143 C 
ATOM     24  C   UNL     1      33.844 -23.202 -16.505  0.00  0.00    +0.037 C 
ATOM     25  C   UNL     1      33.029 -23.906 -14.342  0.00  0.00    +0.037 C 
ATOM     26  C   UNL     1      34.092 -23.639 -15.204  0.00  0.00    +0.006 C 
BRANCH  23  27
ATOM     27  O   UNL     1      30.692 -24.005 -13.924  0.00  0.00    -0.505 OA
ATOM     28  H   UNL     1      30.188 -23.303 -13.561  0.00  0.00    +0.292 HD
ENDBRANCH  23  27
BRANCH  22  30
ATOM     29  O   UNL     1      29.677 -22.113 -17.119  0.00  0.00    -0.245 OA
ATOM     30  C   UNL     1      30.093 -23.124 -16.543  0.00  0.00    +0.347 C 
BRANCH  30  31
ATOM     31  O   UNL     1      29.328 -24.218 -16.255  0.00  0.00    -0.441 OA
ATOM     32  C   UNL     1      27.948 -24.152 -16.630  0.00  0.00    +0.256 C 
ENDBRANCH  30  31
ENDBRANCH  22  30
ENDBRANCH  20  21
ENDBRANCH  19  20
ENDBRANCH  18  19
ENDBRANCH   3  17
TORSDOF 10
ENDMDL
MODEL 9
REMARK VINA RESULT:     -10.4      7.407     11.042
REMARK  Name = 447994
REMARK  10 active torsions:
REMARK  status: ('A' for Active; 'I' for Inactive)
REMARK    1  A    between atoms: C_2  and  C_10
REMARK    2  A    between atoms: C_3  and  C_17
REMARK    3  A    between atoms: C_12  and  C_14
REMARK    4  A    between atoms: C_14  and  O_15
REMARK    5  A    between atoms: C_18  and  C_19
REMARK    6  A    between atoms: C_19  and  O_20
REMARK    7  A    between atoms: O_20  and  C_21
REMARK    8  A    between atoms: C_22  and  C_30
REMARK    9  A    between atoms: C_23  and  O_27
REMARK   10  A    between atoms: C_30  and  O_31
REMARK                            x       y       z     vdW  Elec       q    Type
REMARK                         _______ _______ _______ _____ _____    ______ ____
ROOT
ATOM      1  F   UNL     1      32.678 -23.910 -16.028  0.00  0.00    -0.204 F 
ATOM      2  C   UNL     1      34.683 -22.911 -16.826  0.00  0.00    +0.065 C 
ATOM      3  C   UNL     1      34.626 -21.663 -18.895  0.00  0.00    +0.000 C 
ATOM      4  C   UNL     1      35.335 -22.152 -17.798  0.00  0.00    +0.005 C 
ATOM      5  C   UNL     1      33.320 -23.182 -16.952  0.00  0.00    +0.143 C 
ATOM      6  C   UNL     1      33.263 -21.934 -19.021  0.00  0.00    +0.002 C 
ATOM      7  C   UNL     1      32.610 -22.694 -18.050  0.00  0.00    +0.030 C 
ENDROOT
BRANCH   2  10
ATOM      8  O   UNL     1      35.448 -24.762 -15.573  0.00  0.00    -0.353 OA
ATOM      9  N   UNL     1      36.188 -25.099 -14.446  0.00  0.00    -0.070 NA
ATOM     10  C   UNL     1      35.420 -23.414 -15.693  0.00  0.00    +0.179 C 
ATOM     11  C   UNL     1      36.122 -22.834 -14.678  0.00  0.00    +0.069 C 
ATOM     12  C   UNL     1      36.580 -23.932 -13.928  0.00  0.00    +0.198 C 
BRANCH  12  14
ATOM     13  O   UNL     1      37.931 -24.897 -12.228  0.00  0.00    -0.243 OA
ATOM     14  C   UNL     1      37.379 -23.909 -12.738  0.00  0.00    +0.359 C 
BRANCH  14  15
ATOM     15  O   UNL     1      37.512 -22.675 -12.151  0.00  0.00    -0.476 OA
ATOM     16  H   UNL     1      37.244 -21.904 -12.612  0.00  0.00    +0.295 HD
ENDBRANCH  14  15
ENDBRANCH  12  14
ENDBRANCH   2  10
BRANCH   3  17
ATOM     17  C   UNL     1      35.306 -20.871 -19.908  0.00  0.00    -0.001 C 
ATOM     18  C   UNL     1      34.737 -19.924 -20.688  0.00  0.00    +0.021 C 
BRANCH  18  19
ATOM     19  C   UNL     1      35.482 -19.125 -21.708  0.00  0.00    +0.232 C 
BRANCH  19  20
ATOM     20  O   UNL     1      34.611 -18.135 -22.236  0.00  0.00    -0.470 OA
BRANCH  20  21
ATOM     21  C   UNL     1      34.361 -18.186 -23.583  0.00  0.00    +0.148 C 
ATOM     22  C   UNL     1      34.218 -17.019 -24.324  0.00  0.00    +0.143 C 
ATOM     23  C   UNL     1      33.964 -17.094 -25.693  0.00  0.00    +0.143 C 
ATOM     24  C   UNL     1      34.253 -19.430 -24.197  0.00  0.00    +0.037 C 
ATOM     25  C   UNL     1      33.855 -18.338 -26.315  0.00  0.00    +0.037 C 
ATOM     26  C   UNL     1      33.999 -19.506 -25.566  0.00  0.00    +0.006 C 
BRANCH  23  27
ATOM     27  O   UNL     1      33.822 -15.965 -26.443  0.00  0.00    -0.505 OA
ATOM     28  H   UNL     1      33.366 -15.224 -26.094  0.00  0.00    +0.292 HD
ENDBRANCH  23  27
BRANCH  22  30
ATOM     29  O   UNL     1      35.251 -15.400 -22.909  0.00  0.00    -0.245 OA
ATOM     30  C   UNL     1      34.334 -15.717 -23.674  0.00  0.00    +0.347 C 
BRANCH  30  31
ATOM     31  O   UNL     1      33.300 -14.893 -24.021  0.00  0.00    -0.441 OA
ATOM     32  C   UNL     1      33.204 -13.651 -23.316  0.00  0.00    +0.256 C 
ENDBRANCH  30  31
ENDBRANCH  22  30
ENDBRANCH  20  21
ENDBRANCH  19  20
ENDBRANCH  18  19
ENDBRANCH   3  17
TORSDOF 10
ENDMDL
